0
                    3D
 Structure written by MMmdl.
155163  0  0  1  0            999 V2000
  -30.5362  -14.9275   20.4314 C   0  0  0  0  0  0
  -30.4480  -12.5790   19.4872 C   0  0  0  0  0  0
  -29.5246  -12.5142   18.2488 C   0  0  0  0  0  0
  -28.0560  -12.3065   18.6700 C   0  0  0  0  0  0
  -27.6324  -13.2408   19.8350 C   0  0  2  0  0  0
  -28.6752  -13.2566   20.9714 C   0  0  0  0  0  0
  -25.2492  -13.8200   20.5690 C   0  0  0  0  0  0
  -24.1808  -13.0434   20.9217 C   0  0  0  0  0  0
  -24.6407  -11.6916   20.8748 C   0  0  0  0  0  0
  -23.9091  -10.4288   21.0409 C   0  0  0  0  0  0
  -24.3638   -9.4206   21.9182 C   0  0  0  0  0  0
  -23.6307   -8.2247   22.0754 C   0  0  0  0  0  0
  -22.4290   -8.0287   21.3541 C   0  0  0  0  0  0
  -21.9930   -9.0260   20.4643 C   0  0  0  0  0  0
  -22.7269  -10.2136   20.3052 C   0  0  0  0  0  0
  -21.6852   -6.0747   22.5281 C   0  0  0  0  0  0
  -21.4015   -6.5642   23.8219 C   0  0  0  0  0  0
  -21.3654   -5.6791   24.9173 C   0  0  0  0  0  0
  -21.6044   -4.3055   24.7223 C   0  0  0  0  0  0
  -21.8826   -3.8155   23.4339 C   0  0  0  0  0  0
  -21.9199   -4.6973   22.3403 C   0  0  0  0  0  0
  -22.7823  -13.5217   21.1870 C   0  0  0  0  0  0
  -22.1668   -4.2161   21.0978 F   0  0  0  0  0  0
  -21.5625   -3.4536   25.7730 F   0  0  0  0  0  0
  -29.9483  -13.6692   20.3690 N   0  0  0  0  0  0
  -26.2906  -12.9421   20.3220 N   0  0  0  0  0  0
  -25.9335  -11.6554   20.5722 N   0  0  0  0  0  0
  -22.0469  -12.8193   22.0411 N   0  0  0  0  0  0
  -25.4154  -15.1930   20.4095 N   0  0  0  0  0  0
  -31.7470  -15.0051   20.1964 O   0  0  0  0  0  0
  -21.6648   -6.8889   21.4245 O   0  0  0  0  0  0
  -22.3511  -14.5521   20.6716 O   0  0  0  0  0  0
  -24.6401  -31.8447   23.1887 C   0  0  0  0  0  0
  -25.9200  -32.4689   23.8267 C   0  0  1  0  0  0
  -27.2204  -27.1509   20.1610 C   0  0  0  0  0  0
  -25.5956  -33.8499   24.2185 N   0  0  0  0  0  0
  -23.4409  -30.4615   21.5351 C   0  0  2  0  0  0
  -24.8899  -28.8788   20.1185 C   0  0  0  0  0  0
  -22.7531  -29.4560   22.4897 C   0  0  0  0  0  0
  -18.0278  -28.1406   22.8473 C   0  0  0  0  0  0
  -24.1480  -36.7245   23.2633 C   0  0  0  0  0  0
  -25.9916  -30.7241   21.3803 C   0  0  0  0  0  0
  -26.0638  -29.3313   20.7344 C   0  0  0  0  0  0
  -27.2297  -28.4818   20.7379 C   0  0  0  0  0  0
  -26.0232  -26.7859   19.5127 C   0  0  0  0  0  0
  -24.8801  -27.6199   19.4940 C   0  0  0  0  0  0
  -23.6657  -29.7815   20.1573 C   0  0  0  0  0  0
  -25.4107  -36.3029   24.0303 C   0  0  1  0  0  0
  -20.5887  -28.3724   23.1252 C   0  0  2  0  0  0
  -20.6749  -26.9430   22.5412 C   0  0  0  0  0  0
  -19.5738  -26.6401   21.5201 C   0  0  0  0  0  0
  -18.1917  -26.7940   22.1618 C   0  0  0  0  0  0
  -19.1532  -28.8881   23.2847 C   0  0  0  0  0  0
  -18.9458  -30.1471   23.8885 C   0  0  0  0  0  0
  -17.6461  -30.6601   24.0568 C   0  0  0  0  0  0
  -25.9071  -34.9401   23.5051 C   0  0  0  0  0  0
  -16.5350  -29.9103   23.6344 C   0  0  0  0  0  0
  -16.7269  -28.6523   23.0355 C   0  0  0  0  0  0
  -26.4552  -31.6541   25.0691 C   0  0  0  0  0  0
  -25.3753  -31.3735   26.1400 C   0  0  0  0  0  0
  -27.0383  -30.2916   24.6249 C   0  0  0  0  0  0
  -27.6101  -32.4282   25.7482 C   0  0  0  0  0  0
  -27.5560  -37.1762   24.8456 C   0  0  0  0  0  0
  -21.4224  -29.3052   22.3633 N   0  0  0  0  0  0
  -26.4265  -37.3742   23.9415 N   0  0  0  0  0  0
  -24.7108  -31.0314   22.0919 N   0  0  0  0  0  0
  -23.4186  -28.8126   23.3055 O   0  0  0  0  0  0
  -28.3300  -26.2407   20.1561 O   0  0  0  0  0  0
  -26.5671  -34.8911   22.4648 O   0  0  0  0  0  0
  -23.5531  -32.1336   23.7131 O   0  0  0  0  0  0
  -29.4258  -22.5336   19.5260 C   0  0  0  0  0  0
  -29.2097  -23.9698   19.3890 C   0  0  0  0  0  0
  -27.6798  -23.9377   21.1694 C   0  0  0  0  0  0
  -27.8917  -22.5014   21.3234 C   0  0  0  0  0  0
  -28.8124  -21.7138   20.5292 C   0  0  0  0  0  0
  -28.3443  -24.7725   20.2118 C   0  0  0  0  0  0
  -25.7487  -21.2625   21.8618 C   0  0  0  0  0  0
  -27.0725  -21.8128   22.4089 C   0  0  0  0  0  0
  -29.2152  -18.9396   20.1327 C   0  0  0  0  0  0
  -30.0696  -17.6253   20.7557 C   0  0  0  0  0  0
  -29.1749  -20.3070   20.8714 N   0  0  0  0  0  0
  -29.7379  -16.0950   20.5596 N   0  0  0  0  0  0
  -31.4759  -12.7550   19.1659 H   0  0  0  0  0  0
  -30.4580  -11.6276   20.0210 H   0  0  0  0  0  0
  -29.8425  -11.7083   17.5855 H   0  0  0  0  0  0
  -29.6161  -13.4379   17.6742 H   0  0  0  0  0  0
  -27.9502  -11.2656   18.9804 H   0  0  0  0  0  0
  -27.3937  -12.4394   17.8138 H   0  0  0  0  0  0
  -27.6010  -14.2447   19.4096 H   0  0  0  0  0  0
  -28.7638  -12.2776   21.4451 H   0  0  0  0  0  0
  -28.3790  -13.9574   21.7536 H   0  0  0  0  0  0
  -25.2784   -9.5682   22.4751 H   0  0  0  0  0  0
  -24.0015   -7.4640   22.7471 H   0  0  0  0  0  0
  -21.0861   -8.8785   19.8944 H   0  0  0  0  0  0
  -22.3735  -10.9673   19.6155 H   0  0  0  0  0  0
  -21.2013   -7.6150   23.9726 H   0  0  0  0  0  0
  -21.1463   -6.0515   25.9075 H   0  0  0  0  0  0
  -22.0615   -2.7617   23.2840 H   0  0  0  0  0  0
  -22.4089  -11.9854   22.4800 H   0  0  0  0  0  0
  -21.1070  -13.1193   22.2588 H   0  0  0  0  0  0
  -24.6412  -15.8387   20.5183 H   0  0  0  0  0  0
  -26.2472  -15.6344   20.0411 H   0  0  0  0  0  0
  -26.7252  -32.5292   23.0986 H   0  0  0  0  0  0
  -25.0040  -33.9609   25.0284 H   0  0  0  0  0  0
  -22.7425  -31.2854   21.3764 H   0  0  0  0  0  0
  -23.3751  -35.9576   23.3300 H   0  0  0  0  0  0
  -24.3557  -36.8889   22.2050 H   0  0  0  0  0  0
  -23.7225  -37.6429   23.6682 H   0  0  0  0  0  0
  -26.1279  -31.4757   20.6023 H   0  0  0  0  0  0
  -26.8692  -30.7892   22.0113 H   0  0  0  0  0  0
  -28.1329  -28.8303   21.2186 H   0  0  0  0  0  0
  -25.9634  -25.8194   19.0323 H   0  0  0  0  0  0
  -23.9807  -27.2731   19.0027 H   0  0  0  0  0  0
  -23.7945  -30.5531   19.3966 H   0  0  0  0  0  0
  -22.7812  -29.2190   19.8531 H   0  0  0  0  0  0
  -25.1282  -36.1854   25.0785 H   0  0  0  0  0  0
  -20.9945  -28.3328   24.1384 H   0  0  0  0  0  0
  -20.5615  -26.2346   23.3632 H   0  0  0  0  0  0
  -21.6622  -26.7426   22.1226 H   0  0  0  0  0  0
  -19.6924  -25.6320   21.1212 H   0  0  0  0  0  0
  -19.6688  -27.3234   20.6745 H   0  0  0  0  0  0
  -17.4170  -26.6686   21.4031 H   0  0  0  0  0  0
  -18.0349  -26.0083   22.9024 H   0  0  0  0  0  0
  -19.7934  -30.7263   24.2290 H   0  0  0  0  0  0
  -17.5022  -31.6291   24.5161 H   0  0  0  0  0  0
  -15.5349  -30.3010   23.7679 H   0  0  0  0  0  0
  -15.8663  -28.0840   22.7092 H   0  0  0  0  0  0
  -24.5990  -30.6996   25.7758 H   0  0  0  0  0  0
  -24.8866  -32.2905   26.4692 H   0  0  0  0  0  0
  -25.8059  -30.9042   27.0251 H   0  0  0  0  0  0
  -26.2992  -29.6663   24.1216 H   0  0  0  0  0  0
  -27.3950  -29.7180   25.4818 H   0  0  0  0  0  0
  -27.8937  -30.4125   23.9597 H   0  0  0  0  0  0
  -27.2723  -33.3621   26.1989 H   0  0  0  0  0  0
  -28.3976  -32.6757   25.0352 H   0  0  0  0  0  0
  -28.0702  -31.8425   26.5453 H   0  0  0  0  0  0
  -28.2552  -38.0076   24.7502 H   0  0  0  0  0  0
  -28.1076  -36.2600   24.6279 H   0  0  0  0  0  0
  -27.2282  -37.1400   25.8858 H   0  0  0  0  0  0
  -20.9463  -29.8731   21.6766 H   0  0  0  0  0  0
  -26.0137  -38.2801   24.1471 H   0  0  0  0  0  0
  -30.1517  -22.0755   18.8691 H   0  0  0  0  0  0
  -29.7861  -24.4862   18.6339 H   0  0  0  0  0  0
  -26.9987  -24.4270   21.8524 H   0  0  0  0  0  0
  -25.1693  -20.7789   22.6488 H   0  0  0  0  0  0
  -25.9240  -20.5234   21.0783 H   0  0  0  0  0  0
  -25.1344  -22.0594   21.4402 H   0  0  0  0  0  0
  -26.8659  -22.5181   23.2145 H   0  0  0  0  0  0
  -27.6484  -21.0117   22.8719 H   0  0  0  0  0  0
  -28.1724  -18.6292   20.0508 H   0  0  0  0  0  0
  -29.5421  -19.1156   19.1068 H   0  0  0  0  0  0
  -30.0515  -17.7522   21.8386 H   0  0  0  0  0  0
  -31.1190  -17.7595   20.4890 H   0  0  0  0  0  0
  -28.9846  -20.1368   21.8552 H   0  0  0  0  0  0
  -28.7559  -15.8835   20.6561 H   0  0  0  0  0  0
  1 25  1  0  0  0
  1 30  2  0  0  0
  1 82  1  0  0  0
  2  3  1  0  0  0
  2 25  1  0  0  0
  2 83  1  0  0  0
  2 84  1  0  0  0
  3  4  1  0  0  0
  3 85  1  0  0  0
  3 86  1  0  0  0
  4  5  1  0  0  0
  4 87  1  0  0  0
  4 88  1  0  0  0
  5  6  1  0  0  0
  5 26  1  0  0  0
  5 89  1  0  0  0
  6 25  1  0  0  0
  6 90  1  0  0  0
  6 91  1  0  0  0
  7  8  2  0  0  0
  7 26  1  0  0  0
  7 29  1  0  0  0
  8  9  1  0  0  0
  8 22  1  0  0  0
  9 10  1  0  0  0
  9 27  2  0  0  0
 10 11  2  0  0  0
 10 15  1  0  0  0
 11 12  1  0  0  0
 11 92  1  0  0  0
 12 13  2  0  0  0
 12 93  1  0  0  0
 13 14  1  0  0  0
 13 31  1  0  0  0
 14 15  2  0  0  0
 14 94  1  0  0  0
 15 95  1  0  0  0
 16 17  2  0  0  0
 16 21  1  0  0  0
 16 31  1  0  0  0
 17 18  1  0  0  0
 17 96  1  0  0  0
 18 19  2  0  0  0
 18 97  1  0  0  0
 19 20  1  0  0  0
 19 24  1  0  0  0
 20 21  2  0  0  0
 20 98  1  0  0  0
 21 23  1  0  0  0
 22 28  1  0  0  0
 22 32  2  0  0  0
 26 27  1  0  0  0
 28 99  1  0  0  0
 28100  1  0  0  0
 29101  1  0  0  0
 29102  1  0  0  0
 33 34  1  0  0  0
 33 66  1  0  0  0
 33 70  2  0  0  0
 34 36  1  0  0  0
 34 59  1  0  0  0
 34103  1  0  0  0
 35 44  2  0  0  0
 35 45  1  0  0  0
 35 68  1  0  0  0
 36 56  1  0  0  0
 36104  1  0  0  0
 37 39  1  0  0  0
 37 47  1  0  0  0
 37 66  1  0  0  0
 37105  1  0  0  0
 38 43  2  0  0  0
 38 46  1  0  0  0
 38 47  1  0  0  0
 39 64  1  0  0  0
 39 67  2  0  0  0
 40 52  1  0  0  0
 40 53  2  0  0  0
 40 58  1  0  0  0
 41106  1  0  0  0
 41107  1  0  0  0
 41108  1  0  0  0
 41 48  1  0  0  0
 42 43  1  0  0  0
 42 66  1  0  0  0
 42109  1  0  0  0
 42110  1  0  0  0
 43 44  1  0  0  0
 44111  1  0  0  0
 45 46  2  0  0  0
 45112  1  0  0  0
 46113  1  0  0  0
 47114  1  0  0  0
 47115  1  0  0  0
 48 56  1  0  0  0
 48 65  1  0  0  0
 48116  1  0  0  0
 49 50  1  0  0  0
 49 53  1  0  0  0
 49 64  1  0  0  0
 49117  1  0  0  0
 50 51  1  0  0  0
 50118  1  0  0  0
 50119  1  0  0  0
 51 52  1  0  0  0
 51120  1  0  0  0
 51121  1  0  0  0
 52122  1  0  0  0
 52123  1  0  0  0
 53 54  1  0  0  0
 54 55  2  0  0  0
 54124  1  0  0  0
 55 57  1  0  0  0
 55125  1  0  0  0
 56 69  2  0  0  0
 57 58  2  0  0  0
 57126  1  0  0  0
 58127  1  0  0  0
 59 60  1  0  0  0
 59 61  1  0  0  0
 59 62  1  0  0  0
 60128  1  0  0  0
 60129  1  0  0  0
 60130  1  0  0  0
 61131  1  0  0  0
 61132  1  0  0  0
 61133  1  0  0  0
 62134  1  0  0  0
 62135  1  0  0  0
 62136  1  0  0  0
 63 65  1  0  0  0
 63137  1  0  0  0
 63138  1  0  0  0
 63139  1  0  0  0
 64140  1  0  0  0
 65141  1  0  0  0
 68 76  1  0  0  0
 71 72  2  0  0  0
 71 75  1  0  0  0
 71142  1  0  0  0
 72 76  1  0  0  0
 72143  1  0  0  0
 73 74  1  0  0  0
 73 76  2  0  0  0
 73144  1  0  0  0
 74 75  2  0  0  0
 74 78  1  0  0  0
 75 81  1  0  0  0
 77 78  1  0  0  0
 77145  1  0  0  0
 77146  1  0  0  0
 77147  1  0  0  0
 78148  1  0  0  0
 78149  1  0  0  0
 79 80  1  0  0  0
 79 81  1  0  0  0
 79150  1  0  0  0
 79151  1  0  0  0
 80 82  1  0  0  0
 80152  1  0  0  0
 80153  1  0  0  0
 81154  1  0  0  0
 82155  1  0  0  0
M  ISO  4   1 100  68 101  76 101  82 100
M  END
> <chiral flag>
0

> <version>
0

> <s_m_source_file>
/data/baiqing/PycharmProjects/Reinvent-master-3.2/result/LINK_invent/BTK/process_docking_weight1_custom_sum_contain_oxygen_bond_distance_aromatic_linkinvent_7_9_3/rearranged_h_0136.sdf

> <i_m_source_file_index>
1

> <r_mmod_Potential_Energy-OPLS-2005>
343.309539794922

> <r_mmod_Stretch_Energy-OPLS-2005>
208.429794311523

> <r_mmod_Bend_Energy-OPLS-2005>
259.352172851562

> <r_mmod_Torsional_Energy-OPLS-2005>
222.362976074219

> <r_mmod_Improper_Torsional_Energy-OPLS-2005>
8.04915904998779

> <r_mmod_Van_der_Waal_Energy-OPLS-2005>
125.938491821289

> <r_mmod_Electrostatic_Energy-OPLS-2005>
-433.636810302734

> <r_mmod_Solvation_Energy-OPLS-2005>
-218.346542358398

> <b_mmod_Minimization_Converged-OPLS-2005>
0

> <r_mmod_RMS_Derivative-OPLS-2005>
2.5481288433075

$$$$
1
                    3D
 Structure written by MMmdl.
162170  0  0  1  0            999 V2000
  -29.0592  -17.6139   20.5542 C   0  0  0  0  0  0
  -29.9653  -14.6581   19.6812 C   0  0  0  0  0  0
  -29.5121  -13.4722   18.6305 C   0  0  0  0  0  0
  -28.3470  -12.6073   19.1017 C   0  0  0  0  0  0
  -27.5151  -13.5904   19.9227 C   0  0  2  0  0  0
  -28.2461  -14.5795   20.9720 C   0  0  0  0  0  0
  -25.1571  -13.8705   20.6014 C   0  0  0  0  0  0
  -24.1323  -13.0462   20.9359 C   0  0  0  0  0  0
  -24.6477  -11.7127   20.8769 C   0  0  0  0  0  0
  -23.9294  -10.4335   21.0311 C   0  0  0  0  0  0
  -24.3764   -9.4269   21.9155 C   0  0  0  0  0  0
  -23.6374   -8.2335   22.0767 C   0  0  0  0  0  0
  -22.4379   -8.0335   21.3531 C   0  0  0  0  0  0
  -22.0050   -9.0309   20.4628 C   0  0  0  0  0  0
  -22.7440  -10.2151   20.2983 C   0  0  0  0  0  0
  -21.6910   -6.0792   22.5277 C   0  0  0  0  0  0
  -21.4070   -6.5680   23.8216 C   0  0  0  0  0  0
  -21.3661   -5.6813   24.9156 C   0  0  0  0  0  0
  -21.6040   -4.3077   24.7198 C   0  0  0  0  0  0
  -21.8813   -3.8184   23.4313 C   0  0  0  0  0  0
  -21.9205   -4.7011   22.3380 C   0  0  0  0  0  0
  -22.7274  -13.4961   21.1906 C   0  0  0  0  0  0
  -22.1673   -4.2185   21.0961 F   0  0  0  0  0  0
  -21.5595   -3.4559   25.7711 F   0  0  0  0  0  0
  -28.9549  -15.8668   20.3466 N   0  0  0  0  0  0
  -26.2454  -13.0648   20.3910 N   0  0  0  0  0  0
  -25.9580  -11.7418   20.5869 N   0  0  0  0  0  0
  -22.0087  -12.7887   22.0505 N   0  0  0  0  0  0
  -25.2573  -15.2477   20.4250 N   0  0  0  0  0  0
  -30.3419  -17.3397   20.4040 O   0  0  0  0  0  0
  -21.6703   -6.8959   21.4249 O   0  0  0  0  0  0
  -22.2884  -14.5263   20.6774 O   0  0  0  0  0  0
  -24.7686  -31.2580   23.2212 C   0  0  0  0  0  0
  -25.9181  -32.2206   23.7733 C   0  0  1  0  0  0
  -27.9252  -26.9036   19.5057 C   0  0  0  0  0  0
  -25.4993  -33.6548   24.0657 N   0  0  0  0  0  0
  -23.5776  -29.2434   21.8823 C   0  0  2  0  0  0
  -25.4136  -27.6890   19.4495 C   0  0  0  0  0  0
  -22.6288  -28.9777   22.8908 C   0  0  0  0  0  0
  -17.9435  -28.1321   22.8369 C   0  0  0  0  0  0
  -24.1416  -36.6362   23.2761 C   0  0  0  0  0  0
  -26.5124  -29.4032   21.9975 C   0  0  0  0  0  0
  -26.8249  -28.3749   20.4217 C   0  0  0  0  0  0
  -28.0087  -27.9536   20.3591 C   0  0  0  0  0  0
  -26.8235  -26.2301   18.8670 C   0  0  0  0  0  0
  -25.5198  -26.6322   18.7299 C   0  0  0  0  0  0
  -23.6516  -27.9508   20.3902 C   0  0  0  0  0  0
  -25.4083  -36.1777   24.0217 C   0  0  1  0  0  0
  -20.4411  -28.2408   23.2475 C   0  0  2  0  0  0
  -20.5371  -26.8326   22.6179 C   0  0  0  0  0  0
  -19.5004  -26.6153   21.5250 C   0  0  0  0  0  0
  -18.1028  -26.7941   22.1252 C   0  0  0  0  0  0
  -19.0634  -28.8490   23.3101 C   0  0  0  0  0  0
  -18.9005  -30.1172   23.9077 C   0  0  0  0  0  0
  -17.6183  -30.6661   24.0542 C   0  0  0  0  0  0
  -25.8957  -34.8024   23.4654 C   0  0  0  0  0  0
  -16.4960  -29.9345   23.6222 C   0  0  0  0  0  0
  -16.6579  -28.6714   23.0198 C   0  0  0  0  0  0
  -26.4987  -31.6252   25.1136 C   0  0  0  0  0  0
  -25.4117  -31.4085   26.1955 C   0  0  0  0  0  0
  -27.1796  -30.2705   24.8710 C   0  0  0  0  0  0
  -27.5884  -32.5364   25.7143 C   0  0  0  0  0  0
  -27.5374  -37.1249   24.8487 C   0  0  0  0  0  0
  -21.3540  -29.1040   22.5746 N   0  0  0  0  0  0
  -26.4089  -37.2739   23.9357 N   0  0  0  0  0  0
  -24.9741  -29.9625   22.5844 N   0  0  0  0  0  0
  -23.1085  -28.5533   23.9238 O   0  0  0  0  0  0
  -29.1128  -26.6857   19.0013 O   0  0  0  0  0  0
  -26.6240  -34.8004   22.4738 O   0  0  0  0  0  0
  -23.6398  -31.7345   23.4516 O   0  0  0  0  0  0
  -29.0904  -29.9545   18.2452 C   0  0  0  0  0  0
  -28.1806  -28.1015   16.9399 C   0  0  0  0  0  0
  -27.8576  -29.5648   17.3879 C   0  0  2  0  0  0
  -30.1259  -28.8144   18.0486 C   0  0  2  0  0  0
  -29.3667  -27.4961   17.7858 C   0  0  1  0  0  0
  -27.4436  -21.9157   20.8494 C   0  0  0  0  0  0
  -26.1183  -30.4595   19.1354 C   0  0  0  0  0  0
  -26.2516  -24.5144   21.4047 C   0  0  0  0  0  0
  -25.0765  -29.6893   20.2201 C   0  0  0  0  0  0
  -28.1002  -19.4518   20.7564 N   0  0  0  0  0  0
  -26.4682  -29.7286   17.8828 N   0  0  0  0  0  0
  -25.5264  -26.8903   21.5224 N   0  3  0  0  0  0
  -31.0774  -28.7002   19.0889 O   0  0  0  0  0  0
  -30.6926  -15.2339   19.1073 H   0  0  0  0  0  0
  -30.5954  -14.2307   20.4664 H   0  0  0  0  0  0
  -30.3711  -12.8579   18.3584 H   0  0  0  0  0  0
  -29.1986  -13.9732   17.7139 H   0  0  0  0  0  0
  -28.7012  -11.7877   19.7293 H   0  0  0  0  0  0
  -27.7888  -12.1760   18.2719 H   0  0  0  0  0  0
  -27.2005  -14.2750   19.1328 H   0  0  0  0  0  0
  -28.8659  -14.0107   21.6723 H   0  0  0  0  0  0
  -27.4977  -14.9916   21.6485 H   0  0  0  0  0  0
  -25.2884   -9.5769   22.4758 H   0  0  0  0  0  0
  -24.0065   -7.4763   22.7532 H   0  0  0  0  0  0
  -21.0986   -8.8843   19.8924 H   0  0  0  0  0  0
  -22.3913  -10.9662   19.6054 H   0  0  0  0  0  0
  -21.2131   -7.6200   23.9713 H   0  0  0  0  0  0
  -21.1468   -6.0558   25.9051 H   0  0  0  0  0  0
  -22.0588   -2.7644   23.2801 H   0  0  0  0  0  0
  -22.3905  -11.9640   22.4882 H   0  0  0  0  0  0
  -21.0671  -13.0732   22.2803 H   0  0  0  0  0  0
  -24.4608  -15.8691   20.5142 H   0  0  0  0  0  0
  -26.0969  -15.7081   20.0972 H   0  0  0  0  0  0
  -26.7159  -32.2524   23.0272 H   0  0  0  0  0  0
  -24.8466  -33.7529   24.8317 H   0  0  0  0  0  0
  -23.0692  -30.1106   21.4464 H   0  0  0  0  0  0
  -23.3610  -35.8734   23.3198 H   0  0  0  0  0  0
  -24.3484  -36.8311   22.2214 H   0  0  0  0  0  0
  -23.7229  -37.5489   23.7090 H   0  0  0  0  0  0
  -27.1886  -30.2588   21.9575 H   0  0  0  0  0  0
  -26.8957  -28.7429   22.7641 H   0  0  0  0  0  0
  -28.8822  -28.3653   20.8546 H   0  0  0  0  0  0
  -27.0749  -25.3811   18.2476 H   0  0  0  0  0  0
  -24.7163  -26.0843   18.2555 H   0  0  0  0  0  0
  -22.9096  -28.2534   19.6500 H   0  0  0  0  0  0
  -23.2489  -26.9887   20.7086 H   0  0  0  0  0  0
  -25.1347  -36.0375   25.0700 H   0  0  0  0  0  0
  -20.7073  -28.1489   24.3020 H   0  0  0  0  0  0
  -20.3426  -26.1044   23.4068 H   0  0  0  0  0  0
  -21.5362  -26.5877   22.2596 H   0  0  0  0  0  0
  -19.6050  -25.6155   21.0996 H   0  0  0  0  0  0
  -19.6586  -27.3206   20.7079 H   0  0  0  0  0  0
  -17.3558  -26.7118   21.3340 H   0  0  0  0  0  0
  -17.8978  -25.9859   22.8284 H   0  0  0  0  0  0
  -19.7600  -30.6609   24.2720 H   0  0  0  0  0  0
  -17.4929  -31.6373   24.5110 H   0  0  0  0  0  0
  -15.5059  -30.3576   23.7362 H   0  0  0  0  0  0
  -15.7851  -28.1295   22.6796 H   0  0  0  0  0  0
  -24.6662  -30.6626   25.9171 H   0  0  0  0  0  0
  -24.8819  -32.3343   26.4230 H   0  0  0  0  0  0
  -25.8629  -31.0664   27.1278 H   0  0  0  0  0  0
  -26.4581  -29.4714   24.7044 H   0  0  0  0  0  0
  -27.7349  -29.9526   25.7558 H   0  0  0  0  0  0
  -27.9179  -30.3278   24.0715 H   0  0  0  0  0  0
  -27.1866  -33.4997   26.0284 H   0  0  0  0  0  0
  -28.3811  -32.7341   24.9917 H   0  0  0  0  0  0
  -28.0434  -32.0902   26.5980 H   0  0  0  0  0  0
  -28.2257  -37.9611   24.7294 H   0  0  0  0  0  0
  -28.0971  -36.2100   24.6556 H   0  0  0  0  0  0
  -27.2107  -37.1101   25.8895 H   0  0  0  0  0  0
  -21.0827  -29.4982   21.6836 H   0  0  0  0  0  0
  -25.9730  -38.1755   24.1187 H   0  0  0  0  0  0
  -28.8947  -30.0818   19.3017 H   0  0  0  0  0  0
  -29.4930  -30.9168   17.9082 H   0  0  0  0  0  0
  -28.5722  -28.1936   15.9288 H   0  0  0  0  0  0
  -27.3172  -27.4665   16.7763 H   0  0  0  0  0  0
  -27.8849  -30.1898   16.4894 H   0  0  0  0  0  0
  -30.6851  -29.0590   17.1397 H   0  0  0  0  0  0
  -29.9598  -26.8416   17.1408 H   0  0  0  0  0  0
  -26.8117  -21.5588   21.6696 H   0  0  0  0  0  0
  -26.9212  -21.8262   19.8998 H   0  0  0  0  0  0
  -27.0058  -30.7989   19.6671 H   0  0  0  0  0  0
  -25.6587  -31.3826   18.7738 H   0  0  0  0  0  0
  -25.3855  -24.1247   21.9353 H   0  0  0  0  0  0
  -26.9990  -24.7140   22.1688 H   0  0  0  0  0  0
  -24.2731  -29.8337   19.4777 H   0  0  0  0  0  0
  -24.8922  -30.7082   20.5900 H   0  0  0  0  0  0
  -27.1711  -19.0505   20.8461 H   0  0  0  0  0  0
  -26.1192  -28.7827   18.0156 H   0  0  0  0  0  0
  -25.5464  -26.7358   20.5124 H   0  0  0  0  0  0
  -26.4062  -27.1934   21.9072 H   0  0  0  0  0  0
  -31.2209  -27.7715   19.2523 H   0  0  0  0  0  0
  1 25  1  0  0  0
  1 30  2  0  0  0
  1 80  1  0  0  0
  2  3  1  0  0  0
  2 25  1  0  0  0
  2 84  1  0  0  0
  2 85  1  0  0  0
  3  4  1  0  0  0
  3 86  1  0  0  0
  3 87  1  0  0  0
  4  5  1  0  0  0
  4 88  1  0  0  0
  4 89  1  0  0  0
  5  6  1  0  0  0
  5 26  1  0  0  0
  5 90  1  0  0  0
  6 25  1  0  0  0
  6 91  1  0  0  0
  6 92  1  0  0  0
  7  8  2  0  0  0
  7 26  1  0  0  0
  7 29  1  0  0  0
  8  9  1  0  0  0
  8 22  1  0  0  0
  9 10  1  0  0  0
  9 27  2  0  0  0
 10 11  2  0  0  0
 10 15  1  0  0  0
 11 12  1  0  0  0
 11 93  1  0  0  0
 12 13  2  0  0  0
 12 94  1  0  0  0
 13 14  1  0  0  0
 13 31  1  0  0  0
 14 15  2  0  0  0
 14 95  1  0  0  0
 15 96  1  0  0  0
 16 17  2  0  0  0
 16 21  1  0  0  0
 16 31  1  0  0  0
 17 18  1  0  0  0
 17 97  1  0  0  0
 18 19  2  0  0  0
 18 98  1  0  0  0
 19 20  1  0  0  0
 19 24  1  0  0  0
 20 21  2  0  0  0
 20 99  1  0  0  0
 21 23  1  0  0  0
 22 28  1  0  0  0
 22 32  2  0  0  0
 26 27  1  0  0  0
 28100  1  0  0  0
 28101  1  0  0  0
 29102  1  0  0  0
 29103  1  0  0  0
 33 34  1  0  0  0
 33 66  1  0  0  0
 33 70  2  0  0  0
 34 36  1  0  0  0
 34 59  1  0  0  0
 34104  1  0  0  0
 35 44  2  0  0  0
 35 45  1  0  0  0
 35 68  1  0  0  0
 36 56  1  0  0  0
 36105  1  0  0  0
 37 39  1  0  0  0
 37 47  1  0  0  0
 37 66  1  0  0  0
 37106  1  0  0  0
 38 43  2  0  0  0
 38 46  1  0  0  0
 38 47  1  0  0  0
 39 64  1  0  0  0
 39 67  2  0  0  0
 40 52  1  0  0  0
 40 53  2  0  0  0
 40 58  1  0  0  0
 41107  1  0  0  0
 41108  1  0  0  0
 41109  1  0  0  0
 41 48  1  0  0  0
 42 43  1  0  0  0
 42 66  1  0  0  0
 42110  1  0  0  0
 42111  1  0  0  0
 43 44  1  0  0  0
 44112  1  0  0  0
 45 46  2  0  0  0
 45113  1  0  0  0
 46114  1  0  0  0
 47115  1  0  0  0
 47116  1  0  0  0
 48 56  1  0  0  0
 48 65  1  0  0  0
 48117  1  0  0  0
 49 50  1  0  0  0
 49 53  1  0  0  0
 49 64  1  0  0  0
 49118  1  0  0  0
 50 51  1  0  0  0
 50119  1  0  0  0
 50120  1  0  0  0
 51 52  1  0  0  0
 51121  1  0  0  0
 51122  1  0  0  0
 52123  1  0  0  0
 52124  1  0  0  0
 53 54  1  0  0  0
 54 55  2  0  0  0
 54125  1  0  0  0
 55 57  1  0  0  0
 55126  1  0  0  0
 56 69  2  0  0  0
 57 58  2  0  0  0
 57127  1  0  0  0
 58128  1  0  0  0
 59 60  1  0  0  0
 59 61  1  0  0  0
 59 62  1  0  0  0
 60129  1  0  0  0
 60130  1  0  0  0
 60131  1  0  0  0
 61132  1  0  0  0
 61133  1  0  0  0
 61134  1  0  0  0
 62135  1  0  0  0
 62136  1  0  0  0
 62137  1  0  0  0
 63 65  1  0  0  0
 63138  1  0  0  0
 63139  1  0  0  0
 63140  1  0  0  0
 64141  1  0  0  0
 65142  1  0  0  0
 68 75  1  0  0  0
 71 73  1  0  0  0
 71 74  1  0  0  0
 71143  1  0  0  0
 71144  1  0  0  0
 72 73  1  0  0  0
 72 75  1  0  0  0
 72145  1  0  0  0
 72146  1  0  0  0
 73 81  1  0  0  0
 73147  1  0  0  0
 74 75  1  0  0  0
 74 83  1  0  0  0
 74148  1  0  0  0
 75149  1  0  0  0
 76 78  1  0  0  0
 76 80  1  0  0  0
 76150  1  0  0  0
 76151  1  0  0  0
 77 79  1  0  0  0
 77 81  1  0  0  0
 77152  1  0  0  0
 77153  1  0  0  0
 78 82  1  0  0  0
 78154  1  0  0  0
 78155  1  0  0  0
 79 82  1  0  0  0
 79156  1  0  0  0
 79157  1  0  0  0
 80158  1  0  0  0
 81159  1  0  0  0
 82160  1  0  0  0
 82161  1  0  0  0
 83162  1  0  0  0
M  CHG  1  82   1
M  ISO  4   1 100  68 101  75 101  80 100
M  END
> <chiral flag>
0

> <version>
0

> <s_m_source_file>
/data/baiqing/PycharmProjects/Reinvent-master-3.2/result/LINK_invent/BTK/process_docking_weight1_custom_sum_contain_oxygen_bond_distance_aromatic_linkinvent_7_9_3/rearranged_h_0136.sdf

> <i_m_source_file_index>
2

> <r_mmod_Potential_Energy-OPLS-2005>
23709.3984375

> <r_mmod_Stretch_Energy-OPLS-2005>
12905.015625

> <r_mmod_Bend_Energy-OPLS-2005>
2241.81396484375

> <r_mmod_Torsional_Energy-OPLS-2005>
458.408813476562

> <r_mmod_Improper_Torsional_Energy-OPLS-2005>
23.9625511169434

> <r_mmod_Van_der_Waal_Energy-OPLS-2005>
2264.84692382812

> <r_mmod_Electrostatic_Energy-OPLS-2005>
-310.723510742188

> <r_mmod_Solvation_Energy-OPLS-2005>
-476.530792236328

> <b_mmod_Minimization_Converged-OPLS-2005>
0

> <r_mmod_RMS_Derivative-OPLS-2005>
13.4605665206909

$$$$
2
                    3D
 Structure written by MMmdl.
170180  0  0  1  0            999 V2000
  -30.5837  -14.8585   20.4110 C   0  0  0  0  0  0
  -30.4236  -12.5202   19.4981 C   0  0  0  0  0  0
  -29.5130  -12.5159   18.2504 C   0  0  0  0  0  0
  -28.0415  -12.3249   18.6626 C   0  0  0  0  0  0
  -27.6307  -13.2458   19.8428 C   0  0  2  0  0  0
  -28.6719  -13.2454   20.9829 C   0  0  0  0  0  0
  -25.2465  -13.8221   20.5719 C   0  0  0  0  0  0
  -24.1778  -13.0448   20.9232 C   0  0  0  0  0  0
  -24.6393  -11.6932   20.8759 C   0  0  0  0  0  0
  -23.9085  -10.4296   21.0409 C   0  0  0  0  0  0
  -24.3631   -9.4210   21.9189 C   0  0  0  0  0  0
  -23.6305   -8.2245   22.0754 C   0  0  0  0  0  0
  -22.4290   -8.0284   21.3545 C   0  0  0  0  0  0
  -21.9927   -9.0256   20.4648 C   0  0  0  0  0  0
  -22.7257  -10.2136   20.3059 C   0  0  0  0  0  0
  -21.6856   -6.0746   22.5285 C   0  0  0  0  0  0
  -21.4007   -6.5645   23.8217 C   0  0  0  0  0  0
  -21.3661   -5.6796   24.9181 C   0  0  0  0  0  0
  -21.6049   -4.3059   24.7227 C   0  0  0  0  0  0
  -21.8816   -3.8155   23.4350 C   0  0  0  0  0  0
  -21.9190   -4.6970   22.3405 C   0  0  0  0  0  0
  -22.7799  -13.5216   21.1884 C   0  0  0  0  0  0
  -22.1660   -4.2162   21.0984 F   0  0  0  0  0  0
  -21.5634   -3.4540   25.7739 F   0  0  0  0  0  0
  -29.9593  -13.6196   20.3891 N   0  0  0  0  0  0
  -26.2885  -12.9450   20.3264 N   0  0  0  0  0  0
  -25.9323  -11.6580   20.5757 N   0  0  0  0  0  0
  -22.0451  -12.8196   22.0437 N   0  0  0  0  0  0
  -25.4143  -15.1950   20.4129 N   0  0  0  0  0  0
  -31.7804  -14.8796   20.1152 O   0  0  0  0  0  0
  -21.6647   -6.8885   21.4245 O   0  0  0  0  0  0
  -22.3486  -14.5522   20.6736 O   0  0  0  0  0  0
  -24.6369  -31.8474   23.1902 C   0  0  0  0  0  0
  -25.9168  -32.4703   23.8270 C   0  0  1  0  0  0
  -27.2193  -27.1843   20.1463 C   0  0  0  0  0  0
  -25.5944  -33.8510   24.2204 N   0  0  0  0  0  0
  -23.4364  -30.4657   21.5346 C   0  0  2  0  0  0
  -24.8835  -28.8912   20.1138 C   0  0  0  0  0  0
  -22.7522  -29.4561   22.4881 C   0  0  0  0  0  0
  -18.0295  -28.1391   22.8475 C   0  0  0  0  0  0
  -24.1496  -36.7257   23.2638 C   0  0  0  0  0  0
  -25.9857  -30.7365   21.3794 C   0  0  0  0  0  0
  -26.0554  -29.3486   20.7284 C   0  0  0  0  0  0
  -27.2214  -28.5070   20.7302 C   0  0  0  0  0  0
  -26.0238  -26.8067   19.5033 C   0  0  0  0  0  0
  -24.8761  -27.6317   19.4901 C   0  0  0  0  0  0
  -23.6573  -29.7885   20.1545 C   0  0  0  0  0  0
  -25.4123  -36.3034   24.0314 C   0  0  1  0  0  0
  -20.5901  -28.3702   23.1255 C   0  0  2  0  0  0
  -20.6776  -26.9409   22.5412 C   0  0  0  0  0  0
  -19.5754  -26.6368   21.5216 C   0  0  0  0  0  0
  -18.1933  -26.7935   22.1616 C   0  0  0  0  0  0
  -19.1548  -28.8862   23.2859 C   0  0  0  0  0  0
  -18.9471  -30.1462   23.8881 C   0  0  0  0  0  0
  -17.6471  -30.6588   24.0557 C   0  0  0  0  0  0
  -25.9069  -34.9412   23.5062 C   0  0  0  0  0  0
  -16.5359  -29.9084   23.6340 C   0  0  0  0  0  0
  -16.7280  -28.6500   23.0358 C   0  0  0  0  0  0
  -26.4510  -31.6560   25.0695 C   0  0  0  0  0  0
  -25.3711  -31.3739   26.1400 C   0  0  0  0  0  0
  -27.0373  -30.2969   24.6235 C   0  0  0  0  0  0
  -27.6048  -32.4325   25.7485 C   0  0  0  0  0  0
  -27.5574  -37.1771   24.8458 C   0  0  0  0  0  0
  -21.4224  -29.3041   22.3631 N   0  0  0  0  0  0
  -26.4283  -37.3747   23.9407 N   0  0  0  0  0  0
  -24.7056  -31.0380   22.0906 N   0  0  0  0  0  0
  -23.4191  -28.8108   23.3005 O   0  0  0  0  0  0
  -28.3349  -26.2947   20.1604 O   0  0  0  0  0  0
  -26.5642  -34.8906   22.4635 O   0  0  0  0  0  0
  -23.5505  -32.1323   23.7165 O   0  0  0  0  0  0
  -28.4025  -22.5892   18.9718 C   0  0  0  0  0  0
  -29.1109  -22.6307   21.2274 C   0  0  0  0  0  0
  -28.1192  -24.0101   19.0200 C   0  0  0  0  0  0
  -28.8263  -24.0566   21.2718 C   0  0  0  0  0  0
  -28.9587  -21.8224   20.0526 C   0  0  0  0  0  0
  -28.3409  -24.8369   20.1664 C   0  0  0  0  0  0
  -31.8583  -19.1783   19.2264 C   0  0  0  0  0  0
  -31.5871  -17.9313   20.0816 C   0  0  0  0  0  0
  -32.3152  -25.3847   19.3505 C   0  0  0  0  0  0
  -33.4049  -24.5781   18.6731 C   0  0  0  0  0  0
  -29.2718  -18.8937   20.5419 C   0  0  0  0  0  0
  -29.6297  -20.3400   19.8027 C   0  0  2  0  0  0
  -31.1894  -20.4750   19.7436 C   0  0  2  0  0  0
  -30.0998  -17.5335   20.0455 C   0  0  2  0  0  0
  -31.9711  -24.0995   18.6349 C   0  0  0  0  0  0
  -31.6967  -21.6523   18.8585 C   0  0  0  0  0  0
  -29.8372  -16.0567   20.5341 N   0  0  0  0  0  0
  -31.6801  -22.9640   19.5366 N   0  3  0  0  0  0
  -31.4654  -12.6364   19.1958 H   0  0  0  0  0  0
  -30.3744  -11.5607   20.0147 H   0  0  0  0  0  0
  -29.8157  -11.7261   17.5611 H   0  0  0  0  0  0
  -29.6261  -13.4573   17.7092 H   0  0  0  0  0  0
  -27.9157  -11.2797   18.9485 H   0  0  0  0  0  0
  -27.3827  -12.4858   17.8087 H   0  0  0  0  0  0
  -27.6049  -14.2563   19.4336 H   0  0  0  0  0  0
  -28.7328  -12.2661   21.4595 H   0  0  0  0  0  0
  -28.3888  -13.9521   21.7645 H   0  0  0  0  0  0
  -25.2770   -9.5691   22.4774 H   0  0  0  0  0  0
  -24.0020   -7.4635   22.7466 H   0  0  0  0  0  0
  -21.0866   -8.8775   19.8946 H   0  0  0  0  0  0
  -22.3714  -10.9680   19.6176 H   0  0  0  0  0  0
  -21.1992   -7.6153   23.9731 H   0  0  0  0  0  0
  -21.1488   -6.0523   25.9087 H   0  0  0  0  0  0
  -22.0593   -2.7618   23.2844 H   0  0  0  0  0  0
  -22.4058  -11.9853   22.4821 H   0  0  0  0  0  0
  -21.1065  -13.1211   22.2641 H   0  0  0  0  0  0
  -24.6447  -15.8458   20.5271 H   0  0  0  0  0  0
  -26.2558  -15.6361   20.0647 H   0  0  0  0  0  0
  -26.7228  -32.5321   23.0995 H   0  0  0  0  0  0
  -25.0073  -33.9627   25.0339 H   0  0  0  0  0  0
  -22.7375  -31.2908   21.3813 H   0  0  0  0  0  0
  -23.3758  -35.9589   23.3287 H   0  0  0  0  0  0
  -24.3581  -36.8909   22.2055 H   0  0  0  0  0  0
  -23.7254  -37.6446   23.6690 H   0  0  0  0  0  0
  -26.1324  -31.4907   20.6046 H   0  0  0  0  0  0
  -26.8602  -30.7881   22.0158 H   0  0  0  0  0  0
  -28.1221  -28.8550   21.2138 H   0  0  0  0  0  0
  -25.9630  -25.8413   19.0236 H   0  0  0  0  0  0
  -23.9778  -27.2786   19.0047 H   0  0  0  0  0  0
  -23.7842  -30.5595   19.3935 H   0  0  0  0  0  0
  -22.7737  -29.2239   19.8491 H   0  0  0  0  0  0
  -25.1323  -36.1849   25.0805 H   0  0  0  0  0  0
  -20.9993  -28.3285   24.1374 H   0  0  0  0  0  0
  -20.5675  -26.2306   23.3619 H   0  0  0  0  0  0
  -21.6640  -26.7423   22.1199 H   0  0  0  0  0  0
  -19.6912  -25.6274   21.1249 H   0  0  0  0  0  0
  -19.6705  -27.3168   20.6739 H   0  0  0  0  0  0
  -17.4205  -26.6680   21.4015 H   0  0  0  0  0  0
  -18.0332  -26.0089   22.9019 H   0  0  0  0  0  0
  -19.7949  -30.7280   24.2234 H   0  0  0  0  0  0
  -17.5027  -31.6272   24.5151 H   0  0  0  0  0  0
  -15.5358  -30.2975   23.7685 H   0  0  0  0  0  0
  -15.8676  -28.0811   22.7094 H   0  0  0  0  0  0
  -24.5886  -30.7102   25.7708 H   0  0  0  0  0  0
  -24.8900  -32.2926   26.4777 H   0  0  0  0  0  0
  -25.7998  -30.8927   27.0205 H   0  0  0  0  0  0
  -26.2976  -29.6689   24.1255 H   0  0  0  0  0  0
  -27.4030  -29.7266   25.4785 H   0  0  0  0  0  0
  -27.8875  -30.4230   23.9529 H   0  0  0  0  0  0
  -27.2642  -33.3645   26.2017 H   0  0  0  0  0  0
  -28.3887  -32.6845   25.0330 H   0  0  0  0  0  0
  -28.0688  -31.8474   26.5433 H   0  0  0  0  0  0
  -28.2563  -38.0088   24.7515 H   0  0  0  0  0  0
  -28.1099  -36.2609   24.6288 H   0  0  0  0  0  0
  -27.2287  -37.1440   25.8858 H   0  0  0  0  0  0
  -20.9416  -29.8745   21.6818 H   0  0  0  0  0  0
  -26.0146  -38.2815   24.1415 H   0  0  0  0  0  0
  -28.2610  -22.0957   18.0198 H   0  0  0  0  0  0
  -29.5376  -22.1728   22.1100 H   0  0  0  0  0  0
  -27.7802  -24.4848   18.1092 H   0  0  0  0  0  0
  -29.0591  -24.5817   22.1879 H   0  0  0  0  0  0
  -31.5513  -18.9898   18.1958 H   0  0  0  0  0  0
  -32.9403  -19.3179   19.1891 H   0  0  0  0  0  0
  -31.9207  -18.0859   21.1090 H   0  0  0  0  0  0
  -32.2211  -17.1543   19.6641 H   0  0  0  0  0  0
  -32.0138  -26.3156   18.8723 H   0  0  0  0  0  0
  -32.2984  -25.3987   20.4393 H   0  0  0  0  0  0
  -34.1152  -24.0561   19.3129 H   0  0  0  0  0  0
  -33.8248  -24.9786   17.7520 H   0  0  0  0  0  0
  -28.2030  -18.7106   20.4304 H   0  0  0  0  0  0
  -29.4335  -19.0186   21.6127 H   0  0  0  0  0  0
  -29.3302  -20.1332   18.7736 H   0  0  0  0  0  0
  -31.5534  -20.6341   20.7596 H   0  0  0  0  0  0
  -29.8490  -17.4467   18.9865 H   0  0  0  0  0  0
  -31.3827  -24.1467   17.7199 H   0  0  0  0  0  0
  -31.1138  -21.6987   17.9373 H   0  0  0  0  0  0
  -32.7286  -21.4816   18.5481 H   0  0  0  0  0  0
  -28.8802  -15.8880   20.8082 H   0  0  0  0  0  0
  -30.7525  -23.0837   19.9222 H   0  0  0  0  0  0
  -32.3361  -22.9522   20.3012 H   0  0  0  0  0  0
  1 25  1  0  0  0
  1 30  2  0  0  0
  1 87  1  0  0  0
  2  3  1  0  0  0
  2 25  1  0  0  0
  2 89  1  0  0  0
  2 90  1  0  0  0
  3  4  1  0  0  0
  3 91  1  0  0  0
  3 92  1  0  0  0
  4  5  1  0  0  0
  4 93  1  0  0  0
  4 94  1  0  0  0
  5  6  1  0  0  0
  5 26  1  0  0  0
  5 95  1  0  0  0
  6 25  1  0  0  0
  6 96  1  0  0  0
  6 97  1  0  0  0
  7  8  2  0  0  0
  7 26  1  0  0  0
  7 29  1  0  0  0
  8  9  1  0  0  0
  8 22  1  0  0  0
  9 10  1  0  0  0
  9 27  2  0  0  0
 10 11  2  0  0  0
 10 15  1  0  0  0
 11 12  1  0  0  0
 11 98  1  0  0  0
 12 13  2  0  0  0
 12 99  1  0  0  0
 13 14  1  0  0  0
 13 31  1  0  0  0
 14 15  2  0  0  0
 14100  1  0  0  0
 15101  1  0  0  0
 16 17  2  0  0  0
 16 21  1  0  0  0
 16 31  1  0  0  0
 17 18  1  0  0  0
 17102  1  0  0  0
 18 19  2  0  0  0
 18103  1  0  0  0
 19 20  1  0  0  0
 19 24  1  0  0  0
 20 21  2  0  0  0
 20104  1  0  0  0
 21 23  1  0  0  0
 22 28  1  0  0  0
 22 32  2  0  0  0
 26 27  1  0  0  0
 28105  1  0  0  0
 28106  1  0  0  0
 29107  1  0  0  0
 29108  1  0  0  0
 33 34  1  0  0  0
 33 66  1  0  0  0
 33 70  2  0  0  0
 34 36  1  0  0  0
 34 59  1  0  0  0
 34109  1  0  0  0
 35 44  2  0  0  0
 35 45  1  0  0  0
 35 68  1  0  0  0
 36 56  1  0  0  0
 36110  1  0  0  0
 37 39  1  0  0  0
 37 47  1  0  0  0
 37 66  1  0  0  0
 37111  1  0  0  0
 38 43  2  0  0  0
 38 46  1  0  0  0
 38 47  1  0  0  0
 39 64  1  0  0  0
 39 67  2  0  0  0
 40 52  1  0  0  0
 40 53  2  0  0  0
 40 58  1  0  0  0
 41112  1  0  0  0
 41113  1  0  0  0
 41114  1  0  0  0
 41 48  1  0  0  0
 42 43  1  0  0  0
 42 66  1  0  0  0
 42115  1  0  0  0
 42116  1  0  0  0
 43 44  1  0  0  0
 44117  1  0  0  0
 45 46  2  0  0  0
 45118  1  0  0  0
 46119  1  0  0  0
 47120  1  0  0  0
 47121  1  0  0  0
 48 56  1  0  0  0
 48 65  1  0  0  0
 48122  1  0  0  0
 49 50  1  0  0  0
 49 53  1  0  0  0
 49 64  1  0  0  0
 49123  1  0  0  0
 50 51  1  0  0  0
 50124  1  0  0  0
 50125  1  0  0  0
 51 52  1  0  0  0
 51126  1  0  0  0
 51127  1  0  0  0
 52128  1  0  0  0
 52129  1  0  0  0
 53 54  1  0  0  0
 54 55  2  0  0  0
 54130  1  0  0  0
 55 57  1  0  0  0
 55131  1  0  0  0
 56 69  2  0  0  0
 57 58  2  0  0  0
 57132  1  0  0  0
 58133  1  0  0  0
 59 60  1  0  0  0
 59 61  1  0  0  0
 59 62  1  0  0  0
 60134  1  0  0  0
 60135  1  0  0  0
 60136  1  0  0  0
 61137  1  0  0  0
 61138  1  0  0  0
 61139  1  0  0  0
 62140  1  0  0  0
 62141  1  0  0  0
 62142  1  0  0  0
 63 65  1  0  0  0
 63143  1  0  0  0
 63144  1  0  0  0
 63145  1  0  0  0
 64146  1  0  0  0
 65147  1  0  0  0
 68 76  1  0  0  0
 71 73  2  0  0  0
 71 75  1  0  0  0
 71148  1  0  0  0
 72 74  1  0  0  0
 72 75  2  0  0  0
 72149  1  0  0  0
 73 76  1  0  0  0
 73150  1  0  0  0
 74 76  2  0  0  0
 74151  1  0  0  0
 75 82  1  0  0  0
 77 78  1  0  0  0
 77 83  1  0  0  0
 77152  1  0  0  0
 77153  1  0  0  0
 78 84  1  0  0  0
 78154  1  0  0  0
 78155  1  0  0  0
 79 80  1  0  0  0
 79 85  1  0  0  0
 79156  1  0  0  0
 79157  1  0  0  0
 80 85  1  0  0  0
 80158  1  0  0  0
 80159  1  0  0  0
 81 82  1  0  0  0
 81 84  1  0  0  0
 81160  1  0  0  0
 81161  1  0  0  0
 82 83  1  0  0  0
 82162  1  0  0  0
 83 86  1  0  0  0
 83163  1  0  0  0
 84 87  1  0  0  0
 84164  1  0  0  0
 85 88  1  0  0  0
 85165  1  0  0  0
 86 88  1  0  0  0
 86166  1  0  0  0
 86167  1  0  0  0
 87168  1  0  0  0
 88169  1  0  0  0
 88170  1  0  0  0
M  CHG  1  88   1
M  ISO  4   1 100  68 101  76 101  87 100
M  END
> <chiral flag>
0

> <version>
0

> <s_m_source_file>
/data/baiqing/PycharmProjects/Reinvent-master-3.2/result/LINK_invent/BTK/process_docking_weight1_custom_sum_contain_oxygen_bond_distance_aromatic_linkinvent_7_9_3/rearranged_h_0136.sdf

> <i_m_source_file_index>
3

> <r_mmod_Potential_Energy-OPLS-2005>
280.358337402344

> <r_mmod_Stretch_Energy-OPLS-2005>
195.460800170898

> <r_mmod_Bend_Energy-OPLS-2005>
246.00602722168

> <r_mmod_Torsional_Energy-OPLS-2005>
290.705230712891

> <r_mmod_Improper_Torsional_Energy-OPLS-2005>
9.31548023223877

> <r_mmod_Van_der_Waal_Energy-OPLS-2005>
134.015762329102

> <r_mmod_Electrostatic_Energy-OPLS-2005>
-293.647491455078

> <r_mmod_Solvation_Energy-OPLS-2005>
-434.821594238281

> <b_mmod_Minimization_Converged-OPLS-2005>
0

> <r_mmod_RMS_Derivative-OPLS-2005>
1.56162977218628

$$$$
3
                    3D
 Structure written by MMmdl.
160169  0  0  1  0            999 V2000
  -30.6666  -14.5655   20.5191 C   0  0  0  0  0  0
  -30.4285  -12.3525   19.4415 C   0  0  0  0  0  0
  -29.5057  -12.5037   18.2140 C   0  0  0  0  0  0
  -28.0263  -12.3524   18.6238 C   0  0  0  0  0  0
  -27.6548  -13.2141   19.8609 C   0  0  2  0  0  0
  -28.6953  -13.0526   20.9909 C   0  0  0  0  0  0
  -25.2568  -13.8175   20.5651 C   0  0  0  0  0  0
  -24.1830  -13.0445   20.9160 C   0  0  0  0  0  0
  -24.6391  -11.6916   20.8700 C   0  0  0  0  0  0
  -23.9063  -10.4298   21.0386 C   0  0  0  0  0  0
  -24.3625   -9.4217   21.9176 C   0  0  0  0  0  0
  -23.6298   -8.2253   22.0758 C   0  0  0  0  0  0
  -22.4270   -8.0289   21.3554 C   0  0  0  0  0  0
  -21.9900   -9.0259   20.4653 C   0  0  0  0  0  0
  -22.7229  -10.2135   20.3042 C   0  0  0  0  0  0
  -21.6855   -6.0744   22.5288 C   0  0  0  0  0  0
  -21.4025   -6.5647   23.8222 C   0  0  0  0  0  0
  -21.3648   -5.6796   24.9183 C   0  0  0  0  0  0
  -21.6023   -4.3056   24.7230 C   0  0  0  0  0  0
  -21.8823   -3.8151   23.4350 C   0  0  0  0  0  0
  -21.9195   -4.6975   22.3408 C   0  0  0  0  0  0
  -22.7850  -13.5244   21.1826 C   0  0  0  0  0  0
  -22.1664   -4.2160   21.0991 F   0  0  0  0  0  0
  -21.5615   -3.4543   25.7744 F   0  0  0  0  0  0
  -30.0176  -13.3680   20.4287 N   0  0  0  0  0  0
  -26.2991  -12.9353   20.3268 N   0  0  0  0  0  0
  -25.9314  -11.6511   20.5698 N   0  0  0  0  0  0
  -22.0479  -12.8247   22.0380 N   0  0  0  0  0  0
  -25.4286  -15.1897   20.4072 N   0  0  0  0  0  0
  -31.8296  -14.6936   20.1266 O   0  0  0  0  0  0
  -21.6629   -6.8884   21.4250 O   0  0  0  0  0  0
  -22.3535  -14.5547   20.6668 O   0  0  0  0  0  0
  -24.6191  -31.8635   23.2059 C   0  0  0  0  0  0
  -25.9068  -32.4799   23.8366 C   0  0  1  0  0  0
  -27.2387  -27.3836   20.0992 C   0  0  0  0  0  0
  -25.5900  -33.8596   24.2299 N   0  0  0  0  0  0
  -23.4099  -30.4860   21.5459 C   0  0  2  0  0  0
  -24.8574  -28.9436   20.1120 C   0  0  0  0  0  0
  -22.7440  -29.4628   22.4952 C   0  0  0  0  0  0
  -18.0279  -28.1385   22.8483 C   0  0  0  0  0  0
  -24.1482  -36.7305   23.2639 C   0  0  0  0  0  0
  -25.9424  -30.8129   21.3668 C   0  0  0  0  0  0
  -26.0178  -29.4425   20.7145 C   0  0  0  0  0  0
  -27.2049  -28.6668   20.7098 C   0  0  0  0  0  0
  -26.0544  -26.9116   19.4902 C   0  0  0  0  0  0
  -24.8724  -27.6793   19.4984 C   0  0  0  0  0  0
  -23.6226  -29.8180   20.1602 C   0  0  0  0  0  0
  -25.4102  -36.3092   24.0332 C   0  0  1  0  0  0
  -20.5873  -28.3674   23.1305 C   0  0  2  0  0  0
  -20.6767  -26.9404   22.5421 C   0  0  0  0  0  0
  -19.5745  -26.6387   21.5216 C   0  0  0  0  0  0
  -18.1924  -26.7928   22.1624 C   0  0  0  0  0  0
  -19.1534  -28.8848   23.2886 C   0  0  0  0  0  0
  -18.9461  -30.1450   23.8904 C   0  0  0  0  0  0
  -17.6466  -30.6582   24.0571 C   0  0  0  0  0  0
  -25.9035  -34.9459   23.5111 C   0  0  0  0  0  0
  -16.5355  -29.9089   23.6330 C   0  0  0  0  0  0
  -16.7270  -28.6510   23.0342 C   0  0  0  0  0  0
  -26.4486  -31.6596   25.0716 C   0  0  0  0  0  0
  -25.3751  -31.3732   26.1469 C   0  0  0  0  0  0
  -27.0324  -30.3033   24.6126 C   0  0  0  0  0  0
  -27.6043  -32.4332   25.7487 C   0  0  0  0  0  0
  -27.5572  -37.1806   24.8462 C   0  0  0  0  0  0
  -21.4170  -29.3028   22.3708 N   0  0  0  0  0  0
  -26.4288  -37.3783   23.9407 N   0  0  0  0  0  0
  -24.6756  -31.0691   22.0977 N   0  0  0  0  0  0
  -23.4201  -28.8166   23.3012 O   0  0  0  0  0  0
  -28.4093  -26.6329   20.1539 O   0  0  0  0  0  0
  -26.5602  -34.8919   22.4680 O   0  0  0  0  0  0
  -23.5375  -32.1398   23.7426 O   0  0  0  0  0  0
  -31.8356  -18.9250   20.9126 C   0  0  0  0  0  0
  -31.5390  -17.5423   20.9715 C   0  0  0  0  0  0
  -29.1624  -18.0223   20.6638 C   0  0  0  0  0  0
  -30.7880  -19.8456   20.7198 C   0  0  0  0  0  0
  -29.4738  -19.4137   20.6121 C   0  0  0  0  0  0
  -30.2084  -17.0561   20.8249 C   0  0  0  0  0  0
  -30.8947  -21.3561   20.6380 C   0  0  0  0  0  0
  -28.5441  -20.6237   20.4685 C   0  0  0  0  0  0
  -29.5024  -21.8229   20.1203 C   0  0  1  0  0  0
  -27.3602  -23.2929   18.7061 C   0  0  0  0  0  0
  -28.6099  -25.4526   19.3307 C   0  0  0  0  0  0
  -28.0800  -24.0546   19.8442 C   0  0  2  0  0  0
  -29.9010  -15.6375   20.8756 N   0  0  0  0  0  0
  -29.1297  -23.2256   20.5533 N   0  3  0  0  0  0
  -31.4733  -12.4586   19.1422 H   0  0  0  0  0  0
  -30.3402  -11.3522   19.8698 H   0  0  0  0  0  0
  -29.7631  -11.7644   17.4536 H   0  0  0  0  0  0
  -29.6632  -13.4802   17.7524 H   0  0  0  0  0  0
  -27.8473  -11.2984   18.8414 H   0  0  0  0  0  0
  -27.3782  -12.6027   17.7835 H   0  0  0  0  0  0
  -27.6805  -14.2523   19.5307 H   0  0  0  0  0  0
  -28.6877  -12.0312   21.3751 H   0  0  0  0  0  0
  -28.4511  -13.6934   21.8397 H   0  0  0  0  0  0
  -25.2790   -9.5700   22.4728 H   0  0  0  0  0  0
  -24.0022   -7.4640   22.7464 H   0  0  0  0  0  0
  -21.0836   -8.8772   19.8950 H   0  0  0  0  0  0
  -22.3700  -10.9671   19.6132 H   0  0  0  0  0  0
  -21.2034   -7.6160   23.9737 H   0  0  0  0  0  0
  -21.1449   -6.0519   25.9083 H   0  0  0  0  0  0
  -22.0607   -2.7614   23.2843 H   0  0  0  0  0  0
  -22.4108  -11.9953   22.4841 H   0  0  0  0  0  0
  -21.1080  -13.1273   22.2527 H   0  0  0  0  0  0
  -24.6598  -15.8427   20.5144 H   0  0  0  0  0  0
  -26.2700  -15.6276   20.0572 H   0  0  0  0  0  0
  -26.7132  -32.5500   23.1116 H   0  0  0  0  0  0
  -25.0044  -33.9750   25.0440 H   0  0  0  0  0  0
  -22.6988  -31.3029   21.4042 H   0  0  0  0  0  0
  -23.3736  -35.9646   23.3307 H   0  0  0  0  0  0
  -24.3572  -36.8928   22.2053 H   0  0  0  0  0  0
  -23.7248  -37.6516   23.6658 H   0  0  0  0  0  0
  -26.0601  -31.5768   20.5972 H   0  0  0  0  0  0
  -26.8278  -30.8684   21.9876 H   0  0  0  0  0  0
  -28.0969  -29.0483   21.1869 H   0  0  0  0  0  0
  -26.0127  -25.9410   19.0233 H   0  0  0  0  0  0
  -23.9772  -27.2887   19.0335 H   0  0  0  0  0  0
  -23.7387  -30.5934   19.4015 H   0  0  0  0  0  0
  -22.7459  -29.2423   19.8596 H   0  0  0  0  0  0
  -25.1282  -36.1947   25.0827 H   0  0  0  0  0  0
  -20.9960  -28.3249   24.1428 H   0  0  0  0  0  0
  -20.5674  -26.2284   23.3616 H   0  0  0  0  0  0
  -21.6638  -26.7439   22.1216 H   0  0  0  0  0  0
  -19.6902  -25.6300   21.1242 H   0  0  0  0  0  0
  -19.6684  -27.3206   20.6753 H   0  0  0  0  0  0
  -17.4196  -26.6684   21.4023 H   0  0  0  0  0  0
  -18.0307  -26.0074   22.9022 H   0  0  0  0  0  0
  -19.7936  -30.7267   24.2277 H   0  0  0  0  0  0
  -17.5019  -31.6262   24.5164 H   0  0  0  0  0  0
  -15.5358  -30.3001   23.7638 H   0  0  0  0  0  0
  -15.8663  -28.0837   22.7044 H   0  0  0  0  0  0
  -24.5892  -30.7111   25.7818 H   0  0  0  0  0  0
  -24.8985  -32.2911   26.4922 H   0  0  0  0  0  0
  -25.8107  -30.8895   27.0224 H   0  0  0  0  0  0
  -26.2881  -29.6791   24.1173 H   0  0  0  0  0  0
  -27.4078  -29.7275   25.4596 H   0  0  0  0  0  0
  -27.8717  -30.4335   23.9289 H   0  0  0  0  0  0
  -27.2632  -33.3614   26.2082 H   0  0  0  0  0  0
  -28.3846  -32.6939   25.0322 H   0  0  0  0  0  0
  -28.0719  -31.8461   26.5404 H   0  0  0  0  0  0
  -28.2598  -38.0095   24.7498 H   0  0  0  0  0  0
  -28.1066  -36.2630   24.6296 H   0  0  0  0  0  0
  -27.2293  -37.1461   25.8869 H   0  0  0  0  0  0
  -20.9336  -29.8773   21.6940 H   0  0  0  0  0  0
  -26.0171  -38.2862   24.1416 H   0  0  0  0  0  0
  -32.8545  -19.2661   21.0251 H   0  0  0  0  0  0
  -32.3614  -16.8619   21.1387 H   0  0  0  0  0  0
  -28.1326  -17.7043   20.5754 H   0  0  0  0  0  0
  -31.7033  -21.6619   19.9713 H   0  0  0  0  0  0
  -31.1075  -21.7455   21.6346 H   0  0  0  0  0  0
  -28.0306  -20.7909   21.4158 H   0  0  0  0  0  0
  -27.7976  -20.4501   19.6942 H   0  0  0  0  0  0
  -29.6118  -21.8274   19.0357 H   0  0  0  0  0  0
  -26.5856  -23.9051   18.2454 H   0  0  0  0  0  0
  -26.8608  -22.3975   19.0721 H   0  0  0  0  0  0
  -28.0435  -23.0102   17.9048 H   0  0  0  0  0  0
  -28.2149  -25.6678   18.3374 H   0  0  0  0  0  0
  -29.6851  -25.3768   19.1659 H   0  0  0  0  0  0
  -27.3158  -24.2686   20.5920 H   0  0  0  0  0  0
  -28.9418  -15.4030   21.0844 H   0  0  0  0  0  0
  -29.9816  -23.7625   20.4993 H   0  0  0  0  0  0
  -28.9007  -23.2010   21.5357 H   0  0  0  0  0  0
  1 25  1  0  0  0
  1 30  2  0  0  0
  1 83  1  0  0  0
  2  3  1  0  0  0
  2 25  1  0  0  0
  2 85  1  0  0  0
  2 86  1  0  0  0
  3  4  1  0  0  0
  3 87  1  0  0  0
  3 88  1  0  0  0
  4  5  1  0  0  0
  4 89  1  0  0  0
  4 90  1  0  0  0
  5  6  1  0  0  0
  5 26  1  0  0  0
  5 91  1  0  0  0
  6 25  1  0  0  0
  6 92  1  0  0  0
  6 93  1  0  0  0
  7  8  2  0  0  0
  7 26  1  0  0  0
  7 29  1  0  0  0
  8  9  1  0  0  0
  8 22  1  0  0  0
  9 10  1  0  0  0
  9 27  2  0  0  0
 10 11  2  0  0  0
 10 15  1  0  0  0
 11 12  1  0  0  0
 11 94  1  0  0  0
 12 13  2  0  0  0
 12 95  1  0  0  0
 13 14  1  0  0  0
 13 31  1  0  0  0
 14 15  2  0  0  0
 14 96  1  0  0  0
 15 97  1  0  0  0
 16 17  2  0  0  0
 16 21  1  0  0  0
 16 31  1  0  0  0
 17 18  1  0  0  0
 17 98  1  0  0  0
 18 19  2  0  0  0
 18 99  1  0  0  0
 19 20  1  0  0  0
 19 24  1  0  0  0
 20 21  2  0  0  0
 20100  1  0  0  0
 21 23  1  0  0  0
 22 28  1  0  0  0
 22 32  2  0  0  0
 26 27  1  0  0  0
 28101  1  0  0  0
 28102  1  0  0  0
 29103  1  0  0  0
 29104  1  0  0  0
 33 34  1  0  0  0
 33 66  1  0  0  0
 33 70  2  0  0  0
 34 36  1  0  0  0
 34 59  1  0  0  0
 34105  1  0  0  0
 35 44  2  0  0  0
 35 45  1  0  0  0
 35 68  1  0  0  0
 36 56  1  0  0  0
 36106  1  0  0  0
 37 39  1  0  0  0
 37 47  1  0  0  0
 37 66  1  0  0  0
 37107  1  0  0  0
 38 43  2  0  0  0
 38 46  1  0  0  0
 38 47  1  0  0  0
 39 64  1  0  0  0
 39 67  2  0  0  0
 40 52  1  0  0  0
 40 53  2  0  0  0
 40 58  1  0  0  0
 41108  1  0  0  0
 41109  1  0  0  0
 41110  1  0  0  0
 41 48  1  0  0  0
 42 43  1  0  0  0
 42 66  1  0  0  0
 42111  1  0  0  0
 42112  1  0  0  0
 43 44  1  0  0  0
 44113  1  0  0  0
 45 46  2  0  0  0
 45114  1  0  0  0
 46115  1  0  0  0
 47116  1  0  0  0
 47117  1  0  0  0
 48 56  1  0  0  0
 48 65  1  0  0  0
 48118  1  0  0  0
 49 50  1  0  0  0
 49 53  1  0  0  0
 49 64  1  0  0  0
 49119  1  0  0  0
 50 51  1  0  0  0
 50120  1  0  0  0
 50121  1  0  0  0
 51 52  1  0  0  0
 51122  1  0  0  0
 51123  1  0  0  0
 52124  1  0  0  0
 52125  1  0  0  0
 53 54  1  0  0  0
 54 55  2  0  0  0
 54126  1  0  0  0
 55 57  1  0  0  0
 55127  1  0  0  0
 56 69  2  0  0  0
 57 58  2  0  0  0
 57128  1  0  0  0
 58129  1  0  0  0
 59 60  1  0  0  0
 59 61  1  0  0  0
 59 62  1  0  0  0
 60130  1  0  0  0
 60131  1  0  0  0
 60132  1  0  0  0
 61133  1  0  0  0
 61134  1  0  0  0
 61135  1  0  0  0
 62136  1  0  0  0
 62137  1  0  0  0
 62138  1  0  0  0
 63 65  1  0  0  0
 63139  1  0  0  0
 63140  1  0  0  0
 63141  1  0  0  0
 64142  1  0  0  0
 65143  1  0  0  0
 68 81  1  0  0  0
 71 72  2  0  0  0
 71 74  1  0  0  0
 71144  1  0  0  0
 72 76  1  0  0  0
 72145  1  0  0  0
 73 75  1  0  0  0
 73 76  2  0  0  0
 73146  1  0  0  0
 74 75  2  0  0  0
 74 77  1  0  0  0
 75 78  1  0  0  0
 76 83  1  0  0  0
 77 79  1  0  0  0
 77147  1  0  0  0
 77148  1  0  0  0
 78 79  1  0  0  0
 78149  1  0  0  0
 78150  1  0  0  0
 79 84  1  0  0  0
 79151  1  0  0  0
 80152  1  0  0  0
 80153  1  0  0  0
 80154  1  0  0  0
 80 82  1  0  0  0
 81 82  1  0  0  0
 81155  1  0  0  0
 81156  1  0  0  0
 82 84  1  0  0  0
 82157  1  0  0  0
 83158  1  0  0  0
 84159  1  0  0  0
 84160  1  0  0  0
M  CHG  1  84   1
M  ISO  4   1 100  68 101  81 101  83 100
M  END
> <chiral flag>
0

> <version>
0

> <s_m_source_file>
/data/baiqing/PycharmProjects/Reinvent-master-3.2/result/LINK_invent/BTK/process_docking_weight1_custom_sum_contain_oxygen_bond_distance_aromatic_linkinvent_7_9_3/rearranged_h_0136.sdf

> <i_m_source_file_index>
4

> <r_mmod_Potential_Energy-OPLS-2005>
-45.7428245544434

> <r_mmod_Stretch_Energy-OPLS-2005>
59.2102699279785

> <r_mmod_Bend_Energy-OPLS-2005>
179.245986938477

> <r_mmod_Torsional_Energy-OPLS-2005>
248.876556396484

> <r_mmod_Improper_Torsional_Energy-OPLS-2005>
4.63443565368652

> <r_mmod_Van_der_Waal_Energy-OPLS-2005>
145.349624633789

> <r_mmod_Electrostatic_Energy-OPLS-2005>
-252.227905273438

> <r_mmod_Solvation_Energy-OPLS-2005>
-457.485717773438

> <b_mmod_Minimization_Converged-OPLS-2005>
0

> <r_mmod_RMS_Derivative-OPLS-2005>
2.14038038253784

$$$$
4
                    3D
 Structure written by MMmdl.
164173  0  0  1  0            999 V2000
  -30.6193  -14.6464   20.5080 C   0  0  0  0  0  0
  -30.4393  -12.3962   19.4533 C   0  0  0  0  0  0
  -29.5093  -12.5139   18.2247 C   0  0  0  0  0  0
  -28.0314  -12.3494   18.6332 C   0  0  0  0  0  0
  -27.6535  -13.2161   19.8639 C   0  0  2  0  0  0
  -28.6974  -13.0685   20.9942 C   0  0  0  0  0  0
  -25.2567  -13.8166   20.5676 C   0  0  0  0  0  0
  -24.1837  -13.0434   20.9191 C   0  0  0  0  0  0
  -24.6403  -11.6901   20.8733 C   0  0  0  0  0  0
  -23.9067  -10.4289   21.0402 C   0  0  0  0  0  0
  -24.3619   -9.4210   21.9183 C   0  0  0  0  0  0
  -23.6296   -8.2245   22.0754 C   0  0  0  0  0  0
  -22.4279   -8.0281   21.3543 C   0  0  0  0  0  0
  -21.9916   -9.0250   20.4640 C   0  0  0  0  0  0
  -22.7240  -10.2129   20.3050 C   0  0  0  0  0  0
  -21.6856   -6.0736   22.5279 C   0  0  0  0  0  0
  -21.4013   -6.5638   23.8211 C   0  0  0  0  0  0
  -21.3657   -5.6791   24.9171 C   0  0  0  0  0  0
  -21.6042   -4.3054   24.7225 C   0  0  0  0  0  0
  -21.8818   -3.8148   23.4346 C   0  0  0  0  0  0
  -21.9193   -4.6964   22.3402 C   0  0  0  0  0  0
  -22.7857  -13.5230   21.1853 C   0  0  0  0  0  0
  -22.1662   -4.2151   21.0979 F   0  0  0  0  0  0
  -21.5628   -3.4536   25.7737 F   0  0  0  0  0  0
  -30.0139  -13.4161   20.4342 N   0  0  0  0  0  0
  -26.2991  -12.9343   20.3308 N   0  0  0  0  0  0
  -25.9332  -11.6497   20.5746 N   0  0  0  0  0  0
  -22.0490  -12.8214   22.0391 N   0  0  0  0  0  0
  -25.4271  -15.1889   20.4074 N   0  0  0  0  0  0
  -31.7857  -14.7977   20.1267 O   0  0  0  0  0  0
  -21.6636   -6.8880   21.4243 O   0  0  0  0  0  0
  -22.3547  -14.5543   20.6706 O   0  0  0  0  0  0
  -24.6272  -31.8601   23.2041 C   0  0  0  0  0  0
  -25.9118  -32.4788   23.8361 C   0  0  1  0  0  0
  -27.2136  -27.3081   20.1069 C   0  0  0  0  0  0
  -25.5934  -33.8588   24.2282 N   0  0  0  0  0  0
  -23.4195  -30.4868   21.5480 C   0  0  2  0  0  0
  -24.8626  -28.9481   20.1087 C   0  0  0  0  0  0
  -22.7487  -29.4617   22.4940 C   0  0  0  0  0  0
  -18.0288  -28.1387   22.8481 C   0  0  0  0  0  0
  -24.1474  -36.7270   23.2636 C   0  0  0  0  0  0
  -25.9642  -30.7864   21.3790 C   0  0  0  0  0  0
  -26.0341  -29.4154   20.7170 C   0  0  0  0  0  0
  -27.2116  -28.6068   20.7082 C   0  0  0  0  0  0
  -26.0152  -26.9057   19.4682 C   0  0  0  0  0  0
  -24.8561  -27.6992   19.4763 C   0  0  0  0  0  0
  -23.6341  -29.8317   20.1605 C   0  0  0  0  0  0
  -25.4101  -36.3074   24.0332 C   0  0  1  0  0  0
  -20.5894  -28.3682   23.1286 C   0  0  2  0  0  0
  -20.6778  -26.9411   22.5405 C   0  0  0  0  0  0
  -19.5750  -26.6392   21.5208 C   0  0  0  0  0  0
  -18.1924  -26.7933   22.1614 C   0  0  0  0  0  0
  -19.1544  -28.8854   23.2878 C   0  0  0  0  0  0
  -18.9477  -30.1455   23.8895 C   0  0  0  0  0  0
  -17.6480  -30.6593   24.0565 C   0  0  0  0  0  0
  -25.9054  -34.9454   23.5102 C   0  0  0  0  0  0
  -16.5367  -29.9092   23.6343 C   0  0  0  0  0  0
  -16.7276  -28.6515   23.0352 C   0  0  0  0  0  0
  -26.4501  -31.6607   25.0734 C   0  0  0  0  0  0
  -25.3738  -31.3749   26.1465 C   0  0  0  0  0  0
  -27.0353  -30.3037   24.6192 C   0  0  0  0  0  0
  -27.6052  -32.4360   25.7502 C   0  0  0  0  0  0
  -27.5582  -37.1767   24.8458 C   0  0  0  0  0  0
  -21.4204  -29.3037   22.3690 N   0  0  0  0  0  0
  -26.4261  -37.3792   23.9451 N   0  0  0  0  0  0
  -24.6891  -31.0613   22.0997 N   0  0  0  0  0  0
  -23.4218  -28.8141   23.2998 O   0  0  0  0  0  0
  -28.3265  -26.4424   20.1622 O   0  0  0  0  0  0
  -26.5622  -34.8928   22.4668 O   0  0  0  0  0  0
  -23.5434  -32.1402   23.7367 O   0  0  0  0  0  0
  -28.7072  -17.8757   21.0782 C   0  0  0  0  0  0
  -28.6702  -19.3028   21.0600 C   0  0  0  0  0  0
  -29.8384  -20.0428   20.7335 C   0  0  0  0  0  0
  -30.9761  -19.2314   20.4296 C   0  0  0  0  0  0
  -29.8847  -17.1418   20.7767 C   0  0  0  0  0  0
  -29.1007  -22.3979   18.7554 C   0  0  0  0  0  0
  -29.1890  -24.0071   20.5409 C   0  0  0  0  0  0
  -28.1191  -23.3314   18.0188 C   0  0  0  0  0  0
  -28.1064  -25.0168   19.9307 C   0  0  2  0  0  0
  -27.3821  -20.0161   21.4307 C   0  0  0  0  0  0
  -32.3171  -19.8545   20.0872 C   0  0  0  0  0  0
  -29.9422  -21.6190   20.8765 C   0  0  0  0  0  0
  -30.9881  -17.8609   20.4425 N   0  0  0  0  0  0
  -28.9751  -22.5483   20.2091 N   0  0  0  0  0  0
  -29.7970  -15.6850   20.8682 N   0  0  0  0  0  0
  -28.3675  -24.7422   18.3809 N   0  3  0  0  0  0
  -31.4811  -12.5223   19.1529 H   0  0  0  0  0  0
  -30.3754  -11.3987   19.8909 H   0  0  0  0  0  0
  -29.7755  -11.7667   17.4758 H   0  0  0  0  0  0
  -29.6505  -13.4858   17.7488 H   0  0  0  0  0  0
  -27.8682  -11.2944   18.8581 H   0  0  0  0  0  0
  -27.3787  -12.5840   17.7918 H   0  0  0  0  0  0
  -27.6710  -14.2518   19.5253 H   0  0  0  0  0  0
  -28.7089  -12.0449   21.3724 H   0  0  0  0  0  0
  -28.4400  -13.6947   21.8499 H   0  0  0  0  0  0
  -25.2763   -9.5680   22.4759 H   0  0  0  0  0  0
  -23.9996   -7.4637   22.7479 H   0  0  0  0  0  0
  -21.0849   -8.8767   19.8946 H   0  0  0  0  0  0
  -22.3706  -10.9666   19.6155 H   0  0  0  0  0  0
  -21.2005   -7.6146   23.9719 H   0  0  0  0  0  0
  -21.1476   -6.0517   25.9074 H   0  0  0  0  0  0
  -22.0599   -2.7611   23.2845 H   0  0  0  0  0  0
  -22.4098  -11.9867   22.4768 H   0  0  0  0  0  0
  -21.1107  -13.1236   22.2589 H   0  0  0  0  0  0
  -24.6518  -15.8355   20.5035 H   0  0  0  0  0  0
  -26.2564  -15.6234   20.0245 H   0  0  0  0  0  0
  -26.7175  -32.5446   23.1097 H   0  0  0  0  0  0
  -25.0095  -33.9748   25.0436 H   0  0  0  0  0  0
  -22.7125  -31.3076   21.4100 H   0  0  0  0  0  0
  -23.3773  -35.9561   23.3245 H   0  0  0  0  0  0
  -24.3580  -36.8944   22.2062 H   0  0  0  0  0  0
  -23.7178  -37.6433   23.6692 H   0  0  0  0  0  0
  -26.1037  -31.5533   20.6158 H   0  0  0  0  0  0
  -26.8407  -30.8276   22.0133 H   0  0  0  0  0  0
  -28.1075  -28.9612   21.1981 H   0  0  0  0  0  0
  -25.9221  -25.9605   18.9577 H   0  0  0  0  0  0
  -23.9591  -27.3387   18.9908 H   0  0  0  0  0  0
  -23.7598  -30.6133   19.4110 H   0  0  0  0  0  0
  -22.7521  -29.2684   19.8495 H   0  0  0  0  0  0
  -25.1273  -36.1897   25.0820 H   0  0  0  0  0  0
  -20.9978  -28.3237   24.1409 H   0  0  0  0  0  0
  -20.5681  -26.2295   23.3600 H   0  0  0  0  0  0
  -21.6646  -26.7427   22.1199 H   0  0  0  0  0  0
  -19.6912  -25.6304   21.1234 H   0  0  0  0  0  0
  -19.6691  -27.3211   20.6742 H   0  0  0  0  0  0
  -17.4201  -26.6698   21.4003 H   0  0  0  0  0  0
  -18.0301  -26.0067   22.9000 H   0  0  0  0  0  0
  -19.7955  -30.7269   24.2265 H   0  0  0  0  0  0
  -17.5041  -31.6279   24.5155 H   0  0  0  0  0  0
  -15.5372  -30.2999   23.7682 H   0  0  0  0  0  0
  -15.8673  -28.0848   22.7059 H   0  0  0  0  0  0
  -24.5922  -30.7079   25.7812 H   0  0  0  0  0  0
  -24.8915  -32.2913   26.4875 H   0  0  0  0  0  0
  -25.8067  -30.8957   27.0255 H   0  0  0  0  0  0
  -26.2925  -29.6790   24.1216 H   0  0  0  0  0  0
  -27.4066  -29.7292   25.4691 H   0  0  0  0  0  0
  -27.8783  -30.4350   23.9406 H   0  0  0  0  0  0
  -27.2654  -33.3676   26.2045 H   0  0  0  0  0  0
  -28.3865  -32.6908   25.0327 H   0  0  0  0  0  0
  -28.0711  -31.8515   26.5449 H   0  0  0  0  0  0
  -28.2528  -38.0135   24.7622 H   0  0  0  0  0  0
  -28.1145  -36.2680   24.6115 H   0  0  0  0  0  0
  -27.2331  -37.1204   25.8862 H   0  0  0  0  0  0
  -20.9384  -29.8799   21.6935 H   0  0  0  0  0  0
  -26.0125  -38.2833   24.1566 H   0  0  0  0  0  0
  -27.8079  -17.3388   21.3488 H   0  0  0  0  0  0
  -30.1260  -22.5958   18.4368 H   0  0  0  0  0  0
  -28.8838  -21.3648   18.4768 H   0  0  0  0  0  0
  -29.1511  -24.1242   21.6256 H   0  0  0  0  0  0
  -30.1866  -24.3292   20.2362 H   0  0  0  0  0  0
  -27.0883  -23.0652   18.2561 H   0  0  0  0  0  0
  -28.2323  -23.2117   16.9412 H   0  0  0  0  0  0
  -27.1093  -24.6971   20.2365 H   0  0  0  0  0  0
  -26.6171  -19.3170   21.7692 H   0  0  0  0  0  0
  -26.9855  -20.5529   20.5686 H   0  0  0  0  0  0
  -27.5556  -20.7362   22.2307 H   0  0  0  0  0  0
  -32.2378  -20.4483   19.1767 H   0  0  0  0  0  0
  -33.0850  -19.0975   19.9248 H   0  0  0  0  0  0
  -32.6635  -20.4986   20.8954 H   0  0  0  0  0  0
  -30.9445  -21.9401   20.5930 H   0  0  0  0  0  0
  -29.8875  -21.8191   21.9480 H   0  0  0  0  0  0
  -28.8968  -15.3554   21.1738 H   0  0  0  0  0  0
  -27.7723  -25.3195   17.8128 H   0  0  0  0  0  0
  -29.3173  -24.9720   18.1442 H   0  0  0  0  0  0
  1 25  1  0  0  0
  1 30  2  0  0  0
  1 85  1  0  0  0
  2  3  1  0  0  0
  2 25  1  0  0  0
  2 87  1  0  0  0
  2 88  1  0  0  0
  3  4  1  0  0  0
  3 89  1  0  0  0
  3 90  1  0  0  0
  4  5  1  0  0  0
  4 91  1  0  0  0
  4 92  1  0  0  0
  5  6  1  0  0  0
  5 26  1  0  0  0
  5 93  1  0  0  0
  6 25  1  0  0  0
  6 94  1  0  0  0
  6 95  1  0  0  0
  7  8  2  0  0  0
  7 26  1  0  0  0
  7 29  1  0  0  0
  8  9  1  0  0  0
  8 22  1  0  0  0
  9 10  1  0  0  0
  9 27  2  0  0  0
 10 11  2  0  0  0
 10 15  1  0  0  0
 11 12  1  0  0  0
 11 96  1  0  0  0
 12 13  2  0  0  0
 12 97  1  0  0  0
 13 14  1  0  0  0
 13 31  1  0  0  0
 14 15  2  0  0  0
 14 98  1  0  0  0
 15 99  1  0  0  0
 16 17  2  0  0  0
 16 21  1  0  0  0
 16 31  1  0  0  0
 17 18  1  0  0  0
 17100  1  0  0  0
 18 19  2  0  0  0
 18101  1  0  0  0
 19 20  1  0  0  0
 19 24  1  0  0  0
 20 21  2  0  0  0
 20102  1  0  0  0
 21 23  1  0  0  0
 22 28  1  0  0  0
 22 32  2  0  0  0
 26 27  1  0  0  0
 28103  1  0  0  0
 28104  1  0  0  0
 29105  1  0  0  0
 29106  1  0  0  0
 33 34  1  0  0  0
 33 66  1  0  0  0
 33 70  2  0  0  0
 34 36  1  0  0  0
 34 59  1  0  0  0
 34107  1  0  0  0
 35 44  2  0  0  0
 35 45  1  0  0  0
 35 68  1  0  0  0
 36 56  1  0  0  0
 36108  1  0  0  0
 37 39  1  0  0  0
 37 47  1  0  0  0
 37 66  1  0  0  0
 37109  1  0  0  0
 38 43  2  0  0  0
 38 46  1  0  0  0
 38 47  1  0  0  0
 39 64  1  0  0  0
 39 67  2  0  0  0
 40 52  1  0  0  0
 40 53  2  0  0  0
 40 58  1  0  0  0
 41110  1  0  0  0
 41111  1  0  0  0
 41112  1  0  0  0
 41 48  1  0  0  0
 42 43  1  0  0  0
 42 66  1  0  0  0
 42113  1  0  0  0
 42114  1  0  0  0
 43 44  1  0  0  0
 44115  1  0  0  0
 45 46  2  0  0  0
 45116  1  0  0  0
 46117  1  0  0  0
 47118  1  0  0  0
 47119  1  0  0  0
 48 56  1  0  0  0
 48 65  1  0  0  0
 48120  1  0  0  0
 49 50  1  0  0  0
 49 53  1  0  0  0
 49 64  1  0  0  0
 49121  1  0  0  0
 50 51  1  0  0  0
 50122  1  0  0  0
 50123  1  0  0  0
 51 52  1  0  0  0
 51124  1  0  0  0
 51125  1  0  0  0
 52126  1  0  0  0
 52127  1  0  0  0
 53 54  1  0  0  0
 54 55  2  0  0  0
 54128  1  0  0  0
 55 57  1  0  0  0
 55129  1  0  0  0
 56 69  2  0  0  0
 57 58  2  0  0  0
 57130  1  0  0  0
 58131  1  0  0  0
 59 60  1  0  0  0
 59 61  1  0  0  0
 59 62  1  0  0  0
 60132  1  0  0  0
 60133  1  0  0  0
 60134  1  0  0  0
 61135  1  0  0  0
 61136  1  0  0  0
 61137  1  0  0  0
 62138  1  0  0  0
 62139  1  0  0  0
 62140  1  0  0  0
 63 65  1  0  0  0
 63141  1  0  0  0
 63142  1  0  0  0
 63143  1  0  0  0
 64144  1  0  0  0
 65145  1  0  0  0
 68 79  1  0  0  0
 71 72  2  0  0  0
 71 75  1  0  0  0
 71146  1  0  0  0
 72 73  1  0  0  0
 72 80  1  0  0  0
 73 74  2  0  0  0
 73 82  1  0  0  0
 74 81  1  0  0  0
 74 83  1  0  0  0
 75 83  2  0  0  0
 75 85  1  0  0  0
 76 78  1  0  0  0
 76 84  1  0  0  0
 76147  1  0  0  0
 76148  1  0  0  0
 77 79  1  0  0  0
 77 84  1  0  0  0
 77149  1  0  0  0
 77150  1  0  0  0
 78 86  1  0  0  0
 78151  1  0  0  0
 78152  1  0  0  0
 79 86  1  0  0  0
 79153  1  0  0  0
 80154  1  0  0  0
 80155  1  0  0  0
 80156  1  0  0  0
 81157  1  0  0  0
 81158  1  0  0  0
 81159  1  0  0  0
 82 84  1  0  0  0
 82160  1  0  0  0
 82161  1  0  0  0
 85162  1  0  0  0
 86163  1  0  0  0
 86164  1  0  0  0
M  CHG  1  86   1
M  ISO  4   1 100  68 101  79 101  85 100
M  END
> <chiral flag>
0

> <version>
0

> <s_m_source_file>
/data/baiqing/PycharmProjects/Reinvent-master-3.2/result/LINK_invent/BTK/process_docking_weight1_custom_sum_contain_oxygen_bond_distance_aromatic_linkinvent_7_9_3/rearranged_h_0136.sdf

> <i_m_source_file_index>
5

> <r_mmod_Potential_Energy-OPLS-2005>
-296.042938232422

> <r_mmod_Stretch_Energy-OPLS-2005>
89.3108215332031

> <r_mmod_Bend_Energy-OPLS-2005>
144.27294921875

> <r_mmod_Torsional_Energy-OPLS-2005>
200.788772583008

> <r_mmod_Improper_Torsional_Energy-OPLS-2005>
4.8220009803772

> <r_mmod_Van_der_Waal_Energy-OPLS-2005>
155.487121582031

> <r_mmod_Electrostatic_Energy-OPLS-2005>
-438.112518310547

> <r_mmod_Solvation_Energy-OPLS-2005>
-504.741729736328

> <b_mmod_Minimization_Converged-OPLS-2005>
0

> <r_mmod_RMS_Derivative-OPLS-2005>
1.35382926464081

$$$$
5
                    3D
 Structure written by MMmdl.
158166  0  0  1  0            999 V2000
  -30.5815  -14.7765   20.4800 C   0  0  0  0  0  0
  -30.4283  -12.4658   19.5143 C   0  0  0  0  0  0
  -29.5215  -12.4857   18.2668 C   0  0  0  0  0  0
  -28.0458  -12.3022   18.6727 C   0  0  0  0  0  0
  -27.6350  -13.2242   19.8508 C   0  0  2  0  0  0
  -28.6645  -13.1773   20.9973 C   0  0  0  0  0  0
  -25.2476  -13.8186   20.5672 C   0  0  0  0  0  0
  -24.1770  -13.0456   20.9199 C   0  0  0  0  0  0
  -24.6365  -11.6912   20.8761 C   0  0  0  0  0  0
  -23.9065  -10.4286   21.0413 C   0  0  0  0  0  0
  -24.3611   -9.4199   21.9200 C   0  0  0  0  0  0
  -23.6291   -8.2234   22.0771 C   0  0  0  0  0  0
  -22.4268   -8.0270   21.3546 C   0  0  0  0  0  0
  -21.9910   -9.0253   20.4664 C   0  0  0  0  0  0
  -22.7234  -10.2145   20.3077 C   0  0  0  0  0  0
  -21.6859   -6.0747   22.5293 C   0  0  0  0  0  0
  -21.4011   -6.5655   23.8224 C   0  0  0  0  0  0
  -21.3649   -5.6801   24.9202 C   0  0  0  0  0  0
  -21.6055   -4.3068   24.7259 C   0  0  0  0  0  0
  -21.8806   -3.8150   23.4372 C   0  0  0  0  0  0
  -21.9202   -4.6963   22.3438 C   0  0  0  0  0  0
  -22.7810  -13.5234   21.1878 C   0  0  0  0  0  0
  -22.1656   -4.2167   21.1005 F   0  0  0  0  0  0
  -21.5632   -3.4538   25.7754 F   0  0  0  0  0  0
  -29.9638  -13.5430   20.4232 N   0  0  0  0  0  0
  -26.2868  -12.9379   20.3266 N   0  0  0  0  0  0
  -25.9263  -11.6530   20.5703 N   0  0  0  0  0  0
  -22.0473  -12.8237   22.0444 N   0  0  0  0  0  0
  -25.4205  -15.1928   20.4088 N   0  0  0  0  0  0
  -31.7699  -14.8644   20.1609 O   0  0  0  0  0  0
  -21.6639   -6.8861   21.4232 O   0  0  0  0  0  0
  -22.3509  -14.5557   20.6736 O   0  0  0  0  0  0
  -24.6385  -31.8537   23.1859 C   0  0  0  0  0  0
  -25.9186  -32.4740   23.8278 C   0  0  1  0  0  0
  -27.2246  -27.2329   20.1534 C   0  0  0  0  0  0
  -25.5986  -33.8538   24.2248 N   0  0  0  0  0  0
  -23.4345  -30.4697   21.5317 C   0  0  2  0  0  0
  -24.8780  -28.8945   20.1141 C   0  0  0  0  0  0
  -22.7531  -29.4615   22.4916 C   0  0  0  0  0  0
  -18.0316  -28.1356   22.8498 C   0  0  0  0  0  0
  -24.1486  -36.7238   23.2627 C   0  0  0  0  0  0
  -25.9749  -30.7594   21.3549 C   0  0  0  0  0  0
  -26.0482  -29.3695   20.7194 C   0  0  0  0  0  0
  -27.2266  -28.5550   20.7185 C   0  0  0  0  0  0
  -26.0299  -26.8162   19.5283 C   0  0  0  0  0  0
  -24.8744  -27.6262   19.5043 C   0  0  0  0  0  0
  -23.6498  -29.7867   20.1527 C   0  0  0  0  0  0
  -25.4121  -36.3080   24.0340 C   0  0  1  0  0  0
  -20.5920  -28.3675   23.1253 C   0  0  2  0  0  0
  -20.6786  -26.9399   22.5392 C   0  0  0  0  0  0
  -19.5741  -26.6391   21.5203 C   0  0  0  0  0  0
  -18.1935  -26.7894   22.1635 C   0  0  0  0  0  0
  -19.1574  -28.8840   23.2868 C   0  0  0  0  0  0
  -18.9485  -30.1446   23.8882 C   0  0  0  0  0  0
  -17.6479  -30.6561   24.0548 C   0  0  0  0  0  0
  -25.9070  -34.9447   23.5100 C   0  0  0  0  0  0
  -16.5378  -29.9056   23.6306 C   0  0  0  0  0  0
  -16.7305  -28.6467   23.0331 C   0  0  0  0  0  0
  -26.4531  -31.6539   25.0671 C   0  0  0  0  0  0
  -25.3754  -31.3634   26.1384 C   0  0  0  0  0  0
  -27.0361  -30.2985   24.6088 C   0  0  0  0  0  0
  -27.6128  -32.4220   25.7443 C   0  0  0  0  0  0
  -27.5586  -37.1789   24.8499 C   0  0  0  0  0  0
  -21.4229  -29.3041   22.3640 N   0  0  0  0  0  0
  -26.4304  -37.3796   23.9437 N   0  0  0  0  0  0
  -24.7030  -31.0479   22.0822 N   0  0  0  0  0  0
  -23.4213  -28.8203   23.3067 O   0  0  0  0  0  0
  -28.3365  -26.3567   20.1479 O   0  0  0  0  0  0
  -26.5613  -34.8935   22.4659 O   0  0  0  0  0  0
  -23.5518  -32.1354   23.7174 O   0  0  0  0  0  0
  -27.0798  -18.8445   17.8765 C   0  0  0  0  0  0
  -26.8250  -20.1823   17.5858 C   0  0  0  0  0  0
  -27.9119  -18.5300   18.9541 C   0  0  0  0  0  0
  -27.3798  -21.1898   18.3879 C   0  0  0  0  0  0
  -28.5282  -19.5065   19.7823 C   0  0  0  0  0  0
  -28.2278  -20.9527   19.5129 C   0  0  0  0  0  0
  -29.8235  -23.8751   18.8599 C   0  0  0  0  0  0
  -29.4069  -18.7588   20.8799 C   0  0  0  0  0  0
  -30.2604  -17.3976   20.4843 C   0  0  0  0  0  0
  -28.2362  -24.9208   20.6312 C   0  0  0  0  0  0
  -28.5412  -23.6249   19.6726 C   0  0  2  0  0  0
  -28.6050  -22.1740   20.2302 N   0  0  0  0  0  0
  -29.8187  -15.9306   20.6902 N   0  0  0  0  0  0
  -31.4738  -12.5795   19.2285 H   0  0  0  0  0  0
  -30.3666  -11.5006   20.0170 H   0  0  0  0  0  0
  -29.8203  -11.6957   17.5783 H   0  0  0  0  0  0
  -29.6547  -13.4270   17.7360 H   0  0  0  0  0  0
  -27.9147  -11.2579   18.9621 H   0  0  0  0  0  0
  -27.3876  -12.4614   17.8168 H   0  0  0  0  0  0
  -27.6294  -14.2380   19.4487 H   0  0  0  0  0  0
  -28.6996  -12.1869   21.4512 H   0  0  0  0  0  0
  -28.3826  -13.8633   21.7954 H   0  0  0  0  0  0
  -25.2773   -9.5717   22.4768 H   0  0  0  0  0  0
  -24.0040   -7.4642   22.7491 H   0  0  0  0  0  0
  -21.0879   -8.8771   19.8962 H   0  0  0  0  0  0
  -22.3689  -10.9690   19.6196 H   0  0  0  0  0  0
  -21.1933   -7.6151   23.9751 H   0  0  0  0  0  0
  -21.1503   -6.0527   25.9133 H   0  0  0  0  0  0
  -22.0577   -2.7611   23.2875 H   0  0  0  0  0  0
  -22.4048  -11.9895   22.4831 H   0  0  0  0  0  0
  -21.1123  -13.1325   22.2683 H   0  0  0  0  0  0
  -24.6483  -15.8425   20.5099 H   0  0  0  0  0  0
  -26.2642  -15.6361   20.0685 H   0  0  0  0  0  0
  -26.7279  -32.5403   23.1042 H   0  0  0  0  0  0
  -25.0195  -33.9660   25.0443 H   0  0  0  0  0  0
  -22.7339  -31.2933   21.3774 H   0  0  0  0  0  0
  -23.3805  -35.9514   23.3296 H   0  0  0  0  0  0
  -24.3606  -36.8825   22.2045 H   0  0  0  0  0  0
  -23.7138  -37.6430   23.6576 H   0  0  0  0  0  0
  -26.0995  -31.5004   20.5622 H   0  0  0  0  0  0
  -26.8575  -30.8353   21.9779 H   0  0  0  0  0  0
  -28.1273  -28.9254   21.1897 H   0  0  0  0  0  0
  -25.9898  -25.8402   19.0660 H   0  0  0  0  0  0
  -23.9784  -27.2574   19.0229 H   0  0  0  0  0  0
  -23.7728  -30.5488   19.3829 H   0  0  0  0  0  0
  -22.7644  -29.2199   19.8587 H   0  0  0  0  0  0
  -25.1289  -36.1955   25.0834 H   0  0  0  0  0  0
  -21.0050  -28.3259   24.1355 H   0  0  0  0  0  0
  -20.5650  -26.2326   23.3617 H   0  0  0  0  0  0
  -21.6645  -26.7375   22.1215 H   0  0  0  0  0  0
  -19.6885  -25.6322   21.1182 H   0  0  0  0  0  0
  -19.6619  -27.3244   20.6766 H   0  0  0  0  0  0
  -17.4211  -26.6669   21.4038 H   0  0  0  0  0  0
  -18.0306  -26.0012   22.9010 H   0  0  0  0  0  0
  -19.7975  -30.7256   24.2229 H   0  0  0  0  0  0
  -17.5040  -31.6222   24.5173 H   0  0  0  0  0  0
  -15.5372  -30.2938   23.7615 H   0  0  0  0  0  0
  -15.8717  -28.0773   22.7018 H   0  0  0  0  0  0
  -24.6051  -30.6805   25.7768 H   0  0  0  0  0  0
  -24.8752  -32.2726   26.4711 H   0  0  0  0  0  0
  -25.8147  -30.8976   27.0214 H   0  0  0  0  0  0
  -26.2900  -29.6731   24.1169 H   0  0  0  0  0  0
  -27.4190  -29.7222   25.4528 H   0  0  0  0  0  0
  -27.8711  -30.4347   23.9211 H   0  0  0  0  0  0
  -27.2842  -33.3592   26.1921 H   0  0  0  0  0  0
  -28.3995  -32.6614   25.0280 H   0  0  0  0  0  0
  -28.0688  -31.8343   26.5411 H   0  0  0  0  0  0
  -28.2661  -38.0042   24.7589 H   0  0  0  0  0  0
  -28.1028  -36.2605   24.6280 H   0  0  0  0  0  0
  -27.2319  -37.1397   25.8907 H   0  0  0  0  0  0
  -20.9441  -29.8775   21.6831 H   0  0  0  0  0  0
  -26.0198  -38.2895   24.1413 H   0  0  0  0  0  0
  -26.6464  -18.0614   17.2695 H   0  0  0  0  0  0
  -26.1868  -20.4399   16.7524 H   0  0  0  0  0  0
  -28.0710  -17.4757   19.1269 H   0  0  0  0  0  0
  -27.0742  -22.1711   18.0769 H   0  0  0  0  0  0
  -29.8436  -24.8857   18.4484 H   0  0  0  0  0  0
  -29.9068  -23.1940   18.0080 H   0  0  0  0  0  0
  -30.7175  -23.7462   19.4728 H   0  0  0  0  0  0
  -30.1183  -19.4943   21.2606 H   0  0  0  0  0  0
  -28.7690  -18.5501   21.7422 H   0  0  0  0  0  0
  -31.1611  -17.4396   21.0935 H   0  0  0  0  0  0
  -30.6221  -17.5094   19.4618 H   0  0  0  0  0  0
  -28.9449  -24.8770   21.4599 H   0  0  0  0  0  0
  -27.2619  -24.7918   21.1063 H   0  0  0  0  0  0
  -27.7222  -23.7209   18.9675 H   0  0  0  0  0  0
  -29.1783  -22.0457   21.0612 H   0  0  0  0  0  0
  -28.8608  -15.7765   20.9618 H   0  0  0  0  0  0
  1 25  1  0  0  0
  1 30  2  0  0  0
  1 83  1  0  0  0
  2  3  1  0  0  0
  2 25  1  0  0  0
  2 84  1  0  0  0
  2 85  1  0  0  0
  3  4  1  0  0  0
  3 86  1  0  0  0
  3 87  1  0  0  0
  4  5  1  0  0  0
  4 88  1  0  0  0
  4 89  1  0  0  0
  5  6  1  0  0  0
  5 26  1  0  0  0
  5 90  1  0  0  0
  6 25  1  0  0  0
  6 91  1  0  0  0
  6 92  1  0  0  0
  7  8  2  0  0  0
  7 26  1  0  0  0
  7 29  1  0  0  0
  8  9  1  0  0  0
  8 22  1  0  0  0
  9 10  1  0  0  0
  9 27  2  0  0  0
 10 11  2  0  0  0
 10 15  1  0  0  0
 11 12  1  0  0  0
 11 93  1  0  0  0
 12 13  2  0  0  0
 12 94  1  0  0  0
 13 14  1  0  0  0
 13 31  1  0  0  0
 14 15  2  0  0  0
 14 95  1  0  0  0
 15 96  1  0  0  0
 16 17  2  0  0  0
 16 21  1  0  0  0
 16 31  1  0  0  0
 17 18  1  0  0  0
 17 97  1  0  0  0
 18 19  2  0  0  0
 18 98  1  0  0  0
 19 20  1  0  0  0
 19 24  1  0  0  0
 20 21  2  0  0  0
 20 99  1  0  0  0
 21 23  1  0  0  0
 22 28  1  0  0  0
 22 32  2  0  0  0
 26 27  1  0  0  0
 28100  1  0  0  0
 28101  1  0  0  0
 29102  1  0  0  0
 29103  1  0  0  0
 33 34  1  0  0  0
 33 66  1  0  0  0
 33 70  2  0  0  0
 34 36  1  0  0  0
 34 59  1  0  0  0
 34104  1  0  0  0
 35 44  2  0  0  0
 35 45  1  0  0  0
 35 68  1  0  0  0
 36 56  1  0  0  0
 36105  1  0  0  0
 37 39  1  0  0  0
 37 47  1  0  0  0
 37 66  1  0  0  0
 37106  1  0  0  0
 38 43  2  0  0  0
 38 46  1  0  0  0
 38 47  1  0  0  0
 39 64  1  0  0  0
 39 67  2  0  0  0
 40 52  1  0  0  0
 40 53  2  0  0  0
 40 58  1  0  0  0
 41107  1  0  0  0
 41108  1  0  0  0
 41109  1  0  0  0
 41 48  1  0  0  0
 42 43  1  0  0  0
 42 66  1  0  0  0
 42110  1  0  0  0
 42111  1  0  0  0
 43 44  1  0  0  0
 44112  1  0  0  0
 45 46  2  0  0  0
 45113  1  0  0  0
 46114  1  0  0  0
 47115  1  0  0  0
 47116  1  0  0  0
 48 56  1  0  0  0
 48 65  1  0  0  0
 48117  1  0  0  0
 49 50  1  0  0  0
 49 53  1  0  0  0
 49 64  1  0  0  0
 49118  1  0  0  0
 50 51  1  0  0  0
 50119  1  0  0  0
 50120  1  0  0  0
 51 52  1  0  0  0
 51121  1  0  0  0
 51122  1  0  0  0
 52123  1  0  0  0
 52124  1  0  0  0
 53 54  1  0  0  0
 54 55  2  0  0  0
 54125  1  0  0  0
 55 57  1  0  0  0
 55126  1  0  0  0
 56 69  2  0  0  0
 57 58  2  0  0  0
 57127  1  0  0  0
 58128  1  0  0  0
 59 60  1  0  0  0
 59 61  1  0  0  0
 59 62  1  0  0  0
 60129  1  0  0  0
 60130  1  0  0  0
 60131  1  0  0  0
 61132  1  0  0  0
 61133  1  0  0  0
 61134  1  0  0  0
 62135  1  0  0  0
 62136  1  0  0  0
 62137  1  0  0  0
 63 65  1  0  0  0
 63138  1  0  0  0
 63139  1  0  0  0
 63140  1  0  0  0
 64141  1  0  0  0
 65142  1  0  0  0
 68 80  1  0  0  0
 71 72  2  0  0  0
 71 73  1  0  0  0
 71143  1  0  0  0
 72 74  1  0  0  0
 72144  1  0  0  0
 73 75  2  0  0  0
 73145  1  0  0  0
 74 76  2  0  0  0
 74146  1  0  0  0
 75 76  1  0  0  0
 75 78  1  0  0  0
 76 82  1  0  0  0
 77147  1  0  0  0
 77148  1  0  0  0
 77149  1  0  0  0
 77 81  1  0  0  0
 78 79  1  0  0  0
 78150  1  0  0  0
 78151  1  0  0  0
 79 83  1  0  0  0
 79152  1  0  0  0
 79153  1  0  0  0
 80 81  1  0  0  0
 80154  1  0  0  0
 80155  1  0  0  0
 81 82  1  0  0  0
 81156  1  0  0  0
 82157  1  0  0  0
 83158  1  0  0  0
M  ISO  4   1 100  68 101  80 101  83 100
M  END
> <chiral flag>
0

> <version>
0

> <s_m_source_file>
/data/baiqing/PycharmProjects/Reinvent-master-3.2/result/LINK_invent/BTK/process_docking_weight1_custom_sum_contain_oxygen_bond_distance_aromatic_linkinvent_7_9_3/rearranged_h_0136.sdf

> <i_m_source_file_index>
6

> <r_mmod_Potential_Energy-OPLS-2005>
264.19970703125

> <r_mmod_Stretch_Energy-OPLS-2005>
175.819473266602

> <r_mmod_Bend_Energy-OPLS-2005>
248.802841186523

> <r_mmod_Torsional_Energy-OPLS-2005>
227.011993408203

> <r_mmod_Improper_Torsional_Energy-OPLS-2005>
5.34398221969604

> <r_mmod_Van_der_Waal_Energy-OPLS-2005>
137.378204345703

> <r_mmod_Electrostatic_Energy-OPLS-2005>
-410.725891113281

> <r_mmod_Solvation_Energy-OPLS-2005>
-218.392364501953

> <b_mmod_Minimization_Converged-OPLS-2005>
0

> <r_mmod_RMS_Derivative-OPLS-2005>
5.34344959259033

$$$$
6
                    3D
 Structure written by MMmdl.
159168  0  0  1  0            999 V2000
  -30.6085  -14.6566   20.5070 C   0  0  0  0  0  0
  -30.4417  -12.4013   19.4583 C   0  0  0  0  0  0
  -29.5112  -12.5159   18.2294 C   0  0  0  0  0  0
  -28.0339  -12.3481   18.6382 C   0  0  0  0  0  0
  -27.6546  -13.2163   19.8673 C   0  0  2  0  0  0
  -28.6981  -13.0656   20.9977 C   0  0  0  0  0  0
  -25.2569  -13.8174   20.5694 C   0  0  0  0  0  0
  -24.1835  -13.0438   20.9193 C   0  0  0  0  0  0
  -24.6398  -11.6906   20.8738 C   0  0  0  0  0  0
  -23.9071  -10.4291   21.0405 C   0  0  0  0  0  0
  -24.3624   -9.4208   21.9183 C   0  0  0  0  0  0
  -23.6296   -8.2246   22.0754 C   0  0  0  0  0  0
  -22.4276   -8.0284   21.3549 C   0  0  0  0  0  0
  -21.9916   -9.0257   20.4651 C   0  0  0  0  0  0
  -22.7244  -10.2135   20.3058 C   0  0  0  0  0  0
  -21.6849   -6.0743   22.5285 C   0  0  0  0  0  0
  -21.4013   -6.5643   23.8220 C   0  0  0  0  0  0
  -21.3661   -5.6794   24.9181 C   0  0  0  0  0  0
  -21.6043   -4.3057   24.7230 C   0  0  0  0  0  0
  -21.8817   -3.8153   23.4350 C   0  0  0  0  0  0
  -21.9192   -4.6972   22.3406 C   0  0  0  0  0  0
  -22.7855  -13.5233   21.1853 C   0  0  0  0  0  0
  -22.1656   -4.2155   21.0980 F   0  0  0  0  0  0
  -21.5635   -3.4541   25.7743 F   0  0  0  0  0  0
  -30.0148  -13.4193   20.4413 N   0  0  0  0  0  0
  -26.2994  -12.9349   20.3330 N   0  0  0  0  0  0
  -25.9326  -11.6504   20.5762 N   0  0  0  0  0  0
  -22.0488  -12.8228   22.0406 N   0  0  0  0  0  0
  -25.4283  -15.1900   20.4120 N   0  0  0  0  0  0
  -31.7627  -14.8238   20.0946 O   0  0  0  0  0  0
  -21.6636   -6.8885   21.4247 O   0  0  0  0  0  0
  -22.3540  -14.5537   20.6697 O   0  0  0  0  0  0
  -24.6268  -31.8595   23.2031 C   0  0  0  0  0  0
  -25.9116  -32.4776   23.8357 C   0  0  1  0  0  0
  -27.2202  -27.3073   20.1263 C   0  0  0  0  0  0
  -25.5932  -33.8579   24.2284 N   0  0  0  0  0  0
  -23.4204  -30.4830   21.5459 C   0  0  2  0  0  0
  -24.8672  -28.9364   20.1130 C   0  0  0  0  0  0
  -22.7477  -29.4620   22.4943 C   0  0  0  0  0  0
  -18.0284  -28.1383   22.8486 C   0  0  0  0  0  0
  -24.1491  -36.7290   23.2636 C   0  0  0  0  0  0
  -25.9627  -30.7858   21.3770 C   0  0  0  0  0  0
  -26.0357  -29.4117   20.7216 C   0  0  0  0  0  0
  -27.2158  -28.6094   20.7176 C   0  0  0  0  0  0
  -26.0350  -26.8970   19.4742 C   0  0  0  0  0  0
  -24.8695  -27.6852   19.4793 C   0  0  0  0  0  0
  -23.6355  -29.8173   20.1614 C   0  0  0  0  0  0
  -25.4117  -36.3082   24.0327 C   0  0  1  0  0  0
  -20.5884  -28.3686   23.1284 C   0  0  2  0  0  0
  -20.6771  -26.9407   22.5413 C   0  0  0  0  0  0
  -19.5749  -26.6380   21.5214 C   0  0  0  0  0  0
  -18.1927  -26.7927   22.1621 C   0  0  0  0  0  0
  -19.1537  -28.8851   23.2879 C   0  0  0  0  0  0
  -18.9460  -30.1455   23.8894 C   0  0  0  0  0  0
  -17.6458  -30.6585   24.0561 C   0  0  0  0  0  0
  -25.9055  -34.9451   23.5106 C   0  0  0  0  0  0
  -16.5350  -29.9081   23.6331 C   0  0  0  0  0  0
  -16.7270  -28.6499   23.0352 C   0  0  0  0  0  0
  -26.4499  -31.6584   25.0727 C   0  0  0  0  0  0
  -25.3733  -31.3725   26.1452 C   0  0  0  0  0  0
  -27.0335  -30.3003   24.6188 C   0  0  0  0  0  0
  -27.6061  -32.4316   25.7498 C   0  0  0  0  0  0
  -27.5586  -37.1795   24.8459 C   0  0  0  0  0  0
  -21.4190  -29.3044   22.3688 N   0  0  0  0  0  0
  -26.4292  -37.3779   23.9412 N   0  0  0  0  0  0
  -24.6888  -31.0596   22.0987 N   0  0  0  0  0  0
  -23.4204  -28.8152   23.3015 O   0  0  0  0  0  0
  -28.3372  -26.4545   20.1601 O   0  0  0  0  0  0
  -26.5624  -34.8917   22.4676 O   0  0  0  0  0  0
  -23.5430  -32.1396   23.7355 O   0  0  0  0  0  0
  -28.4313  -19.1938   21.0980 C   0  0  0  0  0  0
  -28.6747  -17.8123   21.3375 C   0  0  0  0  0  0
  -29.2646  -19.9405   20.2311 C   0  0  0  0  0  0
  -30.3612  -19.1953   19.7014 C   0  0  0  0  0  0
  -29.7531  -17.1225   20.7279 C   0  0  0  0  0  0
  -28.4703  -24.5195   21.7989 C   0  0  0  0  0  0
  -28.5638  -22.9751   21.6796 C   0  0  0  0  0  0
  -28.9632  -23.9474   19.5491 C   0  0  0  0  0  0
  -28.1334  -24.9918   20.3827 C   0  0  2  0  0  0
  -31.3439  -19.8342   18.7388 C   0  0  0  0  0  0
  -28.8161  -21.3686   19.6999 C   0  0  0  0  0  0
  -30.5902  -17.8612   19.9461 N   0  0  0  0  0  0
  -29.8061  -15.6768   20.9551 N   0  0  0  0  0  0
  -29.1929  -22.6870   20.3680 N   0  3  2  0  0  0
  -31.4829  -12.5305   19.1570 H   0  0  0  0  0  0
  -30.3808  -11.4038   19.8960 H   0  0  0  0  0  0
  -29.7791  -11.7697   17.4806 H   0  0  0  0  0  0
  -29.6511  -13.4879   17.7536 H   0  0  0  0  0  0
  -27.8733  -11.2936   18.8668 H   0  0  0  0  0  0
  -27.3804  -12.5786   17.7962 H   0  0  0  0  0  0
  -27.6735  -14.2527   19.5299 H   0  0  0  0  0  0
  -28.7121  -12.0396   21.3691 H   0  0  0  0  0  0
  -28.4356  -13.6843   21.8574 H   0  0  0  0  0  0
  -25.2770   -9.5679   22.4758 H   0  0  0  0  0  0
  -24.0005   -7.4635   22.7472 H   0  0  0  0  0  0
  -21.0849   -8.8777   19.8955 H   0  0  0  0  0  0
  -22.3706  -10.9676   19.6166 H   0  0  0  0  0  0
  -21.1997   -7.6149   23.9724 H   0  0  0  0  0  0
  -21.1486   -6.0527   25.9085 H   0  0  0  0  0  0
  -22.0595   -2.7614   23.2852 H   0  0  0  0  0  0
  -22.4094  -11.9884   22.4792 H   0  0  0  0  0  0
  -21.1108  -13.1265   22.2611 H   0  0  0  0  0  0
  -24.6589  -15.8425   20.5174 H   0  0  0  0  0  0
  -26.2742  -15.6306   20.0745 H   0  0  0  0  0  0
  -26.7181  -32.5438   23.1099 H   0  0  0  0  0  0
  -25.0094  -33.9728   25.0439 H   0  0  0  0  0  0
  -22.7146  -31.3042   21.4026 H   0  0  0  0  0  0
  -23.3761  -35.9612   23.3281 H   0  0  0  0  0  0
  -24.3586  -36.8932   22.2054 H   0  0  0  0  0  0
  -23.7231  -37.6481   23.6672 H   0  0  0  0  0  0
  -26.0964  -31.5473   20.6075 H   0  0  0  0  0  0
  -26.8432  -30.8345   22.0064 H   0  0  0  0  0  0
  -28.1125  -28.9699   21.2021 H   0  0  0  0  0  0
  -25.9868  -25.9562   18.9462 H   0  0  0  0  0  0
  -23.9779  -27.3225   18.9859 H   0  0  0  0  0  0
  -23.7555  -30.5937   19.4050 H   0  0  0  0  0  0
  -22.7553  -29.2472   19.8583 H   0  0  0  0  0  0
  -25.1295  -36.1934   25.0818 H   0  0  0  0  0  0
  -20.9974  -28.3255   24.1405 H   0  0  0  0  0  0
  -20.5669  -26.2294   23.3613 H   0  0  0  0  0  0
  -21.6641  -26.7432   22.1208 H   0  0  0  0  0  0
  -19.6910  -25.6290   21.1246 H   0  0  0  0  0  0
  -19.6691  -27.3190   20.6744 H   0  0  0  0  0  0
  -17.4200  -26.6683   21.4019 H   0  0  0  0  0  0
  -18.0319  -26.0065   22.9012 H   0  0  0  0  0  0
  -19.7933  -30.7277   24.2261 H   0  0  0  0  0  0
  -17.5008  -31.6267   24.5159 H   0  0  0  0  0  0
  -15.5350  -30.2982   23.7655 H   0  0  0  0  0  0
  -15.8670  -28.0818   22.7069 H   0  0  0  0  0  0
  -24.5915  -30.7060   25.7785 H   0  0  0  0  0  0
  -24.8912  -32.2890   26.4866 H   0  0  0  0  0  0
  -25.8058  -30.8916   27.0234 H   0  0  0  0  0  0
  -26.2905  -29.6759   24.1209 H   0  0  0  0  0  0
  -27.4019  -29.7256   25.4696 H   0  0  0  0  0  0
  -27.8785  -30.4281   23.9418 H   0  0  0  0  0  0
  -27.2674  -33.3615   26.2075 H   0  0  0  0  0  0
  -28.3872  -32.6874   25.0328 H   0  0  0  0  0  0
  -28.0723  -31.8438   26.5413 H   0  0  0  0  0  0
  -28.2584  -38.0112   24.7537 H   0  0  0  0  0  0
  -28.1105  -36.2646   24.6249 H   0  0  0  0  0  0
  -27.2309  -37.1400   25.8862 H   0  0  0  0  0  0
  -20.9372  -29.8778   21.6904 H   0  0  0  0  0  0
  -26.0173  -38.2849   24.1431 H   0  0  0  0  0  0
  -27.5540  -19.6550   21.5289 H   0  0  0  0  0  0
  -27.9795  -17.2761   21.9692 H   0  0  0  0  0  0
  -29.4330  -24.9292   22.1061 H   0  0  0  0  0  0
  -27.7272  -24.8362   22.5306 H   0  0  0  0  0  0
  -27.5590  -22.5500   21.7042 H   0  0  0  0  0  0
  -29.1274  -22.5268   22.4985 H   0  0  0  0  0  0
  -29.9385  -24.3673   19.3035 H   0  0  0  0  0  0
  -28.4640  -23.7355   18.6033 H   0  0  0  0  0  0
  -27.0886  -24.7202   20.2437 H   0  0  0  0  0  0
  -31.6796  -20.8014   19.1126 H   0  0  0  0  0  0
  -30.8789  -19.9812   17.7644 H   0  0  0  0  0  0
  -32.2274  -19.2113   18.5953 H   0  0  0  0  0  0
  -27.7291  -21.3492   19.6092 H   0  0  0  0  0  0
  -29.1622  -21.4351   18.6683 H   0  0  0  0  0  0
  -28.9755  -15.3175   21.3957 H   0  0  0  0  0  0
  -30.1886  -22.6541   20.5325 H   0  0  0  0  0  0
  1 25  1  0  0  0
  1 30  2  0  0  0
  1 83  1  0  0  0
  2  3  1  0  0  0
  2 25  1  0  0  0
  2 85  1  0  0  0
  2 86  1  0  0  0
  3  4  1  0  0  0
  3 87  1  0  0  0
  3 88  1  0  0  0
  4  5  1  0  0  0
  4 89  1  0  0  0
  4 90  1  0  0  0
  5  6  1  0  0  0
  5 26  1  0  0  0
  5 91  1  0  0  0
  6 25  1  0  0  0
  6 92  1  0  0  0
  6 93  1  0  0  0
  7  8  2  0  0  0
  7 26  1  0  0  0
  7 29  1  0  0  0
  8  9  1  0  0  0
  8 22  1  0  0  0
  9 10  1  0  0  0
  9 27  2  0  0  0
 10 11  2  0  0  0
 10 15  1  0  0  0
 11 12  1  0  0  0
 11 94  1  0  0  0
 12 13  2  0  0  0
 12 95  1  0  0  0
 13 14  1  0  0  0
 13 31  1  0  0  0
 14 15  2  0  0  0
 14 96  1  0  0  0
 15 97  1  0  0  0
 16 17  2  0  0  0
 16 21  1  0  0  0
 16 31  1  0  0  0
 17 18  1  0  0  0
 17 98  1  0  0  0
 18 19  2  0  0  0
 18 99  1  0  0  0
 19 20  1  0  0  0
 19 24  1  0  0  0
 20 21  2  0  0  0
 20100  1  0  0  0
 21 23  1  0  0  0
 22 28  1  0  0  0
 22 32  2  0  0  0
 26 27  1  0  0  0
 28101  1  0  0  0
 28102  1  0  0  0
 29103  1  0  0  0
 29104  1  0  0  0
 33 34  1  0  0  0
 33 66  1  0  0  0
 33 70  2  0  0  0
 34 36  1  0  0  0
 34 59  1  0  0  0
 34105  1  0  0  0
 35 44  2  0  0  0
 35 45  1  0  0  0
 35 68  1  0  0  0
 36 56  1  0  0  0
 36106  1  0  0  0
 37 39  1  0  0  0
 37 47  1  0  0  0
 37 66  1  0  0  0
 37107  1  0  0  0
 38 43  2  0  0  0
 38 46  1  0  0  0
 38 47  1  0  0  0
 39 64  1  0  0  0
 39 67  2  0  0  0
 40 52  1  0  0  0
 40 53  2  0  0  0
 40 58  1  0  0  0
 41108  1  0  0  0
 41109  1  0  0  0
 41110  1  0  0  0
 41 48  1  0  0  0
 42 43  1  0  0  0
 42 66  1  0  0  0
 42111  1  0  0  0
 42112  1  0  0  0
 43 44  1  0  0  0
 44113  1  0  0  0
 45 46  2  0  0  0
 45114  1  0  0  0
 46115  1  0  0  0
 47116  1  0  0  0
 47117  1  0  0  0
 48 56  1  0  0  0
 48 65  1  0  0  0
 48118  1  0  0  0
 49 50  1  0  0  0
 49 53  1  0  0  0
 49 64  1  0  0  0
 49119  1  0  0  0
 50 51  1  0  0  0
 50120  1  0  0  0
 50121  1  0  0  0
 51 52  1  0  0  0
 51122  1  0  0  0
 51123  1  0  0  0
 52124  1  0  0  0
 52125  1  0  0  0
 53 54  1  0  0  0
 54 55  2  0  0  0
 54126  1  0  0  0
 55 57  1  0  0  0
 55127  1  0  0  0
 56 69  2  0  0  0
 57 58  2  0  0  0
 57128  1  0  0  0
 58129  1  0  0  0
 59 60  1  0  0  0
 59 61  1  0  0  0
 59 62  1  0  0  0
 60130  1  0  0  0
 60131  1  0  0  0
 60132  1  0  0  0
 61133  1  0  0  0
 61134  1  0  0  0
 61135  1  0  0  0
 62136  1  0  0  0
 62137  1  0  0  0
 62138  1  0  0  0
 63 65  1  0  0  0
 63139  1  0  0  0
 63140  1  0  0  0
 63141  1  0  0  0
 64142  1  0  0  0
 65143  1  0  0  0
 68 79  1  0  0  0
 71 72  2  0  0  0
 71 73  1  0  0  0
 71144  1  0  0  0
 72 75  1  0  0  0
 72145  1  0  0  0
 73 74  2  0  0  0
 73 81  1  0  0  0
 74 80  1  0  0  0
 74 82  1  0  0  0
 75 82  2  0  0  0
 75 83  1  0  0  0
 76 77  1  0  0  0
 76 79  1  0  0  0
 76146  1  0  0  0
 76147  1  0  0  0
 77 84  1  0  0  0
 77148  1  0  0  0
 77149  1  0  0  0
 78 79  1  0  0  0
 78 84  1  0  0  0
 78150  1  0  0  0
 78151  1  0  0  0
 79152  1  0  0  0
 80153  1  0  0  0
 80154  1  0  0  0
 80155  1  0  0  0
 81156  1  0  0  0
 81157  1  0  0  0
 81 84  1  0  0  0
 83158  1  0  0  0
 84159  1  0  0  0
M  CHG  1  84   1
M  ISO  4   1 100  68 101  79 101  83 100
M  END
> <chiral flag>
0

> <version>
0

> <s_m_source_file>
/data/baiqing/PycharmProjects/Reinvent-master-3.2/result/LINK_invent/BTK/process_docking_weight1_custom_sum_contain_oxygen_bond_distance_aromatic_linkinvent_7_9_3/rearranged_h_0136.sdf

> <i_m_source_file_index>
7

> <r_mmod_Potential_Energy-OPLS-2005>
-122.762519836426

> <r_mmod_Stretch_Energy-OPLS-2005>
83.3692169189453

> <r_mmod_Bend_Energy-OPLS-2005>
181.732528686523

> <r_mmod_Torsional_Energy-OPLS-2005>
266.570098876953

> <r_mmod_Improper_Torsional_Energy-OPLS-2005>
5.14959096908569

> <r_mmod_Van_der_Waal_Energy-OPLS-2005>
138.864044189453

> <r_mmod_Electrostatic_Energy-OPLS-2005>
-385.906768798828

> <r_mmod_Solvation_Energy-OPLS-2005>
-464.964172363281

> <b_mmod_Minimization_Converged-OPLS-2005>
0

> <r_mmod_RMS_Derivative-OPLS-2005>
0.763503909111023

$$$$
7
                    3D
 Structure written by MMmdl.
161169  0  0  1  0            999 V2000
  -30.6263  -14.6401   20.4917 C   0  0  0  0  0  0
  -30.4377  -12.3865   19.4551 C   0  0  0  0  0  0
  -29.5110  -12.5081   18.2251 C   0  0  0  0  0  0
  -28.0328  -12.3443   18.6329 C   0  0  0  0  0  0
  -27.6540  -13.2145   19.8615 C   0  0  2  0  0  0
  -28.6983  -13.0725   20.9923 C   0  0  0  0  0  0
  -25.2569  -13.8161   20.5680 C   0  0  0  0  0  0
  -24.1837  -13.0430   20.9208 C   0  0  0  0  0  0
  -24.6400  -11.6899   20.8730 C   0  0  0  0  0  0
  -23.9063  -10.4287   21.0383 C   0  0  0  0  0  0
  -24.3612   -9.4209   21.9173 C   0  0  0  0  0  0
  -23.6287   -8.2247   22.0753 C   0  0  0  0  0  0
  -22.4275   -8.0274   21.3544 C   0  0  0  0  0  0
  -21.9906   -9.0241   20.4650 C   0  0  0  0  0  0
  -22.7225  -10.2126   20.3044 C   0  0  0  0  0  0
  -21.6854   -6.0731   22.5277 C   0  0  0  0  0  0
  -21.4016   -6.5638   23.8212 C   0  0  0  0  0  0
  -21.3666   -5.6789   24.9175 C   0  0  0  0  0  0
  -21.6041   -4.3051   24.7227 C   0  0  0  0  0  0
  -21.8818   -3.8148   23.4346 C   0  0  0  0  0  0
  -21.9199   -4.6958   22.3406 C   0  0  0  0  0  0
  -22.7861  -13.5234   21.1852 C   0  0  0  0  0  0
  -22.1657   -4.2149   21.0984 F   0  0  0  0  0  0
  -21.5641   -3.4536   25.7743 F   0  0  0  0  0  0
  -30.0168  -13.4123   20.4309 N   0  0  0  0  0  0
  -26.2993  -12.9338   20.3295 N   0  0  0  0  0  0
  -25.9327  -11.6500   20.5735 N   0  0  0  0  0  0
  -22.0476  -12.8248   22.0401 N   0  0  0  0  0  0
  -25.4296  -15.1888   20.4077 N   0  0  0  0  0  0
  -31.7944  -14.7829   20.1146 O   0  0  0  0  0  0
  -21.6641   -6.8869   21.4238 O   0  0  0  0  0  0
  -22.3557  -14.5539   20.6677 O   0  0  0  0  0  0
  -24.6240  -31.8616   23.2047 C   0  0  0  0  0  0
  -25.9108  -32.4781   23.8355 C   0  0  1  0  0  0
  -27.2206  -27.3371   20.1086 C   0  0  0  0  0  0
  -25.5935  -33.8584   24.2293 N   0  0  0  0  0  0
  -23.4155  -30.4855   21.5476 C   0  0  2  0  0  0
  -24.8610  -28.9430   20.1151 C   0  0  0  0  0  0
  -22.7455  -29.4629   22.4957 C   0  0  0  0  0  0
  -18.0277  -28.1380   22.8489 C   0  0  0  0  0  0
  -24.1493  -36.7292   23.2637 C   0  0  0  0  0  0
  -25.9556  -30.7960   21.3744 C   0  0  0  0  0  0
  -26.0296  -29.4242   20.7191 C   0  0  0  0  0  0
  -27.2142  -28.6322   20.7076 C   0  0  0  0  0  0
  -26.0339  -26.9113   19.4701 C   0  0  0  0  0  0
  -24.8637  -27.6899   19.4847 C   0  0  0  0  0  0
  -23.6284  -29.8203   20.1630 C   0  0  0  0  0  0
  -25.4122  -36.3086   24.0322 C   0  0  1  0  0  0
  -20.5877  -28.3683   23.1293 C   0  0  2  0  0  0
  -20.6773  -26.9414   22.5408 C   0  0  0  0  0  0
  -19.5746  -26.6385   21.5211 C   0  0  0  0  0  0
  -18.1924  -26.7924   22.1620 C   0  0  0  0  0  0
  -19.1532  -28.8846   23.2882 C   0  0  0  0  0  0
  -18.9453  -30.1450   23.8893 C   0  0  0  0  0  0
  -17.6454  -30.6586   24.0562 C   0  0  0  0  0  0
  -25.9047  -34.9453   23.5102 C   0  0  0  0  0  0
  -16.5345  -29.9088   23.6331 C   0  0  0  0  0  0
  -16.7263  -28.6500   23.0355 C   0  0  0  0  0  0
  -26.4506  -31.6575   25.0712 C   0  0  0  0  0  0
  -25.3759  -31.3702   26.1448 C   0  0  0  0  0  0
  -27.0341  -30.2993   24.6150 C   0  0  0  0  0  0
  -27.6062  -32.4301   25.7488 C   0  0  0  0  0  0
  -27.5583  -37.1799   24.8461 C   0  0  0  0  0  0
  -21.4172  -29.3048   22.3702 N   0  0  0  0  0  0
  -26.4302  -37.3778   23.9401 N   0  0  0  0  0  0
  -24.6837  -31.0639   22.0987 N   0  0  0  0  0  0
  -23.4191  -28.8170   23.3026 O   0  0  0  0  0  0
  -28.3454  -26.5045   20.1151 O   0  0  0  0  0  0
  -26.5613  -34.8916   22.4668 O   0  0  0  0  0  0
  -23.5411  -32.1408   23.7387 O   0  0  0  0  0  0
  -28.6600  -17.8454   20.7662 C   0  0  0  0  0  0
  -28.5651  -19.2455   20.5167 C   0  0  0  0  0  0
  -29.7184  -19.9804   20.1229 C   0  0  0  0  0  0
  -30.9108  -19.1927   20.0355 C   0  0  0  0  0  0
  -29.8716  -17.1263   20.6090 C   0  0  0  0  0  0
  -27.2123  -19.9205   20.6680 C   0  0  0  0  0  0
  -32.2428  -19.8072   19.6357 C   0  0  0  0  0  0
  -30.6407  -24.5179   20.4419 C   0  0  0  0  0  0
  -29.6773  -21.4941   19.6369 C   0  0  0  0  0  0
  -28.1475  -25.0811   20.4716 C   0  0  0  0  0  0
  -29.2458  -24.0351   19.9969 C   0  0  2  0  0  0
  -30.9731  -17.8416   20.2614 N   0  0  0  0  0  0
  -29.8109  -15.6856   20.8355 N   0  0  0  0  0  0
  -29.0101  -22.5919   20.4443 N   0  3  0  0  0  0
  -31.4808  -12.5024   19.1551 H   0  0  0  0  0  0
  -30.3644  -11.3904   19.8955 H   0  0  0  0  0  0
  -29.7783  -11.7620   17.4745 H   0  0  0  0  0  0
  -29.6562  -13.4802   17.7519 H   0  0  0  0  0  0
  -27.8704  -11.2908   18.8613 H   0  0  0  0  0  0
  -27.3805  -12.5737   17.7902 H   0  0  0  0  0  0
  -27.6705  -14.2501   19.5215 H   0  0  0  0  0  0
  -28.7087  -12.0506   21.3739 H   0  0  0  0  0  0
  -28.4426  -13.7051   21.8440 H   0  0  0  0  0  0
  -25.2743   -9.5706   22.4760 H   0  0  0  0  0  0
  -23.9999   -7.4651   22.7475 H   0  0  0  0  0  0
  -21.0844   -8.8744   19.8958 H   0  0  0  0  0  0
  -22.3655  -10.9665   19.6165 H   0  0  0  0  0  0
  -21.1990   -7.6135   23.9721 H   0  0  0  0  0  0
  -21.1497   -6.0512   25.9078 H   0  0  0  0  0  0
  -22.0595   -2.7608   23.2852 H   0  0  0  0  0  0
  -22.4051  -11.9913   22.4828 H   0  0  0  0  0  0
  -21.1087  -13.1300   22.2548 H   0  0  0  0  0  0
  -24.6593  -15.8398   20.5153 H   0  0  0  0  0  0
  -26.2594  -15.6215   20.0229 H   0  0  0  0  0  0
  -26.7167  -32.5458   23.1096 H   0  0  0  0  0  0
  -25.0101  -33.9742   25.0448 H   0  0  0  0  0  0
  -22.7085  -31.3053   21.4048 H   0  0  0  0  0  0
  -23.3757  -35.9619   23.3288 H   0  0  0  0  0  0
  -24.3579  -36.8929   22.2052 H   0  0  0  0  0  0
  -23.7239  -37.6485   23.6668 H   0  0  0  0  0  0
  -26.0865  -31.5599   20.6068 H   0  0  0  0  0  0
  -26.8359  -30.8438   22.0026 H   0  0  0  0  0  0
  -28.1129  -28.9986   21.1842 H   0  0  0  0  0  0
  -25.9927  -25.9715   18.9383 H   0  0  0  0  0  0
  -23.9715  -27.3218   18.9971 H   0  0  0  0  0  0
  -23.7457  -30.5951   19.4041 H   0  0  0  0  0  0
  -22.7492  -29.2469   19.8627 H   0  0  0  0  0  0
  -25.1306  -36.1935   25.0812 H   0  0  0  0  0  0
  -20.9958  -28.3251   24.1414 H   0  0  0  0  0  0
  -20.5687  -26.2295   23.3605 H   0  0  0  0  0  0
  -21.6643  -26.7455   22.1194 H   0  0  0  0  0  0
  -19.6916  -25.6295   21.1243 H   0  0  0  0  0  0
  -19.6689  -27.3199   20.6745 H   0  0  0  0  0  0
  -17.4203  -26.6674   21.4012 H   0  0  0  0  0  0
  -18.0317  -26.0054   22.9002 H   0  0  0  0  0  0
  -19.7932  -30.7267   24.2261 H   0  0  0  0  0  0
  -17.5008  -31.6269   24.5159 H   0  0  0  0  0  0
  -15.5345  -30.2992   23.7643 H   0  0  0  0  0  0
  -15.8656  -28.0811   22.7084 H   0  0  0  0  0  0
  -24.5917  -30.7076   25.7769 H   0  0  0  0  0  0
  -24.8991  -32.2878   26.4902 H   0  0  0  0  0  0
  -25.8107  -30.8844   27.0195 H   0  0  0  0  0  0
  -26.2901  -29.6734   24.1211 H   0  0  0  0  0  0
  -27.4072  -29.7250   25.4638 H   0  0  0  0  0  0
  -27.8756  -30.4256   23.9337 H   0  0  0  0  0  0
  -27.2664  -33.3588   26.2073 H   0  0  0  0  0  0
  -28.3882  -32.6877   25.0339 H   0  0  0  0  0  0
  -28.0716  -31.8424   26.5406 H   0  0  0  0  0  0
  -28.2595  -38.0101   24.7518 H   0  0  0  0  0  0
  -28.1088  -36.2633   24.6286 H   0  0  0  0  0  0
  -27.2291  -37.1437   25.8860 H   0  0  0  0  0  0
  -20.9349  -29.8773   21.6912 H   0  0  0  0  0  0
  -26.0179  -38.2847   24.1410 H   0  0  0  0  0  0
  -27.7664  -17.3137   21.0619 H   0  0  0  0  0  0
  -26.4044  -19.1903   20.7184 H   0  0  0  0  0  0
  -26.9967  -20.5815   19.8291 H   0  0  0  0  0  0
  -27.1857  -20.4980   21.5919 H   0  0  0  0  0  0
  -32.5395  -20.5714   20.3543 H   0  0  0  0  0  0
  -32.1850  -20.2624   18.6468 H   0  0  0  0  0  0
  -33.0407  -19.0653   19.6067 H   0  0  0  0  0  0
  -30.8375  -25.5259   20.0742 H   0  0  0  0  0  0
  -31.4399  -23.8827   20.0616 H   0  0  0  0  0  0
  -30.7230  -24.5454   21.5291 H   0  0  0  0  0  0
  -29.2164  -21.4931   18.6475 H   0  0  0  0  0  0
  -30.6950  -21.8288   19.4570 H   0  0  0  0  0  0
  -28.0779  -25.0427   21.5589 H   0  0  0  0  0  0
  -27.1891  -24.7074   20.1182 H   0  0  0  0  0  0
  -29.2205  -24.0404   18.9057 H   0  0  0  0  0  0
  -28.9127  -15.3663   21.1589 H   0  0  0  0  0  0
  -29.2830  -22.5028   21.4111 H   0  0  0  0  0  0
  -28.0181  -22.4199   20.3999 H   0  0  0  0  0  0
  1 25  1  0  0  0
  1 30  2  0  0  0
  1 83  1  0  0  0
  2  3  1  0  0  0
  2 25  1  0  0  0
  2 85  1  0  0  0
  2 86  1  0  0  0
  3  4  1  0  0  0
  3 87  1  0  0  0
  3 88  1  0  0  0
  4  5  1  0  0  0
  4 89  1  0  0  0
  4 90  1  0  0  0
  5  6  1  0  0  0
  5 26  1  0  0  0
  5 91  1  0  0  0
  6 25  1  0  0  0
  6 92  1  0  0  0
  6 93  1  0  0  0
  7  8  2  0  0  0
  7 26  1  0  0  0
  7 29  1  0  0  0
  8  9  1  0  0  0
  8 22  1  0  0  0
  9 10  1  0  0  0
  9 27  2  0  0  0
 10 11  2  0  0  0
 10 15  1  0  0  0
 11 12  1  0  0  0
 11 94  1  0  0  0
 12 13  2  0  0  0
 12 95  1  0  0  0
 13 14  1  0  0  0
 13 31  1  0  0  0
 14 15  2  0  0  0
 14 96  1  0  0  0
 15 97  1  0  0  0
 16 17  2  0  0  0
 16 21  1  0  0  0
 16 31  1  0  0  0
 17 18  1  0  0  0
 17 98  1  0  0  0
 18 19  2  0  0  0
 18 99  1  0  0  0
 19 20  1  0  0  0
 19 24  1  0  0  0
 20 21  2  0  0  0
 20100  1  0  0  0
 21 23  1  0  0  0
 22 28  1  0  0  0
 22 32  2  0  0  0
 26 27  1  0  0  0
 28101  1  0  0  0
 28102  1  0  0  0
 29103  1  0  0  0
 29104  1  0  0  0
 33 34  1  0  0  0
 33 66  1  0  0  0
 33 70  2  0  0  0
 34 36  1  0  0  0
 34 59  1  0  0  0
 34105  1  0  0  0
 35 44  2  0  0  0
 35 45  1  0  0  0
 35 68  1  0  0  0
 36 56  1  0  0  0
 36106  1  0  0  0
 37 39  1  0  0  0
 37 47  1  0  0  0
 37 66  1  0  0  0
 37107  1  0  0  0
 38 43  2  0  0  0
 38 46  1  0  0  0
 38 47  1  0  0  0
 39 64  1  0  0  0
 39 67  2  0  0  0
 40 52  1  0  0  0
 40 53  2  0  0  0
 40 58  1  0  0  0
 41108  1  0  0  0
 41109  1  0  0  0
 41110  1  0  0  0
 41 48  1  0  0  0
 42 43  1  0  0  0
 42 66  1  0  0  0
 42111  1  0  0  0
 42112  1  0  0  0
 43 44  1  0  0  0
 44113  1  0  0  0
 45 46  2  0  0  0
 45114  1  0  0  0
 46115  1  0  0  0
 47116  1  0  0  0
 47117  1  0  0  0
 48 56  1  0  0  0
 48 65  1  0  0  0
 48118  1  0  0  0
 49 50  1  0  0  0
 49 53  1  0  0  0
 49 64  1  0  0  0
 49119  1  0  0  0
 50 51  1  0  0  0
 50120  1  0  0  0
 50121  1  0  0  0
 51 52  1  0  0  0
 51122  1  0  0  0
 51123  1  0  0  0
 52124  1  0  0  0
 52125  1  0  0  0
 53 54  1  0  0  0
 54 55  2  0  0  0
 54126  1  0  0  0
 55 57  1  0  0  0
 55127  1  0  0  0
 56 69  2  0  0  0
 57 58  2  0  0  0
 57128  1  0  0  0
 58129  1  0  0  0
 59 60  1  0  0  0
 59 61  1  0  0  0
 59 62  1  0  0  0
 60130  1  0  0  0
 60131  1  0  0  0
 60132  1  0  0  0
 61133  1  0  0  0
 61134  1  0  0  0
 61135  1  0  0  0
 62136  1  0  0  0
 62137  1  0  0  0
 62138  1  0  0  0
 63 65  1  0  0  0
 63139  1  0  0  0
 63140  1  0  0  0
 63141  1  0  0  0
 64142  1  0  0  0
 65143  1  0  0  0
 68 80  1  0  0  0
 71 72  2  0  0  0
 71 75  1  0  0  0
 71144  1  0  0  0
 72 73  1  0  0  0
 72 76  1  0  0  0
 73 74  2  0  0  0
 73 79  1  0  0  0
 74 77  1  0  0  0
 74 82  1  0  0  0
 75 82  2  0  0  0
 75 83  1  0  0  0
 76145  1  0  0  0
 76146  1  0  0  0
 76147  1  0  0  0
 77148  1  0  0  0
 77149  1  0  0  0
 77150  1  0  0  0
 78151  1  0  0  0
 78152  1  0  0  0
 78153  1  0  0  0
 78 81  1  0  0  0
 79 84  1  0  0  0
 79154  1  0  0  0
 79155  1  0  0  0
 80 81  1  0  0  0
 80156  1  0  0  0
 80157  1  0  0  0
 81 84  1  0  0  0
 81158  1  0  0  0
 83159  1  0  0  0
 84160  1  0  0  0
 84161  1  0  0  0
M  CHG  1  84   1
M  ISO  4   1 100  68 101  80 101  83 100
M  END
> <chiral flag>
0

> <version>
0

> <s_m_source_file>
/data/baiqing/PycharmProjects/Reinvent-master-3.2/result/LINK_invent/BTK/process_docking_weight1_custom_sum_contain_oxygen_bond_distance_aromatic_linkinvent_7_9_3/rearranged_h_0136.sdf

> <i_m_source_file_index>
8

> <r_mmod_Potential_Energy-OPLS-2005>
-177.879547119141

> <r_mmod_Stretch_Energy-OPLS-2005>
79.5891418457031

> <r_mmod_Bend_Energy-OPLS-2005>
141.468978881836

> <r_mmod_Torsional_Energy-OPLS-2005>
219.596618652344

> <r_mmod_Improper_Torsional_Energy-OPLS-2005>
5.0002555847168

> <r_mmod_Van_der_Waal_Energy-OPLS-2005>
145.587310791016

> <r_mmod_Electrostatic_Energy-OPLS-2005>
-331.7919921875

> <r_mmod_Solvation_Energy-OPLS-2005>
-480.800079345703

> <b_mmod_Minimization_Converged-OPLS-2005>
0

> <r_mmod_RMS_Derivative-OPLS-2005>
1.93659496307373

$$$$
8
                    3D
 Structure written by MMmdl.
176185  0  0  1  0            999 V2000
  -30.5721  -14.7271   20.5499 C   0  0  0  0  0  0
  -30.4571  -12.4866   19.4230 C   0  0  0  0  0  0
  -29.5013  -12.5654   18.2071 C   0  0  0  0  0  0
  -28.0190  -12.3927   18.6168 C   0  0  0  0  0  0
  -27.6539  -13.2047   19.8895 C   0  0  2  0  0  0
  -28.7226  -12.9318   20.9683 C   0  0  0  0  0  0
  -25.2497  -13.8069   20.5645 C   0  0  0  0  0  0
  -24.1761  -13.0378   20.9182 C   0  0  0  0  0  0
  -24.6344  -11.6850   20.8768 C   0  0  0  0  0  0
  -23.9001  -10.4255   21.0413 C   0  0  0  0  0  0
  -24.3571   -9.4192   21.9196 C   0  0  0  0  0  0
  -23.6274   -8.2221   22.0749 C   0  0  0  0  0  0
  -22.4270   -8.0249   21.3534 C   0  0  0  0  0  0
  -21.9885   -9.0205   20.4639 C   0  0  0  0  0  0
  -22.7187  -10.2098   20.3056 C   0  0  0  0  0  0
  -21.6849   -6.0710   22.5272 C   0  0  0  0  0  0
  -21.4013   -6.5619   23.8196 C   0  0  0  0  0  0
  -21.3665   -5.6777   24.9162 C   0  0  0  0  0  0
  -21.6049   -4.3039   24.7228 C   0  0  0  0  0  0
  -21.8822   -3.8126   23.4343 C   0  0  0  0  0  0
  -21.9196   -4.6938   22.3401 C   0  0  0  0  0  0
  -22.7796  -13.5219   21.1825 C   0  0  0  0  0  0
  -22.1676   -4.2111   21.0983 F   0  0  0  0  0  0
  -21.5623   -3.4547   25.7753 F   0  0  0  0  0  0
  -29.9858  -13.4694   20.4330 N   0  0  0  0  0  0
  -26.2976  -12.9252   20.3480 N   0  0  0  0  0  0
  -25.9284  -11.6408   20.5852 N   0  0  0  0  0  0
  -22.0416  -12.8255   22.0395 N   0  0  0  0  0  0
  -25.4069  -15.1750   20.3845 N   0  0  0  0  0  0
  -31.7310  -14.8563   20.1350 O   0  0  0  0  0  0
  -21.6626   -6.8858   21.4237 O   0  0  0  0  0  0
  -22.3516  -14.5549   20.6675 O   0  0  0  0  0  0
  -24.6261  -31.8585   23.2013 C   0  0  0  0  0  0
  -25.9123  -32.4762   23.8323 C   0  0  1  0  0  0
  -27.2271  -27.3097   20.1108 C   0  0  0  0  0  0
  -25.5940  -33.8563   24.2239 N   0  0  0  0  0  0
  -23.4189  -30.4839   21.5439 C   0  0  2  0  0  0
  -24.8663  -28.9365   20.1113 C   0  0  0  0  0  0
  -22.7467  -29.4623   22.4919 C   0  0  0  0  0  0
  -18.0289  -28.1387   22.8490 C   0  0  0  0  0  0
  -24.1495  -36.7282   23.2633 C   0  0  0  0  0  0
  -25.9624  -30.7843   21.3768 C   0  0  0  0  0  0
  -26.0365  -29.4122   20.7173 C   0  0  0  0  0  0
  -27.2177  -28.6085   20.7101 C   0  0  0  0  0  0
  -26.0302  -26.8897   19.4846 C   0  0  0  0  0  0
  -24.8653  -27.6794   19.4904 C   0  0  0  0  0  0
  -23.6344  -29.8194   20.1596 C   0  0  0  0  0  0
  -25.4124  -36.3060   24.0308 C   0  0  1  0  0  0
  -20.5889  -28.3684   23.1290 C   0  0  2  0  0  0
  -20.6787  -26.9407   22.5420 C   0  0  0  0  0  0
  -19.5759  -26.6384   21.5224 C   0  0  0  0  0  0
  -18.1936  -26.7935   22.1631 C   0  0  0  0  0  0
  -19.1544  -28.8855   23.2892 C   0  0  0  0  0  0
  -18.9464  -30.1459   23.8893 C   0  0  0  0  0  0
  -17.6469  -30.6591   24.0563 C   0  0  0  0  0  0
  -25.9066  -34.9438   23.5067 C   0  0  0  0  0  0
  -16.5353  -29.9088   23.6339 C   0  0  0  0  0  0
  -16.7275  -28.6510   23.0346 C   0  0  0  0  0  0
  -26.4496  -31.6582   25.0705 C   0  0  0  0  0  0
  -25.3721  -31.3764   26.1429 C   0  0  0  0  0  0
  -27.0323  -30.2978   24.6203 C   0  0  0  0  0  0
  -27.6042  -32.4323   25.7492 C   0  0  0  0  0  0
  -27.5577  -37.1793   24.8455 C   0  0  0  0  0  0
  -21.4175  -29.3039   22.3670 N   0  0  0  0  0  0
  -26.4288  -37.3767   23.9401 N   0  0  0  0  0  0
  -24.6874  -31.0597   22.0966 N   0  0  0  0  0  0
  -23.4196  -28.8157   23.2997 O   0  0  0  0  0  0
  -28.3490  -26.4592   20.1583 O   0  0  0  0  0  0
  -26.5642  -34.8913   22.4638 O   0  0  0  0  0  0
  -23.5429  -32.1390   23.7345 O   0  0  0  0  0  0
  -29.7977  -21.2151   20.4446 C   0  0  0  0  0  0
  -27.7726  -17.0532   21.6798 C   0  0  0  0  0  0
  -30.7064  -24.6401   19.8992 C   0  0  0  0  0  0
  -28.8398  -15.9850   21.9127 C   0  0  0  0  0  0
  -30.0833  -17.2777   20.2131 C   0  0  0  0  0  0
  -31.7233  -23.6997   19.2429 C   0  0  0  0  0  0
  -29.8248  -22.4455   18.1692 C   0  0  0  0  0  0
  -29.2377  -22.4633   19.6104 C   0  0  2  0  0  0
  -28.3294  -18.4585   21.8797 C   0  0  1  0  0  0
  -29.3436  -23.9708   20.2231 C   0  0  2  0  0  0
  -29.6073  -18.6502   20.9710 C   0  0  2  0  0  0
  -25.7558  -19.0688   22.0265 C   0  0  0  0  0  0
  -27.4629  -20.6751   22.8851 C   0  0  0  0  0  0
  -28.1819  -25.0119   19.8537 C   0  0  0  0  0  0
  -27.2057  -19.5675   21.8434 C   0  0  0  0  0  0
  -29.8017  -15.8831   20.8050 N   0  0  0  0  0  0
  -29.4915  -19.9073   20.1142 N   0  0  0  0  0  0
  -31.1493  -23.1061   18.0176 N   0  3  0  0  0  0
  -30.4960  -21.4504   21.4297 O   0  0  0  0  0  0
  -31.4794  -12.6778   19.0970 H   0  0  0  0  0  0
  -30.4810  -11.4758   19.8340 H   0  0  0  0  0  0
  -29.7769  -11.8235   17.4576 H   0  0  0  0  0  0
  -29.6257  -13.5346   17.7208 H   0  0  0  0  0  0
  -27.8418  -11.3306   18.7945 H   0  0  0  0  0  0
  -27.3645  -12.6745   17.7911 H   0  0  0  0  0  0
  -27.6938  -14.2617   19.6249 H   0  0  0  0  0  0
  -28.7968  -11.8498   21.0953 H   0  0  0  0  0  0
  -28.4795  -13.2109   21.9850 H   0  0  0  0  0  0
  -25.2699   -9.5709   22.4791 H   0  0  0  0  0  0
  -23.9973   -7.4635   22.7493 H   0  0  0  0  0  0
  -21.0801   -8.8720   19.8985 H   0  0  0  0  0  0
  -22.3610  -10.9632   19.6181 H   0  0  0  0  0  0
  -21.2005   -7.6127   23.9700 H   0  0  0  0  0  0
  -21.1493   -6.0500   25.9063 H   0  0  0  0  0  0
  -22.0604   -2.7586   23.2850 H   0  0  0  0  0  0
  -22.3999  -11.9918   22.4827 H   0  0  0  0  0  0
  -21.1045  -13.1329   22.2589 H   0  0  0  0  0  0
  -24.6315  -15.8232   20.4683 H   0  0  0  0  0  0
  -26.2543  -15.6108   20.0495 H   0  0  0  0  0  0
  -26.7184  -32.5422   23.1061 H   0  0  0  0  0  0
  -25.0056  -33.9705   25.0358 H   0  0  0  0  0  0
  -22.7114  -31.3042   21.4031 H   0  0  0  0  0  0
  -23.3750  -35.9623   23.3291 H   0  0  0  0  0  0
  -24.3581  -36.8916   22.2050 H   0  0  0  0  0  0
  -23.7267  -37.6482   23.6673 H   0  0  0  0  0  0
  -26.1021  -31.5501   20.6121 H   0  0  0  0  0  0
  -26.8386  -30.8263   22.0117 H   0  0  0  0  0  0
  -28.1125  -28.9673   21.1989 H   0  0  0  0  0  0
  -25.9599  -25.9320   18.9927 H   0  0  0  0  0  0
  -23.9686  -27.3044   19.0155 H   0  0  0  0  0  0
  -23.7530  -30.5961   19.4031 H   0  0  0  0  0  0
  -22.7521  -29.2519   19.8580 H   0  0  0  0  0  0
  -25.1313  -36.1880   25.0800 H   0  0  0  0  0  0
  -21.0003  -28.3278   24.1403 H   0  0  0  0  0  0
  -20.5717  -26.2286   23.3618 H   0  0  0  0  0  0
  -21.6653  -26.7460   22.1197 H   0  0  0  0  0  0
  -19.6920  -25.6300   21.1243 H   0  0  0  0  0  0
  -19.6699  -27.3203   20.6762 H   0  0  0  0  0  0
  -17.4213  -26.6691   21.4022 H   0  0  0  0  0  0
  -18.0318  -26.0077   22.9024 H   0  0  0  0  0  0
  -19.7940  -30.7284   24.2252 H   0  0  0  0  0  0
  -17.5020  -31.6272   24.5160 H   0  0  0  0  0  0
  -15.5354  -30.2982   23.7676 H   0  0  0  0  0  0
  -15.8681  -28.0840   22.7043 H   0  0  0  0  0  0
  -24.5890  -30.7111   25.7772 H   0  0  0  0  0  0
  -24.8928  -32.2957   26.4803 H   0  0  0  0  0  0
  -25.8038  -30.8978   27.0227 H   0  0  0  0  0  0
  -26.2899  -29.6739   24.1208 H   0  0  0  0  0  0
  -27.3949  -29.7233   25.4737 H   0  0  0  0  0  0
  -27.8809  -30.4203   23.9468 H   0  0  0  0  0  0
  -27.2620  -33.3609   26.2069 H   0  0  0  0  0  0
  -28.3867  -32.6907   25.0348 H   0  0  0  0  0  0
  -28.0693  -31.8453   26.5418 H   0  0  0  0  0  0
  -28.2585  -38.0098   24.7505 H   0  0  0  0  0  0
  -28.1079  -36.2625   24.6272 H   0  0  0  0  0  0
  -27.2292  -37.1433   25.8859 H   0  0  0  0  0  0
  -20.9333  -29.8741   21.6876 H   0  0  0  0  0  0
  -26.0147  -38.2827   24.1421 H   0  0  0  0  0  0
  -26.9664  -16.8565   22.3878 H   0  0  0  0  0  0
  -27.3511  -16.9631   20.6798 H   0  0  0  0  0  0
  -30.5577  -25.4823   19.2206 H   0  0  0  0  0  0
  -31.1309  -25.0797   20.8035 H   0  0  0  0  0  0
  -28.2428  -15.1108   22.0700 H   0  0  0  0  0  0
  -29.3740  -16.1533   22.8496 H   0  0  0  0  0  0
  -31.1486  -17.3676   19.9976 H   0  0  0  0  0  0
  -29.5979  -17.2620   19.2364 H   0  0  0  0  0  0
  -32.0387  -22.9176   19.9333 H   0  0  0  0  0  0
  -32.6284  -24.2527   18.9879 H   0  0  0  0  0  0
  -29.1270  -22.9305   17.4868 H   0  0  0  0  0  0
  -29.9207  -21.4241   17.7999 H   0  0  0  0  0  0
  -28.1726  -22.2462   19.5253 H   0  0  0  0  0  0
  -28.6922  -18.4493   22.9104 H   0  0  0  0  0  0
  -29.3061  -23.8640   21.3081 H   0  0  0  0  0  0
  -30.4178  -18.8615   21.6702 H   0  0  0  0  0  0
  -25.4676  -18.3644   21.2438 H   0  0  0  0  0  0
  -25.0511  -19.8991   21.9671 H   0  0  0  0  0  0
  -25.6031  -18.5847   22.9915 H   0  0  0  0  0  0
  -28.5089  -20.9668   22.9352 H   0  0  0  0  0  0
  -27.1870  -20.3505   23.8898 H   0  0  0  0  0  0
  -26.8842  -21.5713   22.6580 H   0  0  0  0  0  0
  -27.2794  -24.6576   20.3542 H   0  0  0  0  0  0
  -27.9888  -24.9307   18.7833 H   0  0  0  0  0  0
  -27.1782  -20.0276   20.8580 H   0  0  0  0  0  0
  -28.9425  -19.7861   19.2743 H   0  0  0  0  0  0
  -31.8084  -22.4487   17.6317 H   0  0  0  0  0  0
  -31.0494  -23.8404   17.3331 H   0  0  0  0  0  0
  1 25  1  0  0  0
  1 30  2  0  0  0
  1 86  1  0  0  0
  2  3  1  0  0  0
  2 25  1  0  0  0
  2 90  1  0  0  0
  2 91  1  0  0  0
  3  4  1  0  0  0
  3 92  1  0  0  0
  3 93  1  0  0  0
  4  5  1  0  0  0
  4 94  1  0  0  0
  4 95  1  0  0  0
  5  6  1  0  0  0
  5 26  1  0  0  0
  5 96  1  0  0  0
  6 25  1  0  0  0
  6 97  1  0  0  0
  6 98  1  0  0  0
  7  8  2  0  0  0
  7 26  1  0  0  0
  7 29  1  0  0  0
  8  9  1  0  0  0
  8 22  1  0  0  0
  9 10  1  0  0  0
  9 27  2  0  0  0
 10 11  2  0  0  0
 10 15  1  0  0  0
 11 12  1  0  0  0
 11 99  1  0  0  0
 12 13  2  0  0  0
 12100  1  0  0  0
 13 14  1  0  0  0
 13 31  1  0  0  0
 14 15  2  0  0  0
 14101  1  0  0  0
 15102  1  0  0  0
 16 17  2  0  0  0
 16 21  1  0  0  0
 16 31  1  0  0  0
 17 18  1  0  0  0
 17103  1  0  0  0
 18 19  2  0  0  0
 18104  1  0  0  0
 19 20  1  0  0  0
 19 24  1  0  0  0
 20 21  2  0  0  0
 20105  1  0  0  0
 21 23  1  0  0  0
 22 28  1  0  0  0
 22 32  2  0  0  0
 26 27  1  0  0  0
 28106  1  0  0  0
 28107  1  0  0  0
 29108  1  0  0  0
 29109  1  0  0  0
 33 34  1  0  0  0
 33 66  1  0  0  0
 33 70  2  0  0  0
 34 36  1  0  0  0
 34 59  1  0  0  0
 34110  1  0  0  0
 35 44  2  0  0  0
 35 45  1  0  0  0
 35 68  1  0  0  0
 36 56  1  0  0  0
 36111  1  0  0  0
 37 39  1  0  0  0
 37 47  1  0  0  0
 37 66  1  0  0  0
 37112  1  0  0  0
 38 43  2  0  0  0
 38 46  1  0  0  0
 38 47  1  0  0  0
 39 64  1  0  0  0
 39 67  2  0  0  0
 40 52  1  0  0  0
 40 53  2  0  0  0
 40 58  1  0  0  0
 41113  1  0  0  0
 41114  1  0  0  0
 41115  1  0  0  0
 41 48  1  0  0  0
 42 43  1  0  0  0
 42 66  1  0  0  0
 42116  1  0  0  0
 42117  1  0  0  0
 43 44  1  0  0  0
 44118  1  0  0  0
 45 46  2  0  0  0
 45119  1  0  0  0
 46120  1  0  0  0
 47121  1  0  0  0
 47122  1  0  0  0
 48 56  1  0  0  0
 48 65  1  0  0  0
 48123  1  0  0  0
 49 50  1  0  0  0
 49 53  1  0  0  0
 49 64  1  0  0  0
 49124  1  0  0  0
 50 51  1  0  0  0
 50125  1  0  0  0
 50126  1  0  0  0
 51 52  1  0  0  0
 51127  1  0  0  0
 51128  1  0  0  0
 52129  1  0  0  0
 52130  1  0  0  0
 53 54  1  0  0  0
 54 55  2  0  0  0
 54131  1  0  0  0
 55 57  1  0  0  0
 55132  1  0  0  0
 56 69  2  0  0  0
 57 58  2  0  0  0
 57133  1  0  0  0
 58134  1  0  0  0
 59 60  1  0  0  0
 59 61  1  0  0  0
 59 62  1  0  0  0
 60135  1  0  0  0
 60136  1  0  0  0
 60137  1  0  0  0
 61138  1  0  0  0
 61139  1  0  0  0
 61140  1  0  0  0
 62141  1  0  0  0
 62142  1  0  0  0
 62143  1  0  0  0
 63 65  1  0  0  0
 63144  1  0  0  0
 63145  1  0  0  0
 63146  1  0  0  0
 64147  1  0  0  0
 65148  1  0  0  0
 68 84  1  0  0  0
 71 87  1  0  0  0
 71 89  2  0  0  0
 71 78  1  0  0  0
 72 74  1  0  0  0
 72149  1  0  0  0
 72150  1  0  0  0
 72 79  1  0  0  0
 73 76  1  0  0  0
 73 80  1  0  0  0
 73151  1  0  0  0
 73152  1  0  0  0
 74 86  1  0  0  0
 74153  1  0  0  0
 74154  1  0  0  0
 75 81  1  0  0  0
 75 86  1  0  0  0
 75155  1  0  0  0
 75156  1  0  0  0
 76 88  1  0  0  0
 76157  1  0  0  0
 76158  1  0  0  0
 77 78  1  0  0  0
 77 88  1  0  0  0
 77159  1  0  0  0
 77160  1  0  0  0
 78 80  1  0  0  0
 78161  1  0  0  0
 79 81  1  0  0  0
 79 85  1  0  0  0
 79162  1  0  0  0
 80 84  1  0  0  0
 80163  1  0  0  0
 81 87  1  0  0  0
 81164  1  0  0  0
 82165  1  0  0  0
 82166  1  0  0  0
 82167  1  0  0  0
 82 85  1  0  0  0
 83 85  1  0  0  0
 83168  1  0  0  0
 83169  1  0  0  0
 83170  1  0  0  0
 84171  1  0  0  0
 84172  1  0  0  0
 85173  1  0  0  0
 87174  1  0  0  0
 88175  1  0  0  0
 88176  1  0  0  0
M  CHG  1  88   1
M  ISO  4   1 100  68 101  84 101  86 100
M  END
> <chiral flag>
0

> <version>
0

> <s_m_source_file>
/data/baiqing/PycharmProjects/Reinvent-master-3.2/result/LINK_invent/BTK/process_docking_weight1_custom_sum_contain_oxygen_bond_distance_aromatic_linkinvent_7_9_3/rearranged_h_0136.sdf

> <i_m_source_file_index>
9

> <r_mmod_Potential_Energy-OPLS-2005>
204.419357299805

> <r_mmod_Stretch_Energy-OPLS-2005>
138.499755859375

> <r_mmod_Bend_Energy-OPLS-2005>
207.526947021484

> <r_mmod_Torsional_Energy-OPLS-2005>
387.520324707031

> <r_mmod_Improper_Torsional_Energy-OPLS-2005>
9.70375061035156

> <r_mmod_Van_der_Waal_Energy-OPLS-2005>
166.258972167969

> <r_mmod_Electrostatic_Energy-OPLS-2005>
-293.809997558594

> <r_mmod_Solvation_Energy-OPLS-2005>
-474.669921875

> <b_mmod_Minimization_Converged-OPLS-2005>
0

> <r_mmod_RMS_Derivative-OPLS-2005>
2.62064790725708

$$$$
9
                    3D
 Structure written by MMmdl.
170180  0  0  1  0            999 V2000
  -30.7228  -14.5166   20.5086 C   0  0  0  0  0  0
  -30.4199  -12.3210   19.4361 C   0  0  0  0  0  0
  -29.4910  -12.4766   18.2155 C   0  0  0  0  0  0
  -28.0159  -12.3427   18.6383 C   0  0  0  0  0  0
  -27.6561  -13.2191   19.8691 C   0  0  2  0  0  0
  -28.7061  -13.0702   20.9943 C   0  0  0  0  0  0
  -25.2564  -13.8187   20.5751 C   0  0  0  0  0  0
  -24.1806  -13.0459   20.9210 C   0  0  0  0  0  0
  -24.6387  -11.6928   20.8749 C   0  0  0  0  0  0
  -23.9066  -10.4294   21.0409 C   0  0  0  0  0  0
  -24.3600   -9.4205   21.9190 C   0  0  0  0  0  0
  -23.6266   -8.2242   22.0746 C   0  0  0  0  0  0
  -22.4254   -8.0273   21.3537 C   0  0  0  0  0  0
  -21.9917   -9.0262   20.4636 C   0  0  0  0  0  0
  -22.7240  -10.2134   20.3054 C   0  0  0  0  0  0
  -21.6844   -6.0738   22.5266 C   0  0  0  0  0  0
  -21.4016   -6.5634   23.8200 C   0  0  0  0  0  0
  -21.3655   -5.6770   24.9155 C   0  0  0  0  0  0
  -21.6035   -4.3036   24.7211 C   0  0  0  0  0  0
  -21.8811   -3.8146   23.4329 C   0  0  0  0  0  0
  -21.9188   -4.6965   22.3389 C   0  0  0  0  0  0
  -22.7828  -13.5223   21.1846 C   0  0  0  0  0  0
  -22.1653   -4.2166   21.0958 F   0  0  0  0  0  0
  -21.5629   -3.4504   25.7732 F   0  0  0  0  0  0
  -30.0317  -13.3475   20.4182 N   0  0  0  0  0  0
  -26.3010  -12.9389   20.3404 N   0  0  0  0  0  0
  -25.9325  -11.6550   20.5812 N   0  0  0  0  0  0
  -22.0480  -12.8218   22.0402 N   0  0  0  0  0  0
  -25.4307  -15.1919   20.4169 N   0  0  0  0  0  0
  -31.8888  -14.6282   20.1190 O   0  0  0  0  0  0
  -21.6604   -6.8880   21.4223 O   0  0  0  0  0  0
  -22.3514  -14.5536   20.6678 O   0  0  0  0  0  0
  -24.6182  -31.8590   23.2061 C   0  0  0  0  0  0
  -25.9022  -32.4769   23.8434 C   0  0  1  0  0  0
  -27.2829  -27.4114   20.1010 C   0  0  0  0  0  0
  -25.5854  -33.8569   24.2390 N   0  0  0  0  0  0
  -23.4199  -30.4797   21.5364 C   0  0  2  0  0  0
  -24.8837  -28.9336   20.1105 C   0  0  0  0  0  0
  -22.7437  -29.4655   22.4870 C   0  0  0  0  0  0
  -18.0284  -28.1357   22.8474 C   0  0  0  0  0  0
  -24.1487  -36.7269   23.2660 C   0  0  0  0  0  0
  -25.9508  -30.8095   21.3751 C   0  0  0  0  0  0
  -26.0334  -29.4432   20.7223 C   0  0  0  0  0  0
  -27.2299  -28.6855   20.7185 C   0  0  0  0  0  0
  -26.1080  -26.9087   19.4993 C   0  0  0  0  0  0
  -24.9192  -27.6676   19.4928 C   0  0  0  0  0  0
  -23.6427  -29.8015   20.1549 C   0  0  0  0  0  0
  -25.4091  -36.3109   24.0409 C   0  0  1  0  0  0
  -20.5886  -28.3711   23.1200 C   0  0  2  0  0  0
  -20.6762  -26.9427   22.5349 C   0  0  0  0  0  0
  -19.5744  -26.6386   21.5143 C   0  0  0  0  0  0
  -18.1924  -26.7910   22.1586 C   0  0  0  0  0  0
  -19.1536  -28.8837   23.2846 C   0  0  0  0  0  0
  -18.9482  -30.1417   23.8899 C   0  0  0  0  0  0
  -17.6482  -30.6561   24.0566 C   0  0  0  0  0  0
  -25.9015  -34.9452   23.5227 C   0  0  0  0  0  0
  -16.5370  -29.9076   23.6320 C   0  0  0  0  0  0
  -16.7270  -28.6487   23.0354 C   0  0  0  0  0  0
  -26.4490  -31.6547   25.0740 C   0  0  0  0  0  0
  -25.3812  -31.3501   26.1513 C   0  0  0  0  0  0
  -27.0390  -30.3025   24.6093 C   0  0  0  0  0  0
  -27.6047  -32.4332   25.7424 C   0  0  0  0  0  0
  -27.5615  -37.1756   24.8474 C   0  0  0  0  0  0
  -21.4151  -29.3064   22.3572 N   0  0  0  0  0  0
  -26.4285  -37.3788   23.9488 N   0  0  0  0  0  0
  -24.6781  -31.0684   22.0956 N   0  0  0  0  0  0
  -23.4161  -28.8174   23.2928 O   0  0  0  0  0  0
  -28.4789  -26.7079   20.1358 O   0  0  0  0  0  0
  -26.5571  -34.8902   22.4786 O   0  0  0  0  0  0
  -23.5330  -32.1358   23.7375 O   0  0  0  0  0  0
  -29.6678  -23.8739   20.8727 C   0  0  0  0  0  0
  -27.9768  -23.1619   19.3023 C   0  0  0  0  0  0
  -28.7635  -24.2011   19.8441 C   0  0  0  0  0  0
  -29.7845  -22.5500   21.3637 C   0  0  0  0  0  0
  -28.0732  -21.8304   19.7839 C   0  0  0  0  0  0
  -28.9863  -21.4969   20.8268 C   0  0  0  0  0  0
  -32.0612  -16.4211   23.6704 C   0  0  0  0  0  0
  -31.2709  -17.6847   23.8889 C   0  0  0  0  0  0
  -29.7065  -16.6141   19.7472 C   0  0  0  0  0  0
  -30.7043  -16.5818   23.0211 C   0  0  0  0  0  0
  -30.6264  -16.7890   21.5232 C   0  0  2  0  0  0
  -29.5131  -17.6218   20.8838 C   0  0  1  0  0  0
  -30.7798  -22.3089   22.4869 C   0  0  0  0  0  0
  -27.1743  -20.7775   19.1464 C   0  0  0  0  0  0
  -29.0470  -20.0549   21.4058 C   0  0  0  0  0  0
  -28.7589  -25.6143   19.2366 C   0  0  0  0  0  0
  -30.0079  -15.6301   20.8216 N   0  0  0  0  0  0
  -29.8046  -19.0647   20.5867 N   0  3  0  0  0  0
  -31.4610  -12.4121   19.1240 H   0  0  0  0  0  0
  -30.3285  -11.3271   19.8788 H   0  0  0  0  0  0
  -29.7309  -11.7220   17.4649 H   0  0  0  0  0  0
  -29.6526  -13.4483   17.7444 H   0  0  0  0  0  0
  -27.8391  -11.2921   18.8751 H   0  0  0  0  0  0
  -27.3572  -12.5796   17.8015 H   0  0  0  0  0  0
  -27.6781  -14.2549   19.5317 H   0  0  0  0  0  0
  -28.6865  -12.0607   21.4091 H   0  0  0  0  0  0
  -28.4818  -13.7469   21.8221 H   0  0  0  0  0  0
  -25.2740   -9.5678   22.4775 H   0  0  0  0  0  0
  -23.9975   -7.4641   22.7471 H   0  0  0  0  0  0
  -21.0851   -8.8761   19.8948 H   0  0  0  0  0  0
  -22.3687  -10.9666   19.6160 H   0  0  0  0  0  0
  -21.1993   -7.6133   23.9726 H   0  0  0  0  0  0
  -21.1480   -6.0482   25.9061 H   0  0  0  0  0  0
  -22.0594   -2.7621   23.2797 H   0  0  0  0  0  0
  -22.4093  -11.9881   22.4806 H   0  0  0  0  0  0
  -21.1094  -13.1212   22.2606 H   0  0  0  0  0  0
  -24.6729  -15.8551   20.5349 H   0  0  0  0  0  0
  -26.2988  -15.6276   20.1351 H   0  0  0  0  0  0
  -26.7090  -32.5543   23.1187 H   0  0  0  0  0  0
  -25.0050  -33.9722   25.0587 H   0  0  0  0  0  0
  -22.7176  -31.2980   21.3802 H   0  0  0  0  0  0
  -23.3792  -35.9540   23.3216 H   0  0  0  0  0  0
  -24.3623  -36.8965   22.2094 H   0  0  0  0  0  0
  -23.7158  -37.6422   23.6707 H   0  0  0  0  0  0
  -26.0962  -31.5741   20.6117 H   0  0  0  0  0  0
  -26.8221  -30.8564   22.0159 H   0  0  0  0  0  0
  -28.1188  -29.0712   21.1989 H   0  0  0  0  0  0
  -26.0965  -25.9256   19.0513 H   0  0  0  0  0  0
  -24.0428  -27.2617   19.0110 H   0  0  0  0  0  0
  -23.7563  -30.5735   19.3928 H   0  0  0  0  0  0
  -22.7727  -29.2155   19.8558 H   0  0  0  0  0  0
  -25.1234  -36.2010   25.0894 H   0  0  0  0  0  0
  -21.0046  -28.3358   24.1288 H   0  0  0  0  0  0
  -20.5639  -26.2344   23.3581 H   0  0  0  0  0  0
  -21.6641  -26.7401   22.1180 H   0  0  0  0  0  0
  -19.6925  -25.6312   21.1154 H   0  0  0  0  0  0
  -19.6675  -27.3194   20.6684 H   0  0  0  0  0  0
  -17.4196  -26.6639   21.3987 H   0  0  0  0  0  0
  -18.0345  -26.0013   22.8959 H   0  0  0  0  0  0
  -19.7970  -30.7176   24.2330 H   0  0  0  0  0  0
  -17.5064  -31.6250   24.5159 H   0  0  0  0  0  0
  -15.5385  -30.2984   23.7645 H   0  0  0  0  0  0
  -15.8668  -28.0804   22.7083 H   0  0  0  0  0  0
  -24.5986  -30.6851   25.7846 H   0  0  0  0  0  0
  -24.8942  -32.2531   26.5194 H   0  0  0  0  0  0
  -25.8216  -30.8531   27.0167 H   0  0  0  0  0  0
  -26.2916  -29.6642   24.1340 H   0  0  0  0  0  0
  -27.4444  -29.7397   25.4513 H   0  0  0  0  0  0
  -27.8623  -30.4396   23.9072 H   0  0  0  0  0  0
  -27.2691  -33.3688   26.1921 H   0  0  0  0  0  0
  -28.3794  -32.6838   25.0166 H   0  0  0  0  0  0
  -28.0781  -31.8543   26.5368 H   0  0  0  0  0  0
  -28.2531  -38.0157   24.7719 H   0  0  0  0  0  0
  -28.1235  -36.2709   24.6077 H   0  0  0  0  0  0
  -27.2355  -37.1131   25.8870 H   0  0  0  0  0  0
  -20.9338  -29.8825   21.6808 H   0  0  0  0  0  0
  -26.0191  -38.2872   24.1518 H   0  0  0  0  0  0
  -30.3011  -24.6540   21.2723 H   0  0  0  0  0  0
  -27.3058  -23.3800   18.4846 H   0  0  0  0  0  0
  -32.1480  -15.7241   24.4999 H   0  0  0  0  0  0
  -32.9376  -16.4813   23.0240 H   0  0  0  0  0  0
  -31.6335  -18.5871   23.3996 H   0  0  0  0  0  0
  -30.8379  -17.8373   24.8759 H   0  0  0  0  0  0
  -30.5439  -16.8391   19.0773 H   0  0  0  0  0  0
  -28.8000  -16.4196   19.1723 H   0  0  0  0  0  0
  -29.8888  -15.9973   23.4525 H   0  0  0  0  0  0
  -31.6113  -17.0509   21.1194 H   0  0  0  0  0  0
  -28.5427  -17.4826   21.3693 H   0  0  0  0  0  0
  -31.4628  -23.1540   22.5901 H   0  0  0  0  0  0
  -31.3869  -21.4249   22.3004 H   0  0  0  0  0  0
  -30.2525  -22.1911   23.4342 H   0  0  0  0  0  0
  -26.4562  -21.2274   18.4566 H   0  0  0  0  0  0
  -26.5943  -20.2350   19.8954 H   0  0  0  0  0  0
  -27.7624  -20.0633   18.5700 H   0  0  0  0  0  0
  -28.0250  -19.7047   21.5430 H   0  0  0  0  0  0
  -29.4607  -20.0557   22.4132 H   0  0  0  0  0  0
  -28.1828  -25.6557   18.3131 H   0  0  0  0  0  0
  -29.7910  -25.7744   18.9177 H   0  0  0  0  0  0
  -29.5874  -19.2404   19.6225 H   0  0  0  0  0  0
  -30.7881  -19.2456   20.7000 H   0  0  0  0  0  0
  1 25  1  0  0  0
  1 30  2  0  0  0
  1 87  1  0  0  0
  2  3  1  0  0  0
  2 25  1  0  0  0
  2 89  1  0  0  0
  2 90  1  0  0  0
  3  4  1  0  0  0
  3 91  1  0  0  0
  3 92  1  0  0  0
  4  5  1  0  0  0
  4 93  1  0  0  0
  4 94  1  0  0  0
  5  6  1  0  0  0
  5 26  1  0  0  0
  5 95  1  0  0  0
  6 25  1  0  0  0
  6 96  1  0  0  0
  6 97  1  0  0  0
  7  8  2  0  0  0
  7 26  1  0  0  0
  7 29  1  0  0  0
  8  9  1  0  0  0
  8 22  1  0  0  0
  9 10  1  0  0  0
  9 27  2  0  0  0
 10 11  2  0  0  0
 10 15  1  0  0  0
 11 12  1  0  0  0
 11 98  1  0  0  0
 12 13  2  0  0  0
 12 99  1  0  0  0
 13 14  1  0  0  0
 13 31  1  0  0  0
 14 15  2  0  0  0
 14100  1  0  0  0
 15101  1  0  0  0
 16 17  2  0  0  0
 16 21  1  0  0  0
 16 31  1  0  0  0
 17 18  1  0  0  0
 17102  1  0  0  0
 18 19  2  0  0  0
 18103  1  0  0  0
 19 20  1  0  0  0
 19 24  1  0  0  0
 20 21  2  0  0  0
 20104  1  0  0  0
 21 23  1  0  0  0
 22 28  1  0  0  0
 22 32  2  0  0  0
 26 27  1  0  0  0
 28105  1  0  0  0
 28106  1  0  0  0
 29107  1  0  0  0
 29108  1  0  0  0
 33 34  1  0  0  0
 33 66  1  0  0  0
 33 70  2  0  0  0
 34 36  1  0  0  0
 34 59  1  0  0  0
 34109  1  0  0  0
 35 44  2  0  0  0
 35 45  1  0  0  0
 35 68  1  0  0  0
 36 56  1  0  0  0
 36110  1  0  0  0
 37 39  1  0  0  0
 37 47  1  0  0  0
 37 66  1  0  0  0
 37111  1  0  0  0
 38 43  2  0  0  0
 38 46  1  0  0  0
 38 47  1  0  0  0
 39 64  1  0  0  0
 39 67  2  0  0  0
 40 52  1  0  0  0
 40 53  2  0  0  0
 40 58  1  0  0  0
 41112  1  0  0  0
 41113  1  0  0  0
 41114  1  0  0  0
 41 48  1  0  0  0
 42 43  1  0  0  0
 42 66  1  0  0  0
 42115  1  0  0  0
 42116  1  0  0  0
 43 44  1  0  0  0
 44117  1  0  0  0
 45 46  2  0  0  0
 45118  1  0  0  0
 46119  1  0  0  0
 47120  1  0  0  0
 47121  1  0  0  0
 48 56  1  0  0  0
 48 65  1  0  0  0
 48122  1  0  0  0
 49 50  1  0  0  0
 49 53  1  0  0  0
 49 64  1  0  0  0
 49123  1  0  0  0
 50 51  1  0  0  0
 50124  1  0  0  0
 50125  1  0  0  0
 51 52  1  0  0  0
 51126  1  0  0  0
 51127  1  0  0  0
 52128  1  0  0  0
 52129  1  0  0  0
 53 54  1  0  0  0
 54 55  2  0  0  0
 54130  1  0  0  0
 55 57  1  0  0  0
 55131  1  0  0  0
 56 69  2  0  0  0
 57 58  2  0  0  0
 57132  1  0  0  0
 58133  1  0  0  0
 59 60  1  0  0  0
 59 61  1  0  0  0
 59 62  1  0  0  0
 60134  1  0  0  0
 60135  1  0  0  0
 60136  1  0  0  0
 61137  1  0  0  0
 61138  1  0  0  0
 61139  1  0  0  0
 62140  1  0  0  0
 62141  1  0  0  0
 62142  1  0  0  0
 63 65  1  0  0  0
 63143  1  0  0  0
 63144  1  0  0  0
 63145  1  0  0  0
 64146  1  0  0  0
 65147  1  0  0  0
 68 86  1  0  0  0
 71 73  2  0  0  0
 71 74  1  0  0  0
 71148  1  0  0  0
 72 73  1  0  0  0
 72 75  2  0  0  0
 72149  1  0  0  0
 73 86  1  0  0  0
 74 76  2  0  0  0
 74 83  1  0  0  0
 75 76  1  0  0  0
 75 84  1  0  0  0
 76 85  1  0  0  0
 77 78  1  0  0  0
 77150  1  0  0  0
 77151  1  0  0  0
 77 80  1  0  0  0
 78 80  1  0  0  0
 78152  1  0  0  0
 78153  1  0  0  0
 79 82  1  0  0  0
 79 87  1  0  0  0
 79154  1  0  0  0
 79155  1  0  0  0
 80 81  1  0  0  0
 80156  1  0  0  0
 81 82  1  0  0  0
 81 87  1  0  0  0
 81157  1  0  0  0
 82 88  1  0  0  0
 82158  1  0  0  0
 83159  1  0  0  0
 83160  1  0  0  0
 83161  1  0  0  0
 84162  1  0  0  0
 84163  1  0  0  0
 84164  1  0  0  0
 85 88  1  0  0  0
 85165  1  0  0  0
 85166  1  0  0  0
 86167  1  0  0  0
 86168  1  0  0  0
 88169  1  0  0  0
 88170  1  0  0  0
M  CHG  1  88   1
M  ISO  4   1 100  68 101  86 101  87 100
M  END
> <chiral flag>
0

> <version>
0

> <s_m_source_file>
/data/baiqing/PycharmProjects/Reinvent-master-3.2/result/LINK_invent/BTK/process_docking_weight1_custom_sum_contain_oxygen_bond_distance_aromatic_linkinvent_7_9_3/rearranged_h_0136.sdf

> <i_m_source_file_index>
10

> <r_mmod_Potential_Energy-OPLS-2005>
-67.3340835571289

> <r_mmod_Stretch_Energy-OPLS-2005>
49.516242980957

> <r_mmod_Bend_Energy-OPLS-2005>
133.069091796875

> <r_mmod_Torsional_Energy-OPLS-2005>
320.064239501953

> <r_mmod_Improper_Torsional_Energy-OPLS-2005>
13.7092485427856

> <r_mmod_Van_der_Waal_Energy-OPLS-2005>
141.818954467773

> <r_mmod_Electrostatic_Energy-OPLS-2005>
-285.720794677734

> <r_mmod_Solvation_Energy-OPLS-2005>
-463.388580322266

> <b_mmod_Minimization_Converged-OPLS-2005>
0

> <r_mmod_RMS_Derivative-OPLS-2005>
5.33359289169312

$$$$
10
                    3D
 Structure written by MMmdl.
161170  0  0  1  0            999 V2000
  -30.7226  -14.4945   20.5614 C   0  0  0  0  0  0
  -30.4162  -12.3226   19.4238 C   0  0  0  0  0  0
  -29.4901  -12.4998   18.2053 C   0  0  0  0  0  0
  -28.0132  -12.3596   18.6210 C   0  0  0  0  0  0
  -27.6572  -13.2137   19.8680 C   0  0  2  0  0  0
  -28.7016  -13.0306   20.9915 C   0  0  0  0  0  0
  -25.2568  -13.8166   20.5670 C   0  0  0  0  0  0
  -24.1829  -13.0447   20.9176 C   0  0  0  0  0  0
  -24.6390  -11.6910   20.8733 C   0  0  0  0  0  0
  -23.9061  -10.4295   21.0405 C   0  0  0  0  0  0
  -24.3619   -9.4209   21.9181 C   0  0  0  0  0  0
  -23.6294   -8.2245   22.0753 C   0  0  0  0  0  0
  -22.4278   -8.0284   21.3541 C   0  0  0  0  0  0
  -21.9910   -9.0257   20.4644 C   0  0  0  0  0  0
  -22.7236  -10.2136   20.3053 C   0  0  0  0  0  0
  -21.6851   -6.0743   22.5278 C   0  0  0  0  0  0
  -21.4013   -6.5642   23.8217 C   0  0  0  0  0  0
  -21.3655   -5.6795   24.9172 C   0  0  0  0  0  0
  -21.6042   -4.3059   24.7225 C   0  0  0  0  0  0
  -21.8819   -3.8154   23.4343 C   0  0  0  0  0  0
  -21.9193   -4.6968   22.3403 C   0  0  0  0  0  0
  -22.7847  -13.5237   21.1848 C   0  0  0  0  0  0
  -22.1661   -4.2156   21.0980 F   0  0  0  0  0  0
  -21.5628   -3.4543   25.7736 F   0  0  0  0  0  0
  -30.0282  -13.3294   20.4270 N   0  0  0  0  0  0
  -26.3012  -12.9351   20.3339 N   0  0  0  0  0  0
  -25.9323  -11.6506   20.5774 N   0  0  0  0  0  0
  -22.0497  -12.8233   22.0404 N   0  0  0  0  0  0
  -25.4294  -15.1890   20.4049 N   0  0  0  0  0  0
  -31.8539  -14.6455   20.0964 O   0  0  0  0  0  0
  -21.6635   -6.8882   21.4242 O   0  0  0  0  0  0
  -22.3531  -14.5551   20.6704 O   0  0  0  0  0  0
  -24.6129  -31.8673   23.2047 C   0  0  0  0  0  0
  -25.9011  -32.4823   23.8369 C   0  0  1  0  0  0
  -27.2506  -27.4300   20.1029 C   0  0  0  0  0  0
  -25.5870  -33.8617   24.2301 N   0  0  0  0  0  0
  -23.4022  -30.4878   21.5447 C   0  0  2  0  0  0
  -24.8519  -28.9452   20.1205 C   0  0  0  0  0  0
  -22.7406  -29.4642   22.4964 C   0  0  0  0  0  0
  -18.0264  -28.1402   22.8482 C   0  0  0  0  0  0
  -24.1477  -36.7312   23.2645 C   0  0  0  0  0  0
  -25.9298  -30.8344   21.3543 C   0  0  0  0  0  0
  -26.0088  -29.4626   20.7119 C   0  0  0  0  0  0
  -27.2069  -28.7131   20.6961 C   0  0  0  0  0  0
  -26.0711  -26.9234   19.5093 C   0  0  0  0  0  0
  -24.8785  -27.6748   19.5168 C   0  0  0  0  0  0
  -23.6121  -29.8106   20.1628 C   0  0  0  0  0  0
  -25.4103  -36.3108   24.0343 C   0  0  1  0  0  0
  -20.5864  -28.3664   23.1327 C   0  0  2  0  0  0
  -20.6749  -26.9398   22.5429 C   0  0  0  0  0  0
  -19.5730  -26.6402   21.5221 C   0  0  0  0  0  0
  -18.1909  -26.7941   22.1629 C   0  0  0  0  0  0
  -19.1524  -28.8839   23.2895 C   0  0  0  0  0  0
  -18.9462  -30.1448   23.8907 C   0  0  0  0  0  0
  -17.6466  -30.6602   24.0563 C   0  0  0  0  0  0
  -25.9036  -34.9481   23.5121 C   0  0  0  0  0  0
  -16.5349  -29.9118   23.6335 C   0  0  0  0  0  0
  -16.7254  -28.6544   23.0335 C   0  0  0  0  0  0
  -26.4431  -31.6599   25.0701 C   0  0  0  0  0  0
  -25.3683  -31.3729   26.1458 C   0  0  0  0  0  0
  -27.0244  -30.3048   24.6052 C   0  0  0  0  0  0
  -27.6017  -32.4306   25.7462 C   0  0  0  0  0  0
  -27.5565  -37.1804   24.8468 C   0  0  0  0  0  0
  -21.4130  -29.3018   22.3713 N   0  0  0  0  0  0
  -26.4279  -37.3803   23.9421 N   0  0  0  0  0  0
  -24.6664  -31.0784   22.0938 N   0  0  0  0  0  0
  -23.4183  -28.8188   23.3003 O   0  0  0  0  0  0
  -28.4633  -26.7642   20.0838 O   0  0  0  0  0  0
  -26.5613  -34.8937   22.4694 O   0  0  0  0  0  0
  -23.5328  -32.1415   23.7458 O   0  0  0  0  0  0
  -30.4764  -22.8302   22.1847 C   0  0  0  0  0  0
  -28.7379  -22.3217   20.5860 C   0  0  0  0  0  0
  -30.9245  -21.4909   22.1154 C   0  0  0  0  0  0
  -29.1838  -20.9746   20.5197 C   0  0  0  0  0  0
  -29.3671  -23.2810   21.4224 C   0  0  0  0  0  0
  -30.2799  -20.5361   21.3003 C   0  0  0  0  0  0
  -28.5962  -25.2508   23.6366 C   0  0  0  0  0  0
  -27.6330  -24.8348   22.5230 C   0  0  0  0  0  0
  -29.5290  -25.7177   22.5219 C   0  0  0  0  0  0
  -28.8189  -24.7430   21.5331 C   0  0  0  0  0  0
  -28.5540  -25.3244   20.1139 C   0  0  0  0  0  0
  -30.6875  -16.8418   21.4744 C   0  0  0  0  0  0
  -30.0371  -18.1150   20.8517 C   0  0  0  0  0  0
  -30.0779  -15.5327   21.1344 N   0  0  0  0  0  0
  -30.7882  -19.2445   21.3315 O   0  0  0  0  0  0
  -31.4605  -12.4092   19.1204 H   0  0  0  0  0  0
  -30.3121  -11.3194   19.8408 H   0  0  0  0  0  0
  -29.7317  -11.7638   17.4368 H   0  0  0  0  0  0
  -29.6548  -13.4792   17.7540 H   0  0  0  0  0  0
  -27.8282  -11.3053   18.8288 H   0  0  0  0  0  0
  -27.3603  -12.6211   17.7870 H   0  0  0  0  0  0
  -27.6916  -14.2574   19.5535 H   0  0  0  0  0  0
  -28.6823  -12.0054   21.3655 H   0  0  0  0  0  0
  -28.4635  -13.6616   21.8491 H   0  0  0  0  0  0
  -25.2773   -9.5684   22.4744 H   0  0  0  0  0  0
  -24.0008   -7.4636   22.7468 H   0  0  0  0  0  0
  -21.0844   -8.8771   19.8950 H   0  0  0  0  0  0
  -22.3698  -10.9671   19.6157 H   0  0  0  0  0  0
  -21.2003   -7.6154   23.9718 H   0  0  0  0  0  0
  -21.1474   -6.0526   25.9075 H   0  0  0  0  0  0
  -22.0603   -2.7618   23.2841 H   0  0  0  0  0  0
  -22.4122  -11.9901   22.4802 H   0  0  0  0  0  0
  -21.1112  -13.1237   22.2616 H   0  0  0  0  0  0
  -24.6618  -15.8454   20.4975 H   0  0  0  0  0  0
  -26.2862  -15.6232   20.0857 H   0  0  0  0  0  0
  -26.7072  -32.5556   23.1131 H   0  0  0  0  0  0
  -24.9949  -33.9767   25.0396 H   0  0  0  0  0  0
  -22.6911  -31.3023   21.3993 H   0  0  0  0  0  0
  -23.3736  -35.9643   23.3330 H   0  0  0  0  0  0
  -24.3548  -36.8916   22.2051 H   0  0  0  0  0  0
  -23.7238  -37.6525   23.6650 H   0  0  0  0  0  0
  -26.0332  -31.5930   20.5767 H   0  0  0  0  0  0
  -26.8223  -30.8999   21.9652 H   0  0  0  0  0  0
  -28.1048  -29.1181   21.1404 H   0  0  0  0  0  0
  -26.0596  -25.9663   19.0113 H   0  0  0  0  0  0
  -23.9901  -27.2706   19.0502 H   0  0  0  0  0  0
  -23.7157  -30.5803   19.3992 H   0  0  0  0  0  0
  -22.7391  -29.2230   19.8701 H   0  0  0  0  0  0
  -25.1274  -36.1955   25.0831 H   0  0  0  0  0  0
  -20.9942  -28.3224   24.1446 H   0  0  0  0  0  0
  -20.5648  -26.2247   23.3605 H   0  0  0  0  0  0
  -21.6617  -26.7425   22.1217 H   0  0  0  0  0  0
  -19.6884  -25.6322   21.1223 H   0  0  0  0  0  0
  -19.6699  -27.3224   20.6773 H   0  0  0  0  0  0
  -17.4173  -26.6680   21.4043 H   0  0  0  0  0  0
  -18.0309  -26.0115   22.9056 H   0  0  0  0  0  0
  -19.7941  -30.7258   24.2278 H   0  0  0  0  0  0
  -17.5041  -31.6284   24.5162 H   0  0  0  0  0  0
  -15.5356  -30.3030   23.7679 H   0  0  0  0  0  0
  -15.8651  -28.0886   22.7028 H   0  0  0  0  0  0
  -24.5842  -30.7097   25.7785 H   0  0  0  0  0  0
  -24.8893  -32.2896   26.4903 H   0  0  0  0  0  0
  -25.8030  -30.8890   27.0211 H   0  0  0  0  0  0
  -26.2778  -29.6851   24.1074 H   0  0  0  0  0  0
  -27.3993  -29.7242   25.4485 H   0  0  0  0  0  0
  -27.8611  -30.4373   23.9193 H   0  0  0  0  0  0
  -27.2642  -33.3603   26.2046 H   0  0  0  0  0  0
  -28.3816  -32.6859   25.0276 H   0  0  0  0  0  0
  -28.0675  -31.8412   26.5373 H   0  0  0  0  0  0
  -28.2586  -38.0087   24.7499 H   0  0  0  0  0  0
  -28.1043  -36.2626   24.6301 H   0  0  0  0  0  0
  -27.2278  -37.1466   25.8864 H   0  0  0  0  0  0
  -20.9284  -29.8758   21.6950 H   0  0  0  0  0  0
  -26.0173  -38.2873   24.1448 H   0  0  0  0  0  0
  -30.9995  -23.4914   22.8590 H   0  0  0  0  0  0
  -27.8877  -22.6120   19.9866 H   0  0  0  0  0  0
  -31.7712  -21.1878   22.7177 H   0  0  0  0  0  0
  -28.6752  -20.2870   19.8566 H   0  0  0  0  0  0
  -28.9929  -24.4089   24.2056 H   0  0  0  0  0  0
  -28.2239  -26.0422   24.2900 H   0  0  0  0  0  0
  -26.9339  -25.6367   22.2792 H   0  0  0  0  0  0
  -27.0994  -23.8999   22.6971 H   0  0  0  0  0  0
  -30.5955  -25.5731   22.6894 H   0  0  0  0  0  0
  -29.3421  -26.7725   22.3125 H   0  0  0  0  0  0
  -27.6968  -24.8400   19.6557 H   0  0  0  0  0  0
  -29.3983  -25.0795   19.4676 H   0  0  0  0  0  0
  -30.6541  -16.9366   22.5592 H   0  0  0  0  0  0
  -31.7491  -16.8473   21.2225 H   0  0  0  0  0  0
  -28.9899  -18.1941   21.1451 H   0  0  0  0  0  0
  -30.0826  -18.0764   19.7621 H   0  0  0  0  0  0
  -29.1357  -15.3615   21.4533 H   0  0  0  0  0  0
  1 25  1  0  0  0
  1 30  2  0  0  0
  1 84  1  0  0  0
  2  3  1  0  0  0
  2 25  1  0  0  0
  2 86  1  0  0  0
  2 87  1  0  0  0
  3  4  1  0  0  0
  3 88  1  0  0  0
  3 89  1  0  0  0
  4  5  1  0  0  0
  4 90  1  0  0  0
  4 91  1  0  0  0
  5  6  1  0  0  0
  5 26  1  0  0  0
  5 92  1  0  0  0
  6 25  1  0  0  0
  6 93  1  0  0  0
  6 94  1  0  0  0
  7  8  2  0  0  0
  7 26  1  0  0  0
  7 29  1  0  0  0
  8  9  1  0  0  0
  8 22  1  0  0  0
  9 10  1  0  0  0
  9 27  2  0  0  0
 10 11  2  0  0  0
 10 15  1  0  0  0
 11 12  1  0  0  0
 11 95  1  0  0  0
 12 13  2  0  0  0
 12 96  1  0  0  0
 13 14  1  0  0  0
 13 31  1  0  0  0
 14 15  2  0  0  0
 14 97  1  0  0  0
 15 98  1  0  0  0
 16 17  2  0  0  0
 16 21  1  0  0  0
 16 31  1  0  0  0
 17 18  1  0  0  0
 17 99  1  0  0  0
 18 19  2  0  0  0
 18100  1  0  0  0
 19 20  1  0  0  0
 19 24  1  0  0  0
 20 21  2  0  0  0
 20101  1  0  0  0
 21 23  1  0  0  0
 22 28  1  0  0  0
 22 32  2  0  0  0
 26 27  1  0  0  0
 28102  1  0  0  0
 28103  1  0  0  0
 29104  1  0  0  0
 29105  1  0  0  0
 33 34  1  0  0  0
 33 66  1  0  0  0
 33 70  2  0  0  0
 34 36  1  0  0  0
 34 59  1  0  0  0
 34106  1  0  0  0
 35 44  2  0  0  0
 35 45  1  0  0  0
 35 68  1  0  0  0
 36 56  1  0  0  0
 36107  1  0  0  0
 37 39  1  0  0  0
 37 47  1  0  0  0
 37 66  1  0  0  0
 37108  1  0  0  0
 38 43  2  0  0  0
 38 46  1  0  0  0
 38 47  1  0  0  0
 39 64  1  0  0  0
 39 67  2  0  0  0
 40 52  1  0  0  0
 40 53  2  0  0  0
 40 58  1  0  0  0
 41109  1  0  0  0
 41110  1  0  0  0
 41111  1  0  0  0
 41 48  1  0  0  0
 42 43  1  0  0  0
 42 66  1  0  0  0
 42112  1  0  0  0
 42113  1  0  0  0
 43 44  1  0  0  0
 44114  1  0  0  0
 45 46  2  0  0  0
 45115  1  0  0  0
 46116  1  0  0  0
 47117  1  0  0  0
 47118  1  0  0  0
 48 56  1  0  0  0
 48 65  1  0  0  0
 48119  1  0  0  0
 49 50  1  0  0  0
 49 53  1  0  0  0
 49 64  1  0  0  0
 49120  1  0  0  0
 50 51  1  0  0  0
 50121  1  0  0  0
 50122  1  0  0  0
 51 52  1  0  0  0
 51123  1  0  0  0
 51124  1  0  0  0
 52125  1  0  0  0
 52126  1  0  0  0
 53 54  1  0  0  0
 54 55  2  0  0  0
 54127  1  0  0  0
 55 57  1  0  0  0
 55128  1  0  0  0
 56 69  2  0  0  0
 57 58  2  0  0  0
 57129  1  0  0  0
 58130  1  0  0  0
 59 60  1  0  0  0
 59 61  1  0  0  0
 59 62  1  0  0  0
 60131  1  0  0  0
 60132  1  0  0  0
 60133  1  0  0  0
 61134  1  0  0  0
 61135  1  0  0  0
 61136  1  0  0  0
 62137  1  0  0  0
 62138  1  0  0  0
 62139  1  0  0  0
 63 65  1  0  0  0
 63140  1  0  0  0
 63141  1  0  0  0
 63142  1  0  0  0
 64143  1  0  0  0
 65144  1  0  0  0
 68 81  1  0  0  0
 71 73  2  0  0  0
 71 75  1  0  0  0
 71145  1  0  0  0
 72 74  1  0  0  0
 72 75  2  0  0  0
 72146  1  0  0  0
 73 76  1  0  0  0
 73147  1  0  0  0
 74 76  2  0  0  0
 74148  1  0  0  0
 75 80  1  0  0  0
 76 85  1  0  0  0
 77 78  1  0  0  0
 77 79  1  0  0  0
 77149  1  0  0  0
 77150  1  0  0  0
 78 80  1  0  0  0
 78151  1  0  0  0
 78152  1  0  0  0
 79 80  1  0  0  0
 79153  1  0  0  0
 79154  1  0  0  0
 80 81  1  0  0  0
 81155  1  0  0  0
 81156  1  0  0  0
 82 83  1  0  0  0
 82 84  1  0  0  0
 82157  1  0  0  0
 82158  1  0  0  0
 83 85  1  0  0  0
 83159  1  0  0  0
 83160  1  0  0  0
 84161  1  0  0  0
M  ISO  4   1 100  68 101  81 101  84 100
M  END
> <chiral flag>
0

> <version>
0

> <s_m_source_file>
/data/baiqing/PycharmProjects/Reinvent-master-3.2/result/LINK_invent/BTK/process_docking_weight1_custom_sum_contain_oxygen_bond_distance_aromatic_linkinvent_7_9_3/rearranged_h_0136.sdf

> <i_m_source_file_index>
11

> <r_mmod_Potential_Energy-OPLS-2005>
-14.3679132461548

> <r_mmod_Stretch_Energy-OPLS-2005>
48.0189666748047

> <r_mmod_Bend_Energy-OPLS-2005>
146.063491821289

> <r_mmod_Torsional_Energy-OPLS-2005>
233.365997314453

> <r_mmod_Improper_Torsional_Energy-OPLS-2005>
2.79472661018372

> <r_mmod_Van_der_Waal_Energy-OPLS-2005>
153.452789306641

> <r_mmod_Electrostatic_Energy-OPLS-2005>
-405.874664306641

> <r_mmod_Solvation_Energy-OPLS-2005>
-207.304962158203

> <b_mmod_Minimization_Converged-OPLS-2005>
0

> <r_mmod_RMS_Derivative-OPLS-2005>
2.57983469963074

$$$$
11
                    3D
 Structure written by MMmdl.
170180  0  0  1  0            999 V2000
  -30.6193  -14.6266   20.5237 C   0  0  0  0  0  0
  -30.4344  -12.3915   19.4463 C   0  0  0  0  0  0
  -29.5029  -12.5012   18.2180 C   0  0  0  0  0  0
  -28.0234  -12.3500   18.6267 C   0  0  0  0  0  0
  -27.6509  -13.2113   19.8609 C   0  0  2  0  0  0
  -28.6958  -13.0544   20.9885 C   0  0  0  0  0  0
  -25.2538  -13.8170   20.5717 C   0  0  0  0  0  0
  -24.1811  -13.0420   20.9195 C   0  0  0  0  0  0
  -24.6341  -11.6885   20.8689 C   0  0  0  0  0  0
  -23.9027  -10.4260   21.0358 C   0  0  0  0  0  0
  -24.3574   -9.4190   21.9151 C   0  0  0  0  0  0
  -23.6268   -8.2210   22.0732 C   0  0  0  0  0  0
  -22.4241   -8.0249   21.3529 C   0  0  0  0  0  0
  -21.9860   -9.0204   20.4623 C   0  0  0  0  0  0
  -22.7182  -10.2083   20.3035 C   0  0  0  0  0  0
  -21.6846   -6.0706   22.5284 C   0  0  0  0  0  0
  -21.4006   -6.5623   23.8210 C   0  0  0  0  0  0
  -21.3668   -5.6773   24.9164 C   0  0  0  0  0  0
  -21.6066   -4.3036   24.7227 C   0  0  0  0  0  0
  -21.8821   -3.8136   23.4341 C   0  0  0  0  0  0
  -21.9191   -4.6945   22.3395 C   0  0  0  0  0  0
  -22.7829  -13.5242   21.1857 C   0  0  0  0  0  0
  -22.1660   -4.2131   21.0961 F   0  0  0  0  0  0
  -21.5644   -3.4527   25.7744 F   0  0  0  0  0  0
  -30.0063  -13.4063   20.4264 N   0  0  0  0  0  0
  -26.2968  -12.9339   20.3290 N   0  0  0  0  0  0
  -25.9264  -11.6491   20.5691 N   0  0  0  0  0  0
  -22.0452  -12.8234   22.0414 N   0  0  0  0  0  0
  -25.4259  -15.1911   20.4171 N   0  0  0  0  0  0
  -31.7834  -14.7953   20.1422 O   0  0  0  0  0  0
  -21.6627   -6.8842   21.4232 O   0  0  0  0  0  0
  -22.3546  -14.5551   20.6683 O   0  0  0  0  0  0
  -24.6247  -31.8636   23.2032 C   0  0  0  0  0  0
  -25.9131  -32.4780   23.8338 C   0  0  1  0  0  0
  -27.2186  -27.3216   20.1396 C   0  0  0  0  0  0
  -25.5988  -33.8579   24.2278 N   0  0  0  0  0  0
  -23.4171  -30.4863   21.5448 C   0  0  2  0  0  0
  -24.8638  -28.9329   20.1153 C   0  0  0  0  0  0
  -22.7480  -29.4637   22.4916 C   0  0  0  0  0  0
  -18.0307  -28.1368   22.8494 C   0  0  0  0  0  0
  -24.1494  -36.7279   23.2634 C   0  0  0  0  0  0
  -25.9556  -30.7939   21.3756 C   0  0  0  0  0  0
  -26.0270  -29.4200   20.7239 C   0  0  0  0  0  0
  -27.2082  -28.6228   20.7278 C   0  0  0  0  0  0
  -26.0392  -26.8837   19.5019 C   0  0  0  0  0  0
  -24.8703  -27.6730   19.4935 C   0  0  0  0  0  0
  -23.6350  -29.8197   20.1592 C   0  0  0  0  0  0
  -25.4125  -36.3062   24.0323 C   0  0  1  0  0  0
  -20.5922  -28.3659   23.1277 C   0  0  2  0  0  0
  -20.6767  -26.9383   22.5381 C   0  0  0  0  0  0
  -19.5748  -26.6398   21.5167 C   0  0  0  0  0  0
  -18.1948  -26.7919   22.1600 C   0  0  0  0  0  0
  -19.1574  -28.8820   23.2916 C   0  0  0  0  0  0
  -18.9496  -30.1413   23.8952 C   0  0  0  0  0  0
  -17.6500  -30.6558   24.0630 C   0  0  0  0  0  0
  -25.9075  -34.9437   23.5102 C   0  0  0  0  0  0
  -16.5386  -29.9088   23.6339 C   0  0  0  0  0  0
  -16.7305  -28.6521   23.0329 C   0  0  0  0  0  0
  -26.4534  -31.6577   25.0703 C   0  0  0  0  0  0
  -25.3763  -31.3730   26.1432 C   0  0  0  0  0  0
  -27.0378  -30.2998   24.6139 C   0  0  0  0  0  0
  -27.6079  -32.4326   25.7480 C   0  0  0  0  0  0
  -27.5588  -37.1798   24.8467 C   0  0  0  0  0  0
  -21.4196  -29.3025   22.3661 N   0  0  0  0  0  0
  -26.4295  -37.3767   23.9418 N   0  0  0  0  0  0
  -24.6843  -31.0656   22.0971 N   0  0  0  0  0  0
  -23.4216  -28.8190   23.2997 O   0  0  0  0  0  0
  -28.3518  -26.5045   20.1407 O   0  0  0  0  0  0
  -26.5589  -34.8914   22.4625 O   0  0  0  0  0  0
  -23.5429  -32.1419   23.7377 O   0  0  0  0  0  0
  -28.0229  -23.1153   21.8069 C   0  0  0  0  0  0
  -28.0101  -24.5287   21.6037 C   0  0  0  0  0  0
  -28.5829  -24.1866   19.2986 C   0  0  0  0  0  0
  -28.5944  -22.7624   19.4881 C   0  0  0  0  0  0
  -28.3091  -22.1916   20.7632 C   0  0  0  0  0  0
  -28.2828  -25.1070   20.3404 C   0  0  0  0  0  0
  -30.0799  -19.5765   14.9736 C   0  0  0  0  0  0
  -29.2389  -20.0502   13.8121 C   0  0  0  0  0  0
  -30.2088  -21.3149   17.9975 C   0  0  0  0  0  0
  -28.8353  -21.8375   18.3278 C   0  0  2  0  0  0
  -29.7874  -21.0512   14.8008 C   0  0  0  0  0  0
  -29.5000  -22.2472   17.0326 C   0  0  2  0  0  0
  -28.1190  -20.6352   20.9901 C   0  0  0  0  0  0
  -28.8484  -21.7844   15.7389 C   0  0  0  0  0  0
  -30.1786  -17.1567   20.9042 C   0  0  0  0  0  0
  -28.9671  -18.1972   20.8811 C   0  0  0  0  0  0
  -29.8307  -15.6874   20.8814 N   0  0  0  0  0  0
  -29.2979  -19.6841   20.9396 N   0  3  0  0  0  0
  -31.4727  -12.5271   19.1398 H   0  0  0  0  0  0
  -30.3764  -11.3944   19.8831 H   0  0  0  0  0  0
  -29.7570  -11.7441   17.4762 H   0  0  0  0  0  0
  -29.6499  -13.4684   17.7349 H   0  0  0  0  0  0
  -27.8485  -11.2958   18.8368 H   0  0  0  0  0  0
  -27.3730  -12.6020   17.7892 H   0  0  0  0  0  0
  -27.6748  -14.2465   19.5250 H   0  0  0  0  0  0
  -28.7130  -12.0275   21.3600 H   0  0  0  0  0  0
  -28.4427  -13.6802   21.8437 H   0  0  0  0  0  0
  -25.2682   -9.5701   22.4739 H   0  0  0  0  0  0
  -23.9996   -7.4615   22.7455 H   0  0  0  0  0  0
  -21.0795   -8.8707   19.8927 H   0  0  0  0  0  0
  -22.3630  -10.9601   19.6178 H   0  0  0  0  0  0
  -21.1991   -7.6125   23.9727 H   0  0  0  0  0  0
  -21.1503   -6.0473   25.9076 H   0  0  0  0  0  0
  -22.0590   -2.7599   23.2842 H   0  0  0  0  0  0
  -22.4065  -11.9925   22.4826 H   0  0  0  0  0  0
  -21.1063  -13.1254   22.2619 H   0  0  0  0  0  0
  -24.6527  -15.8386   20.5395 H   0  0  0  0  0  0
  -26.2576  -15.6256   20.0403 H   0  0  0  0  0  0
  -26.7206  -32.5472   23.1089 H   0  0  0  0  0  0
  -25.0202  -33.9710   25.0476 H   0  0  0  0  0  0
  -22.7081  -31.3065   21.4057 H   0  0  0  0  0  0
  -23.3765  -35.9613   23.3291 H   0  0  0  0  0  0
  -24.3567  -36.8880   22.2042 H   0  0  0  0  0  0
  -23.7238  -37.6479   23.6657 H   0  0  0  0  0  0
  -26.0867  -31.5548   20.6056 H   0  0  0  0  0  0
  -26.8371  -30.8446   22.0038 H   0  0  0  0  0  0
  -28.1065  -28.9917   21.2021 H   0  0  0  0  0  0
  -26.0154  -25.9155   19.0241 H   0  0  0  0  0  0
  -23.9770  -27.2966   19.0154 H   0  0  0  0  0  0
  -23.7649  -30.6012   19.4107 H   0  0  0  0  0  0
  -22.7505  -29.2598   19.8507 H   0  0  0  0  0  0
  -25.1301  -36.1901   25.0818 H   0  0  0  0  0  0
  -21.0067  -28.3219   24.1382 H   0  0  0  0  0  0
  -20.5651  -26.2239   23.3545 H   0  0  0  0  0  0
  -21.6634  -26.7374   22.1179 H   0  0  0  0  0  0
  -19.6896  -25.6334   21.1148 H   0  0  0  0  0  0
  -19.6716  -27.3258   20.6746 H   0  0  0  0  0  0
  -17.4242  -26.6757   21.3963 H   0  0  0  0  0  0
  -18.0338  -26.0011   22.8946 H   0  0  0  0  0  0
  -19.7969  -30.7236   24.2338 H   0  0  0  0  0  0
  -17.5072  -31.6215   24.5264 H   0  0  0  0  0  0
  -15.5393  -30.3020   23.7615 H   0  0  0  0  0  0
  -15.8727  -28.0864   22.6932 H   0  0  0  0  0  0
  -24.5920  -30.7110   25.7773 H   0  0  0  0  0  0
  -24.9001  -32.2900   26.4902 H   0  0  0  0  0  0
  -25.8071  -30.8873   27.0187 H   0  0  0  0  0  0
  -26.2934  -29.6739   24.1207 H   0  0  0  0  0  0
  -27.4125  -29.7277   25.4635 H   0  0  0  0  0  0
  -27.8794  -30.4303   23.9328 H   0  0  0  0  0  0
  -27.2669  -33.3617   26.2072 H   0  0  0  0  0  0
  -28.3870  -32.6897   25.0295 H   0  0  0  0  0  0
  -28.0774  -31.8449   26.5370 H   0  0  0  0  0  0
  -28.2601  -38.0100   24.7508 H   0  0  0  0  0  0
  -28.1066  -36.2616   24.6291 H   0  0  0  0  0  0
  -27.2289  -37.1444   25.8863 H   0  0  0  0  0  0
  -20.9347  -29.8782   21.6908 H   0  0  0  0  0  0
  -26.0160  -38.2841   24.1420 H   0  0  0  0  0  0
  -27.7682  -22.7387   22.7888 H   0  0  0  0  0  0
  -27.7822  -25.1760   22.4402 H   0  0  0  0  0  0
  -28.8037  -24.5954   18.3233 H   0  0  0  0  0  0
  -31.0914  -19.2379   14.7593 H   0  0  0  0  0  0
  -29.5703  -19.0436   15.7758 H   0  0  0  0  0  0
  -28.1766  -19.8187   13.8507 H   0  0  0  0  0  0
  -29.6801  -20.0360   12.8191 H   0  0  0  0  0  0
  -30.3135  -20.2732   17.7030 H   0  0  0  0  0  0
  -31.0546  -21.7343   18.5418 H   0  0  0  0  0  0
  -28.0147  -21.1302   18.2436 H   0  0  0  0  0  0
  -30.6162  -21.6627   14.4422 H   0  0  0  0  0  0
  -29.9681  -23.2297   16.9733 H   0  0  0  0  0  0
  -27.3711  -20.2932   20.2741 H   0  0  0  0  0  0
  -27.6354  -20.4895   21.9573 H   0  0  0  0  0  0
  -27.9951  -21.1432   15.9672 H   0  0  0  0  0  0
  -28.4421  -22.6567   15.2223 H   0  0  0  0  0  0
  -30.7639  -17.3269   21.8084 H   0  0  0  0  0  0
  -30.8420  -17.3692   20.0634 H   0  0  0  0  0  0
  -28.3062  -17.9806   21.7201 H   0  0  0  0  0  0
  -28.3756  -18.0203   19.9819 H   0  0  0  0  0  0
  -28.8886  -15.4448   21.1544 H   0  0  0  0  0  0
  -29.8527  -19.8622   21.7599 H   0  0  0  0  0  0
  -29.8583  -19.9294   20.1421 H   0  0  0  0  0  0
  1 25  1  0  0  0
  1 30  2  0  0  0
  1 87  1  0  0  0
  2  3  1  0  0  0
  2 25  1  0  0  0
  2 89  1  0  0  0
  2 90  1  0  0  0
  3  4  1  0  0  0
  3 91  1  0  0  0
  3 92  1  0  0  0
  4  5  1  0  0  0
  4 93  1  0  0  0
  4 94  1  0  0  0
  5  6  1  0  0  0
  5 26  1  0  0  0
  5 95  1  0  0  0
  6 25  1  0  0  0
  6 96  1  0  0  0
  6 97  1  0  0  0
  7  8  2  0  0  0
  7 26  1  0  0  0
  7 29  1  0  0  0
  8  9  1  0  0  0
  8 22  1  0  0  0
  9 10  1  0  0  0
  9 27  2  0  0  0
 10 11  2  0  0  0
 10 15  1  0  0  0
 11 12  1  0  0  0
 11 98  1  0  0  0
 12 13  2  0  0  0
 12 99  1  0  0  0
 13 14  1  0  0  0
 13 31  1  0  0  0
 14 15  2  0  0  0
 14100  1  0  0  0
 15101  1  0  0  0
 16 17  2  0  0  0
 16 21  1  0  0  0
 16 31  1  0  0  0
 17 18  1  0  0  0
 17102  1  0  0  0
 18 19  2  0  0  0
 18103  1  0  0  0
 19 20  1  0  0  0
 19 24  1  0  0  0
 20 21  2  0  0  0
 20104  1  0  0  0
 21 23  1  0  0  0
 22 28  1  0  0  0
 22 32  2  0  0  0
 26 27  1  0  0  0
 28105  1  0  0  0
 28106  1  0  0  0
 29107  1  0  0  0
 29108  1  0  0  0
 33 34  1  0  0  0
 33 66  1  0  0  0
 33 70  2  0  0  0
 34 36  1  0  0  0
 34 59  1  0  0  0
 34109  1  0  0  0
 35 44  2  0  0  0
 35 45  1  0  0  0
 35 68  1  0  0  0
 36 56  1  0  0  0
 36110  1  0  0  0
 37 39  1  0  0  0
 37 47  1  0  0  0
 37 66  1  0  0  0
 37111  1  0  0  0
 38 43  2  0  0  0
 38 46  1  0  0  0
 38 47  1  0  0  0
 39 64  1  0  0  0
 39 67  2  0  0  0
 40 52  1  0  0  0
 40 53  2  0  0  0
 40 58  1  0  0  0
 41112  1  0  0  0
 41113  1  0  0  0
 41114  1  0  0  0
 41 48  1  0  0  0
 42 43  1  0  0  0
 42 66  1  0  0  0
 42115  1  0  0  0
 42116  1  0  0  0
 43 44  1  0  0  0
 44117  1  0  0  0
 45 46  2  0  0  0
 45118  1  0  0  0
 46119  1  0  0  0
 47120  1  0  0  0
 47121  1  0  0  0
 48 56  1  0  0  0
 48 65  1  0  0  0
 48122  1  0  0  0
 49 50  1  0  0  0
 49 53  1  0  0  0
 49 64  1  0  0  0
 49123  1  0  0  0
 50 51  1  0  0  0
 50124  1  0  0  0
 50125  1  0  0  0
 51 52  1  0  0  0
 51126  1  0  0  0
 51127  1  0  0  0
 52128  1  0  0  0
 52129  1  0  0  0
 53 54  1  0  0  0
 54 55  2  0  0  0
 54130  1  0  0  0
 55 57  1  0  0  0
 55131  1  0  0  0
 56 69  2  0  0  0
 57 58  2  0  0  0
 57132  1  0  0  0
 58133  1  0  0  0
 59 60  1  0  0  0
 59 61  1  0  0  0
 59 62  1  0  0  0
 60134  1  0  0  0
 60135  1  0  0  0
 60136  1  0  0  0
 61137  1  0  0  0
 61138  1  0  0  0
 61139  1  0  0  0
 62140  1  0  0  0
 62141  1  0  0  0
 62142  1  0  0  0
 63 65  1  0  0  0
 63143  1  0  0  0
 63144  1  0  0  0
 63145  1  0  0  0
 64146  1  0  0  0
 65147  1  0  0  0
 68 76  1  0  0  0
 71 72  2  0  0  0
 71 75  1  0  0  0
 71148  1  0  0  0
 72 76  1  0  0  0
 72149  1  0  0  0
 73 74  1  0  0  0
 73 76  2  0  0  0
 73150  1  0  0  0
 74 75  2  0  0  0
 74 80  1  0  0  0
 75 83  1  0  0  0
 77 78  1  0  0  0
 77 81  1  0  0  0
 77151  1  0  0  0
 77152  1  0  0  0
 78 81  1  0  0  0
 78153  1  0  0  0
 78154  1  0  0  0
 79 80  1  0  0  0
 79 82  1  0  0  0
 79155  1  0  0  0
 79156  1  0  0  0
 80 82  1  0  0  0
 80157  1  0  0  0
 81 84  1  0  0  0
 81158  1  0  0  0
 82 84  1  0  0  0
 82159  1  0  0  0
 83 88  1  0  0  0
 83160  1  0  0  0
 83161  1  0  0  0
 84162  1  0  0  0
 84163  1  0  0  0
 85 86  1  0  0  0
 85 87  1  0  0  0
 85164  1  0  0  0
 85165  1  0  0  0
 86 88  1  0  0  0
 86166  1  0  0  0
 86167  1  0  0  0
 87168  1  0  0  0
 88169  1  0  0  0
 88170  1  0  0  0
M  CHG  1  88   1
M  ISO  4   1 100  68 101  76 101  87 100
M  END
> <chiral flag>
0

> <version>
0

> <s_m_source_file>
/data/baiqing/PycharmProjects/Reinvent-master-3.2/result/LINK_invent/BTK/process_docking_weight1_custom_sum_contain_oxygen_bond_distance_aromatic_linkinvent_7_9_3/rearranged_h_0136.sdf

> <i_m_source_file_index>
12

> <r_mmod_Potential_Energy-OPLS-2005>
-142.421142578125

> <r_mmod_Stretch_Energy-OPLS-2005>
76.3682250976562

> <r_mmod_Bend_Energy-OPLS-2005>
128.129211425781

> <r_mmod_Torsional_Energy-OPLS-2005>
278.884826660156

> <r_mmod_Improper_Torsional_Energy-OPLS-2005>
5.23571157455444

> <r_mmod_Van_der_Waal_Energy-OPLS-2005>
128.965560913086

> <r_mmod_Electrostatic_Energy-OPLS-2005>
-317.158142089844

> <r_mmod_Solvation_Energy-OPLS-2005>
-486.708038330078

> <b_mmod_Minimization_Converged-OPLS-2005>
0

> <r_mmod_RMS_Derivative-OPLS-2005>
5.06030368804932

$$$$
12
                    3D
 Structure written by MMmdl.
152160  0  0  1  0            999 V2000
  -30.6113  -14.7241   20.4797 C   0  0  0  0  0  0
  -30.4350  -12.4456   19.4703 C   0  0  0  0  0  0
  -29.5114  -12.4937   18.2326 C   0  0  0  0  0  0
  -28.0359  -12.3241   18.6466 C   0  0  0  0  0  0
  -27.6427  -13.2221   19.8490 C   0  0  2  0  0  0
  -28.6851  -13.1466   20.9858 C   0  0  0  0  0  0
  -25.2508  -13.8180   20.5660 C   0  0  0  0  0  0
  -24.1798  -13.0437   20.9250 C   0  0  0  0  0  0
  -24.6382  -11.6921   20.8760 C   0  0  0  0  0  0
  -23.9065  -10.4314   21.0426 C   0  0  0  0  0  0
  -24.3631   -9.4226   21.9188 C   0  0  0  0  0  0
  -23.6312   -8.2246   22.0749 C   0  0  0  0  0  0
  -22.4291   -8.0283   21.3539 C   0  0  0  0  0  0
  -21.9937   -9.0254   20.4647 C   0  0  0  0  0  0
  -22.7255  -10.2140   20.3064 C   0  0  0  0  0  0
  -21.6856   -6.0752   22.5284 C   0  0  0  0  0  0
  -21.4022   -6.5658   23.8219 C   0  0  0  0  0  0
  -21.3653   -5.6797   24.9177 C   0  0  0  0  0  0
  -21.6027   -4.3059   24.7219 C   0  0  0  0  0  0
  -21.8819   -3.8168   23.4344 C   0  0  0  0  0  0
  -21.9208   -4.6984   22.3409 C   0  0  0  0  0  0
  -22.7833  -13.5223   21.1899 C   0  0  0  0  0  0
  -22.1662   -4.2170   21.0978 F   0  0  0  0  0  0
  -21.5624   -3.4549   25.7741 F   0  0  0  0  0  0
  -29.9885  -13.4991   20.4093 N   0  0  0  0  0  0
  -26.2919  -12.9358   20.3222 N   0  0  0  0  0  0
  -25.9292  -11.6513   20.5705 N   0  0  0  0  0  0
  -22.0431  -12.8213   22.0438 N   0  0  0  0  0  0
  -25.4237  -15.1883   20.3922 N   0  0  0  0  0  0
  -31.7956  -14.8343   20.1499 O   0  0  0  0  0  0
  -21.6652   -6.8883   21.4237 O   0  0  0  0  0  0
  -22.3551  -14.5545   20.6777 O   0  0  0  0  0  0
  -24.6323  -31.8528   23.1922 C   0  0  0  0  0  0
  -25.9143  -32.4732   23.8262 C   0  0  1  0  0  0
  -27.2367  -27.2663   20.1428 C   0  0  0  0  0  0
  -25.5933  -33.8529   24.2194 N   0  0  0  0  0  0
  -23.4296  -30.4735   21.5295 C   0  0  2  0  0  0
  -24.8822  -28.9039   20.1205 C   0  0  0  0  0  0
  -22.7452  -29.4640   22.4802 C   0  0  0  0  0  0
  -18.0206  -28.1424   22.8456 C   0  0  0  0  0  0
  -24.1506  -36.7276   23.2638 C   0  0  0  0  0  0
  -25.9748  -30.7677   21.3715 C   0  0  0  0  0  0
  -26.0513  -29.3842   20.7240 C   0  0  0  0  0  0
  -27.2344  -28.5805   20.7166 C   0  0  0  0  0  0
  -26.0446  -26.8360   19.5267 C   0  0  0  0  0  0
  -24.8823  -27.6356   19.5126 C   0  0  0  0  0  0
  -23.6547  -29.7970   20.1507 C   0  0  0  0  0  0
  -25.4131  -36.3038   24.0312 C   0  0  1  0  0  0
  -20.5833  -28.3751   23.1155 C   0  0  2  0  0  0
  -20.6699  -26.9461   22.5275 C   0  0  0  0  0  0
  -19.5595  -26.6392   21.5140 C   0  0  0  0  0  0
  -18.1860  -26.7899   22.1724 C   0  0  0  0  0  0
  -19.1471  -28.8931   23.2773 C   0  0  0  0  0  0
  -18.9387  -30.1511   23.8850 C   0  0  0  0  0  0
  -17.6381  -30.6587   24.0604 C   0  0  0  0  0  0
  -25.9078  -34.9419   23.5061 C   0  0  0  0  0  0
  -16.5263  -29.9109   23.6375 C   0  0  0  0  0  0
  -16.7180  -28.6554   23.0340 C   0  0  0  0  0  0
  -26.4515  -31.6554   25.0648 C   0  0  0  0  0  0
  -25.3712  -31.3720   26.1343 C   0  0  0  0  0  0
  -27.0379  -30.2956   24.6174 C   0  0  0  0  0  0
  -27.6042  -32.4311   25.7440 C   0  0  0  0  0  0
  -27.5575  -37.1796   24.8461 C   0  0  0  0  0  0
  -21.4170  -29.3035   22.3494 N   0  0  0  0  0  0
  -26.4292  -37.3737   23.9398 N   0  0  0  0  0  0
  -24.6969  -31.0485   22.0893 N   0  0  0  0  0  0
  -23.4113  -28.8232   23.2966 O   0  0  0  0  0  0
  -28.3557  -26.4127   20.1165 O   0  0  0  0  0  0
  -26.5653  -34.8924   22.4634 O   0  0  0  0  0  0
  -23.5476  -32.1364   23.7218 O   0  0  0  0  0  0
  -27.4123  -20.6780   20.3800 C   0  0  0  0  0  0
  -29.7077  -19.9561   20.5734 C   0  0  0  0  0  0
  -27.0454  -19.3087   20.4120 C   0  0  0  0  0  0
  -28.7676  -21.0629   20.4726 C   0  0  0  0  0  0
  -29.3056  -18.5572   20.5909 C   0  0  0  0  0  0
  -30.2978  -17.3102   20.6997 C   0  0  0  0  0  0
  -28.4433  -23.6653   19.8943 C   0  0  0  0  0  0
  -28.3006  -25.0479   20.7351 C   0  0  0  0  0  0
  -27.9753  -18.3269   20.5202 N   0  3  0  0  0  0
  -29.1388  -22.4674   20.5293 N   0  0  0  0  0  0
  -29.8407  -15.8487   20.7230 N   0  0  0  0  0  0
  -31.4742  -12.5776   19.1646 H   0  0  0  0  0  0
  -30.3902  -11.4644   19.9464 H   0  0  0  0  0  0
  -29.7924  -11.7102   17.5259 H   0  0  0  0  0  0
  -29.6432  -13.4415   17.7085 H   0  0  0  0  0  0
  -27.8916  -11.2762   18.9086 H   0  0  0  0  0  0
  -27.3788  -12.5182   17.7979 H   0  0  0  0  0  0
  -27.6465  -14.2447   19.4687 H   0  0  0  0  0  0
  -28.7159  -12.1430   21.4151 H   0  0  0  0  0  0
  -28.4201  -13.8163   21.8047 H   0  0  0  0  0  0
  -25.2763   -9.5710   22.4775 H   0  0  0  0  0  0
  -24.0031   -7.4645   22.7480 H   0  0  0  0  0  0
  -21.0866   -8.8777   19.8958 H   0  0  0  0  0  0
  -22.3702  -10.9687   19.6191 H   0  0  0  0  0  0
  -21.2009   -7.6164   23.9724 H   0  0  0  0  0  0
  -21.1463   -6.0534   25.9076 H   0  0  0  0  0  0
  -22.0609   -2.7634   23.2840 H   0  0  0  0  0  0
  -22.4031  -11.9881   22.4851 H   0  0  0  0  0  0
  -21.1040  -13.1242   22.2605 H   0  0  0  0  0  0
  -24.5891  -15.7652   20.3814 H   0  0  0  0  0  0
  -26.1154  -15.5049   19.7272 H   0  0  0  0  0  0
  -26.7201  -32.5391   23.0995 H   0  0  0  0  0  0
  -25.0062  -33.9676   25.0329 H   0  0  0  0  0  0
  -22.7324  -31.2973   21.3739 H   0  0  0  0  0  0
  -23.3761  -35.9617   23.3309 H   0  0  0  0  0  0
  -24.3584  -36.8900   22.2046 H   0  0  0  0  0  0
  -23.7300  -37.6493   23.6682 H   0  0  0  0  0  0
  -26.1157  -31.5261   20.5984 H   0  0  0  0  0  0
  -26.8496  -30.8188   22.0070 H   0  0  0  0  0  0
  -28.1366  -28.9545   21.1796 H   0  0  0  0  0  0
  -26.0116  -25.8600   19.0606 H   0  0  0  0  0  0
  -23.9868  -27.2631   19.0374 H   0  0  0  0  0  0
  -23.8013  -30.5686   19.3936 H   0  0  0  0  0  0
  -22.7721  -29.2363   19.8349 H   0  0  0  0  0  0
  -25.1334  -36.1860   25.0804 H   0  0  0  0  0  0
  -20.9902  -28.3384   24.1282 H   0  0  0  0  0  0
  -20.5750  -26.2372   23.3505 H   0  0  0  0  0  0
  -21.6533  -26.7512   22.1017 H   0  0  0  0  0  0
  -19.6725  -25.6301   21.1117 H   0  0  0  0  0  0
  -19.6391  -27.3230   20.6667 H   0  0  0  0  0  0
  -17.3987  -26.6376   21.4329 H   0  0  0  0  0  0
  -18.0510  -26.0148   22.9290 H   0  0  0  0  0  0
  -19.7837  -30.7331   24.2295 H   0  0  0  0  0  0
  -17.4875  -31.6205   24.5320 H   0  0  0  0  0  0
  -15.5251  -30.2988   23.7739 H   0  0  0  0  0  0
  -15.8548  -28.0922   22.7017 H   0  0  0  0  0  0
  -24.5895  -30.7075   25.7648 H   0  0  0  0  0  0
  -24.8917  -32.2898   26.4735 H   0  0  0  0  0  0
  -25.7986  -30.8905   27.0129 H   0  0  0  0  0  0
  -26.2973  -29.6666   24.1230 H   0  0  0  0  0  0
  -27.4059  -29.7252   25.4708 H   0  0  0  0  0  0
  -27.8830  -30.4198   23.9406 H   0  0  0  0  0  0
  -27.2625  -33.3607   26.1990 H   0  0  0  0  0  0
  -28.3867  -32.6864   25.0288 H   0  0  0  0  0  0
  -28.0692  -31.8454   26.5382 H   0  0  0  0  0  0
  -28.2583  -38.0098   24.7470 H   0  0  0  0  0  0
  -28.1074  -36.2612   24.6331 H   0  0  0  0  0  0
  -27.2272  -37.1480   25.8859 H   0  0  0  0  0  0
  -20.9428  -29.8466   21.6397 H   0  0  0  0  0  0
  -26.0165  -38.2806   24.1392 H   0  0  0  0  0  0
  -26.6294  -21.4194   20.3264 H   0  0  0  0  0  0
  -30.7641  -20.1708   20.6414 H   0  0  0  0  0  0
  -26.0176  -18.9698   20.3684 H   0  0  0  0  0  0
  -30.8804  -17.4544   21.6115 H   0  0  0  0  0  0
  -31.0187  -17.4129   19.8882 H   0  0  0  0  0  0
  -29.0154  -23.8927   18.9952 H   0  0  0  0  0  0
  -27.4622  -23.3814   19.5124 H   0  0  0  0  0  0
  -29.1244  -25.0618   21.4501 H   0  0  0  0  0  0
  -27.4086  -24.9788   21.3620 H   0  0  0  0  0  0
  -27.6457  -17.3633   20.5541 H   0  0  0  0  0  0
  -30.1166  -22.6302   20.7514 H   0  0  0  0  0  0
  -28.8865  -15.6614   20.9795 H   0  0  0  0  0  0
  1 25  1  0  0  0
  1 30  2  0  0  0
  1 81  1  0  0  0
  2  3  1  0  0  0
  2 25  1  0  0  0
  2 82  1  0  0  0
  2 83  1  0  0  0
  3  4  1  0  0  0
  3 84  1  0  0  0
  3 85  1  0  0  0
  4  5  1  0  0  0
  4 86  1  0  0  0
  4 87  1  0  0  0
  5  6  1  0  0  0
  5 26  1  0  0  0
  5 88  1  0  0  0
  6 25  1  0  0  0
  6 89  1  0  0  0
  6 90  1  0  0  0
  7  8  2  0  0  0
  7 26  1  0  0  0
  7 29  1  0  0  0
  8  9  1  0  0  0
  8 22  1  0  0  0
  9 10  1  0  0  0
  9 27  2  0  0  0
 10 11  2  0  0  0
 10 15  1  0  0  0
 11 12  1  0  0  0
 11 91  1  0  0  0
 12 13  2  0  0  0
 12 92  1  0  0  0
 13 14  1  0  0  0
 13 31  1  0  0  0
 14 15  2  0  0  0
 14 93  1  0  0  0
 15 94  1  0  0  0
 16 17  2  0  0  0
 16 21  1  0  0  0
 16 31  1  0  0  0
 17 18  1  0  0  0
 17 95  1  0  0  0
 18 19  2  0  0  0
 18 96  1  0  0  0
 19 20  1  0  0  0
 19 24  1  0  0  0
 20 21  2  0  0  0
 20 97  1  0  0  0
 21 23  1  0  0  0
 22 28  1  0  0  0
 22 32  2  0  0  0
 26 27  1  0  0  0
 28 98  1  0  0  0
 28 99  1  0  0  0
 29100  1  0  0  0
 29101  1  0  0  0
 33 34  1  0  0  0
 33 66  1  0  0  0
 33 70  2  0  0  0
 34 36  1  0  0  0
 34 59  1  0  0  0
 34102  1  0  0  0
 35 44  2  0  0  0
 35 45  1  0  0  0
 35 68  1  0  0  0
 36 56  1  0  0  0
 36103  1  0  0  0
 37 39  1  0  0  0
 37 47  1  0  0  0
 37 66  1  0  0  0
 37104  1  0  0  0
 38 43  2  0  0  0
 38 46  1  0  0  0
 38 47  1  0  0  0
 39 64  1  0  0  0
 39 67  2  0  0  0
 40 52  1  0  0  0
 40 53  2  0  0  0
 40 58  1  0  0  0
 41105  1  0  0  0
 41106  1  0  0  0
 41107  1  0  0  0
 41 48  1  0  0  0
 42 43  1  0  0  0
 42 66  1  0  0  0
 42108  1  0  0  0
 42109  1  0  0  0
 43 44  1  0  0  0
 44110  1  0  0  0
 45 46  2  0  0  0
 45111  1  0  0  0
 46112  1  0  0  0
 47113  1  0  0  0
 47114  1  0  0  0
 48 56  1  0  0  0
 48 65  1  0  0  0
 48115  1  0  0  0
 49 50  1  0  0  0
 49 53  1  0  0  0
 49 64  1  0  0  0
 49116  1  0  0  0
 50 51  1  0  0  0
 50117  1  0  0  0
 50118  1  0  0  0
 51 52  1  0  0  0
 51119  1  0  0  0
 51120  1  0  0  0
 52121  1  0  0  0
 52122  1  0  0  0
 53 54  1  0  0  0
 54 55  2  0  0  0
 54123  1  0  0  0
 55 57  1  0  0  0
 55124  1  0  0  0
 56 69  2  0  0  0
 57 58  2  0  0  0
 57125  1  0  0  0
 58126  1  0  0  0
 59 60  1  0  0  0
 59 61  1  0  0  0
 59 62  1  0  0  0
 60127  1  0  0  0
 60128  1  0  0  0
 60129  1  0  0  0
 61130  1  0  0  0
 61131  1  0  0  0
 61132  1  0  0  0
 62133  1  0  0  0
 62134  1  0  0  0
 62135  1  0  0  0
 63 65  1  0  0  0
 63136  1  0  0  0
 63137  1  0  0  0
 63138  1  0  0  0
 64139  1  0  0  0
 65140  1  0  0  0
 68 78  1  0  0  0
 71 73  2  0  0  0
 71 74  1  0  0  0
 71141  1  0  0  0
 72 74  2  0  0  0
 72 75  1  0  0  0
 72142  1  0  0  0
 73 79  1  0  0  0
 73143  1  0  0  0
 74 80  1  0  0  0
 75 76  1  0  0  0
 75 79  2  0  0  0
 76 81  1  0  0  0
 76144  1  0  0  0
 76145  1  0  0  0
 77 78  1  0  0  0
 77 80  1  0  0  0
 77146  1  0  0  0
 77147  1  0  0  0
 78148  1  0  0  0
 78149  1  0  0  0
 79150  1  0  0  0
 80151  1  0  0  0
 81152  1  0  0  0
M  CHG  1  79   1
M  ISO  4   1 100  68 101  78 101  81 100
M  END
> <chiral flag>
0

> <version>
0

> <s_m_source_file>
/data/baiqing/PycharmProjects/Reinvent-master-3.2/result/LINK_invent/BTK/process_docking_weight1_custom_sum_contain_oxygen_bond_distance_aromatic_linkinvent_7_9_3/rearranged_h_0136.sdf

> <i_m_source_file_index>
13

> <r_mmod_Potential_Energy-OPLS-2005>
-67.8199996948242

> <r_mmod_Stretch_Energy-OPLS-2005>
117.101539611816

> <r_mmod_Bend_Energy-OPLS-2005>
169.457015991211

> <r_mmod_Torsional_Energy-OPLS-2005>
225.62158203125

> <r_mmod_Improper_Torsional_Energy-OPLS-2005>
9.16168022155762

> <r_mmod_Van_der_Waal_Energy-OPLS-2005>
132.005401611328

> <r_mmod_Electrostatic_Energy-OPLS-2005>
-337.103210449219

> <r_mmod_Solvation_Energy-OPLS-2005>
-459.933471679688

> <b_mmod_Minimization_Converged-OPLS-2005>
0

> <r_mmod_RMS_Derivative-OPLS-2005>
4.36213111877441

$$$$
13
                    3D
 Structure written by MMmdl.
154162  0  0  1  0            999 V2000
  -30.5659  -15.0224   20.4132 C   0  0  0  0  0  0
  -30.4192  -12.6418   19.5175 C   0  0  0  0  0  0
  -29.5169  -12.5429   18.2679 C   0  0  0  0  0  0
  -28.0548  -12.3183   18.6871 C   0  0  0  0  0  0
  -27.6199  -13.2662   19.8356 C   0  0  2  0  0  0
  -28.6562  -13.3558   20.9760 C   0  0  0  0  0  0
  -25.2415  -13.8251   20.5748 C   0  0  0  0  0  0
  -24.1747  -13.0444   20.9229 C   0  0  0  0  0  0
  -24.6383  -11.6937   20.8754 C   0  0  0  0  0  0
  -23.9080  -10.4295   21.0405 C   0  0  0  0  0  0
  -24.3630   -9.4208   21.9184 C   0  0  0  0  0  0
  -23.6300   -8.2243   22.0752 C   0  0  0  0  0  0
  -22.4284   -8.0277   21.3540 C   0  0  0  0  0  0
  -21.9921   -9.0254   20.4646 C   0  0  0  0  0  0
  -22.7248  -10.2135   20.3054 C   0  0  0  0  0  0
  -21.6851   -6.0737   22.5278 C   0  0  0  0  0  0
  -21.4017   -6.5640   23.8212 C   0  0  0  0  0  0
  -21.3663   -5.6792   24.9175 C   0  0  0  0  0  0
  -21.6044   -4.3054   24.7228 C   0  0  0  0  0  0
  -21.8819   -3.8144   23.4348 C   0  0  0  0  0  0
  -21.9191   -4.6963   22.3405 C   0  0  0  0  0  0
  -22.7765  -13.5197   21.1887 C   0  0  0  0  0  0
  -22.1659   -4.2148   21.0983 F   0  0  0  0  0  0
  -21.5630   -3.4539   25.7745 F   0  0  0  0  0  0
  -29.9241  -13.7752   20.3688 N   0  0  0  0  0  0
  -26.2844  -12.9516   20.3268 N   0  0  0  0  0  0
  -25.9323  -11.6623   20.5750 N   0  0  0  0  0  0
  -22.0426  -12.8193   22.0452 N   0  0  0  0  0  0
  -25.4094  -15.1979   20.4230 N   0  0  0  0  0  0
  -31.7534  -15.0085   20.0773 O   0  0  0  0  0  0
  -21.6636   -6.8881   21.4239 O   0  0  0  0  0  0
  -22.3448  -14.5500   20.6728 O   0  0  0  0  0  0
  -24.6483  -31.8358   23.1810 C   0  0  0  0  0  0
  -25.9232  -32.4644   23.8221 C   0  0  1  0  0  0
  -27.2159  -27.0688   20.1586 C   0  0  0  0  0  0
  -25.5965  -33.8458   24.2144 N   0  0  0  0  0  0
  -23.4553  -30.4510   21.5267 C   0  0  2  0  0  0
  -24.9057  -28.8636   20.1028 C   0  0  0  0  0  0
  -22.7593  -29.4491   22.4828 C   0  0  0  0  0  0
  -18.0309  -28.1400   22.8471 C   0  0  0  0  0  0
  -24.1492  -36.7229   23.2645 C   0  0  0  0  0  0
  -26.0134  -30.6862   21.3903 C   0  0  0  0  0  0
  -26.0806  -29.2907   20.7326 C   0  0  0  0  0  0
  -27.2296  -28.4066   20.7464 C   0  0  0  0  0  0
  -26.0190  -26.7566   19.4795 C   0  0  0  0  0  0
  -24.8915  -27.6134   19.4619 C   0  0  0  0  0  0
  -23.6850  -29.7744   20.1472 C   0  0  0  0  0  0
  -25.4128  -36.2996   24.0309 C   0  0  1  0  0  0
  -20.5922  -28.3723   23.1221 C   0  0  2  0  0  0
  -20.6784  -26.9418   22.5405 C   0  0  0  0  0  0
  -19.5761  -26.6380   21.5210 C   0  0  0  0  0  0
  -18.1944  -26.7937   22.1619 C   0  0  0  0  0  0
  -19.1566  -28.8880   23.2836 C   0  0  0  0  0  0
  -18.9485  -30.1478   23.8859 C   0  0  0  0  0  0
  -17.6478  -30.6590   24.0557 C   0  0  0  0  0  0
  -25.9085  -34.9376   23.5039 C   0  0  0  0  0  0
  -16.5368  -29.9081   23.6339 C   0  0  0  0  0  0
  -16.7291  -28.6503   23.0352 C   0  0  0  0  0  0
  -26.4540  -31.6539   25.0693 C   0  0  0  0  0  0
  -25.3714  -31.3745   26.1385 C   0  0  0  0  0  0
  -27.0423  -30.2930   24.6319 C   0  0  0  0  0  0
  -27.6055  -32.4322   25.7483 C   0  0  0  0  0  0
  -27.5570  -37.1771   24.8469 C   0  0  0  0  0  0
  -21.4276  -29.3030   22.3584 N   0  0  0  0  0  0
  -26.4281  -37.3722   23.9411 N   0  0  0  0  0  0
  -24.7258  -31.0152   22.0873 N   0  0  0  0  0  0
  -23.4205  -28.8054   23.3013 O   0  0  0  0  0  0
  -28.2610  -26.0657   20.2986 O   0  0  0  0  0  0
  -26.5673  -34.8884   22.4620 O   0  0  0  0  0  0
  -23.5589  -32.1274   23.6997 O   0  0  0  0  0  0
  -25.9158  -22.2018   20.4049 C   0  0  0  0  0  0
  -26.3484  -21.3821   19.3423 C   0  0  0  0  0  0
  -26.8446  -23.0812   21.0015 C   0  0  0  0  0  0
  -28.1536  -23.1029   20.4672 C   0  0  0  0  0  0
  -28.5267  -21.7260   19.9300 C   0  0  0  0  0  0
  -26.3514  -24.1346   21.9748 C   0  0  0  0  0  0
  -28.3604  -24.5927   19.7159 C   0  0  0  0  0  0
  -29.7026  -19.1603   20.1736 C   0  0  0  0  0  0
  -29.1610  -17.5449   20.4113 C   0  0  0  0  0  0
  -27.6577  -21.1899   19.0561 N   0  0  0  0  0  0
  -29.0549  -20.5297   20.6614 N   0  0  0  0  0  0
  -30.0238  -16.2724   20.8719 N   0  0  0  0  0  0
  -31.4562  -12.7739   19.2061 H   0  0  0  0  0  0
  -30.4044  -11.7050   20.0769 H   0  0  0  0  0  0
  -29.8507  -11.7317   17.6196 H   0  0  0  0  0  0
  -29.5977  -13.4598   17.6822 H   0  0  0  0  0  0
  -27.9641  -11.2807   19.0114 H   0  0  0  0  0  0
  -27.3906  -12.4289   17.8296 H   0  0  0  0  0  0
  -27.5666  -14.2572   19.3829 H   0  0  0  0  0  0
  -28.7586  -12.4030   21.4964 H   0  0  0  0  0  0
  -28.3401  -14.0883   21.7207 H   0  0  0  0  0  0
  -25.2774   -9.5683   22.4760 H   0  0  0  0  0  0
  -24.0004   -7.4636   22.7475 H   0  0  0  0  0  0
  -21.0849   -8.8772   19.8954 H   0  0  0  0  0  0
  -22.3701  -10.9674   19.6161 H   0  0  0  0  0  0
  -21.2008   -7.6148   23.9720 H   0  0  0  0  0  0
  -21.1486   -6.0523   25.9080 H   0  0  0  0  0  0
  -22.0596   -2.7605   23.2849 H   0  0  0  0  0  0
  -22.4046  -11.9857   22.4844 H   0  0  0  0  0  0
  -21.1034  -13.1202   22.2642 H   0  0  0  0  0  0
  -24.6479  -15.8552   20.5519 H   0  0  0  0  0  0
  -26.2738  -15.6415   20.1388 H   0  0  0  0  0  0
  -26.7288  -32.5225   23.0930 H   0  0  0  0  0  0
  -25.0107  -33.9563   25.0290 H   0  0  0  0  0  0
  -22.7608  -31.2786   21.3668 H   0  0  0  0  0  0
  -23.3758  -35.9558   23.3291 H   0  0  0  0  0  0
  -24.3570  -36.8887   22.2062 H   0  0  0  0  0  0
  -23.7246  -37.6417   23.6699 H   0  0  0  0  0  0
  -26.1782  -31.4361   20.6154 H   0  0  0  0  0  0
  -26.8801  -30.7372   22.0374 H   0  0  0  0  0  0
  -28.1188  -28.7220   21.2747 H   0  0  0  0  0  0
  -25.9136  -25.7932   19.0036 H   0  0  0  0  0  0
  -23.9940  -27.2806   18.9587 H   0  0  0  0  0  0
  -23.8266  -30.5471   19.3908 H   0  0  0  0  0  0
  -22.7979  -29.2201   19.8352 H   0  0  0  0  0  0
  -25.1318  -36.1809   25.0801 H   0  0  0  0  0  0
  -21.0012  -28.3316   24.1342 H   0  0  0  0  0  0
  -20.5672  -26.2332   23.3627 H   0  0  0  0  0  0
  -21.6652  -26.7411   22.1209 H   0  0  0  0  0  0
  -19.6922  -25.6284   21.1257 H   0  0  0  0  0  0
  -19.6706  -27.3175   20.6726 H   0  0  0  0  0  0
  -17.4213  -26.6679   21.4020 H   0  0  0  0  0  0
  -18.0337  -26.0089   22.9023 H   0  0  0  0  0  0
  -19.7964  -30.7310   24.2202 H   0  0  0  0  0  0
  -17.5032  -31.6268   24.5167 H   0  0  0  0  0  0
  -15.5366  -30.2970   23.7692 H   0  0  0  0  0  0
  -15.8691  -28.0819   22.7074 H   0  0  0  0  0  0
  -24.5917  -30.7057   25.7716 H   0  0  0  0  0  0
  -24.8874  -32.2928   26.4716 H   0  0  0  0  0  0
  -25.7998  -30.8996   27.0220 H   0  0  0  0  0  0
  -26.3060  -29.6626   24.1318 H   0  0  0  0  0  0
  -27.4013  -29.7250   25.4911 H   0  0  0  0  0  0
  -27.8970  -30.4153   23.9662 H   0  0  0  0  0  0
  -27.2645  -33.3665   26.1954 H   0  0  0  0  0  0
  -28.3922  -32.6814   25.0349 H   0  0  0  0  0  0
  -28.0654  -31.8516   26.5491 H   0  0  0  0  0  0
  -28.2576  -38.0077   24.7511 H   0  0  0  0  0  0
  -28.1077  -36.2604   24.6302 H   0  0  0  0  0  0
  -27.2287  -37.1422   25.8873 H   0  0  0  0  0  0
  -20.9497  -29.8733   21.6749 H   0  0  0  0  0  0
  -26.0137  -38.2785   24.1420 H   0  0  0  0  0  0
  -24.8674  -22.2386   20.6676 H   0  0  0  0  0  0
  -25.6405  -20.8092   18.7621 H   0  0  0  0  0  0
  -25.5555  -24.7321   21.5293 H   0  0  0  0  0  0
  -27.1528  -24.8043   22.2861 H   0  0  0  0  0  0
  -25.9538  -23.6585   22.8706 H   0  0  0  0  0  0
  -29.3720  -24.5394   19.3138 H   0  0  0  0  0  0
  -27.7352  -24.5591   18.8243 H   0  0  0  0  0  0
  -29.8703  -19.2770   19.1021 H   0  0  0  0  0  0
  -30.7080  -19.1888   20.5947 H   0  0  0  0  0  0
  -28.6339  -17.2449   19.5051 H   0  0  0  0  0  0
  -28.3725  -17.6073   21.1616 H   0  0  0  0  0  0
  -29.3904  -20.7810   21.5865 H   0  0  0  0  0  0
  -30.7865  -16.6695   21.4024 H   0  0  0  0  0  0
  1 25  1  0  0  0
  1 30  2  0  0  0
  1 82  1  0  0  0
  2  3  1  0  0  0
  2 25  1  0  0  0
  2 83  1  0  0  0
  2 84  1  0  0  0
  3  4  1  0  0  0
  3 85  1  0  0  0
  3 86  1  0  0  0
  4  5  1  0  0  0
  4 87  1  0  0  0
  4 88  1  0  0  0
  5  6  1  0  0  0
  5 26  1  0  0  0
  5 89  1  0  0  0
  6 25  1  0  0  0
  6 90  1  0  0  0
  6 91  1  0  0  0
  7  8  2  0  0  0
  7 26  1  0  0  0
  7 29  1  0  0  0
  8  9  1  0  0  0
  8 22  1  0  0  0
  9 10  1  0  0  0
  9 27  2  0  0  0
 10 11  2  0  0  0
 10 15  1  0  0  0
 11 12  1  0  0  0
 11 92  1  0  0  0
 12 13  2  0  0  0
 12 93  1  0  0  0
 13 14  1  0  0  0
 13 31  1  0  0  0
 14 15  2  0  0  0
 14 94  1  0  0  0
 15 95  1  0  0  0
 16 17  2  0  0  0
 16 21  1  0  0  0
 16 31  1  0  0  0
 17 18  1  0  0  0
 17 96  1  0  0  0
 18 19  2  0  0  0
 18 97  1  0  0  0
 19 20  1  0  0  0
 19 24  1  0  0  0
 20 21  2  0  0  0
 20 98  1  0  0  0
 21 23  1  0  0  0
 22 28  1  0  0  0
 22 32  2  0  0  0
 26 27  1  0  0  0
 28 99  1  0  0  0
 28100  1  0  0  0
 29101  1  0  0  0
 29102  1  0  0  0
 33 34  1  0  0  0
 33 66  1  0  0  0
 33 70  2  0  0  0
 34 36  1  0  0  0
 34 59  1  0  0  0
 34103  1  0  0  0
 35 44  2  0  0  0
 35 45  1  0  0  0
 35 68  1  0  0  0
 36 56  1  0  0  0
 36104  1  0  0  0
 37 39  1  0  0  0
 37 47  1  0  0  0
 37 66  1  0  0  0
 37105  1  0  0  0
 38 43  2  0  0  0
 38 46  1  0  0  0
 38 47  1  0  0  0
 39 64  1  0  0  0
 39 67  2  0  0  0
 40 52  1  0  0  0
 40 53  2  0  0  0
 40 58  1  0  0  0
 41106  1  0  0  0
 41107  1  0  0  0
 41108  1  0  0  0
 41 48  1  0  0  0
 42 43  1  0  0  0
 42 66  1  0  0  0
 42109  1  0  0  0
 42110  1  0  0  0
 43 44  1  0  0  0
 44111  1  0  0  0
 45 46  2  0  0  0
 45112  1  0  0  0
 46113  1  0  0  0
 47114  1  0  0  0
 47115  1  0  0  0
 48 56  1  0  0  0
 48 65  1  0  0  0
 48116  1  0  0  0
 49 50  1  0  0  0
 49 53  1  0  0  0
 49 64  1  0  0  0
 49117  1  0  0  0
 50 51  1  0  0  0
 50118  1  0  0  0
 50119  1  0  0  0
 51 52  1  0  0  0
 51120  1  0  0  0
 51121  1  0  0  0
 52122  1  0  0  0
 52123  1  0  0  0
 53 54  1  0  0  0
 54 55  2  0  0  0
 54124  1  0  0  0
 55 57  1  0  0  0
 55125  1  0  0  0
 56 69  2  0  0  0
 57 58  2  0  0  0
 57126  1  0  0  0
 58127  1  0  0  0
 59 60  1  0  0  0
 59 61  1  0  0  0
 59 62  1  0  0  0
 60128  1  0  0  0
 60129  1  0  0  0
 60130  1  0  0  0
 61131  1  0  0  0
 61132  1  0  0  0
 61133  1  0  0  0
 62134  1  0  0  0
 62135  1  0  0  0
 62136  1  0  0  0
 63 65  1  0  0  0
 63137  1  0  0  0
 63138  1  0  0  0
 63139  1  0  0  0
 64140  1  0  0  0
 65141  1  0  0  0
 68 77  1  0  0  0
 71 72  2  0  0  0
 71 73  1  0  0  0
 71142  1  0  0  0
 72 80  1  0  0  0
 72143  1  0  0  0
 73 74  2  0  0  0
 73 76  1  0  0  0
 74 75  1  0  0  0
 74 77  1  0  0  0
 75 80  2  0  0  0
 75 81  1  0  0  0
 76144  1  0  0  0
 76145  1  0  0  0
 76146  1  0  0  0
 77147  1  0  0  0
 77148  1  0  0  0
 78 79  1  0  0  0
 78 81  1  0  0  0
 78149  1  0  0  0
 78150  1  0  0  0
 79 82  1  0  0  0
 79151  1  0  0  0
 79152  1  0  0  0
 81153  1  0  0  0
 82154  1  0  0  0
M  ISO  4   1 100  68 101  77 101  82 100
M  END
> <chiral flag>
0

> <version>
0

> <s_m_source_file>
/data/baiqing/PycharmProjects/Reinvent-master-3.2/result/LINK_invent/BTK/process_docking_weight1_custom_sum_contain_oxygen_bond_distance_aromatic_linkinvent_7_9_3/rearranged_h_0136.sdf

> <i_m_source_file_index>
14

> <r_mmod_Potential_Energy-OPLS-2005>
837.378967285156

> <r_mmod_Stretch_Energy-OPLS-2005>
338.183654785156

> <r_mmod_Bend_Energy-OPLS-2005>
429.266998291016

> <r_mmod_Torsional_Energy-OPLS-2005>
468.412170410156

> <r_mmod_Improper_Torsional_Energy-OPLS-2005>
40.4395332336426

> <r_mmod_Van_der_Waal_Energy-OPLS-2005>
132.085052490234

> <r_mmod_Electrostatic_Energy-OPLS-2005>
-587.952758789062

> <r_mmod_Solvation_Energy-OPLS-2005>
-235.196838378906

> <b_mmod_Minimization_Converged-OPLS-2005>
0

> <r_mmod_RMS_Derivative-OPLS-2005>
1.06403791904449

$$$$
15
                    3D
 Structure written by MMmdl.
162170  0  0  1  0            999 V2000
  -30.7382  -14.3331   20.7403 C   0  0  0  0  0  0
  -30.4107  -12.2935   19.3752 C   0  0  0  0  0  0
  -29.4756  -12.5679   18.1802 C   0  0  0  0  0  0
  -27.9935  -12.4313   18.5810 C   0  0  0  0  0  0
  -27.6618  -13.2039   19.8831 C   0  0  2  0  0  0
  -28.6933  -12.8816   20.9839 C   0  0  0  0  0  0
  -25.2548  -13.8182   20.5616 C   0  0  0  0  0  0
  -24.1812  -13.0444   20.9171 C   0  0  0  0  0  0
  -24.6368  -11.6917   20.8725 C   0  0  0  0  0  0
  -23.9056  -10.4292   21.0412 C   0  0  0  0  0  0
  -24.3620   -9.4197   21.9161 C   0  0  0  0  0  0
  -23.6291   -8.2236   22.0729 C   0  0  0  0  0  0
  -22.4264   -8.0291   21.3532 C   0  0  0  0  0  0
  -21.9896   -9.0270   20.4634 C   0  0  0  0  0  0
  -22.7240  -10.2141   20.3039 C   0  0  0  0  0  0
  -21.6834   -6.0745   22.5284 C   0  0  0  0  0  0
  -21.4018   -6.5652   23.8222 C   0  0  0  0  0  0
  -21.3651   -5.6808   24.9182 C   0  0  0  0  0  0
  -21.6042   -4.3072   24.7231 C   0  0  0  0  0  0
  -21.8804   -3.8152   23.4359 C   0  0  0  0  0  0
  -21.9183   -4.6971   22.3414 C   0  0  0  0  0  0
  -22.7843  -13.5239   21.1889 C   0  0  0  0  0  0
  -22.1632   -4.2151   21.0987 F   0  0  0  0  0  0
  -21.5621   -3.4550   25.7744 F   0  0  0  0  0  0
  -30.0472  -13.1950   20.4730 N   0  0  0  0  0  0
  -26.2977  -12.9325   20.3328 N   0  0  0  0  0  0
  -25.9273  -11.6496   20.5699 N   0  0  0  0  0  0
  -22.0515  -12.8199   22.0473 N   0  0  0  0  0  0
  -25.4374  -15.1890   20.3988 N   0  0  0  0  0  0
  -31.7080  -14.7319   20.0881 O   0  0  0  0  0  0
  -21.6619   -6.8894   21.4244 O   0  0  0  0  0  0
  -22.3519  -14.5546   20.6774 O   0  0  0  0  0  0
  -24.6131  -31.8696   23.2103 C   0  0  0  0  0  0
  -25.9047  -32.4821   23.8386 C   0  0  1  0  0  0
  -27.2355  -27.4620   20.0899 C   0  0  0  0  0  0
  -25.5927  -33.8611   24.2348 N   0  0  0  0  0  0
  -23.3961  -30.4964   21.5508 C   0  0  2  0  0  0
  -24.8413  -28.9617   20.1211 C   0  0  0  0  0  0
  -22.7366  -29.4665   22.4943 C   0  0  0  0  0  0
  -18.0238  -28.1429   22.8456 C   0  0  0  0  0  0
  -24.1506  -36.7321   23.2627 C   0  0  0  0  0  0
  -25.9210  -30.8474   21.3544 C   0  0  0  0  0  0
  -26.0008  -29.4807   20.7109 C   0  0  0  0  0  0
  -27.2004  -28.7375   20.6929 C   0  0  0  0  0  0
  -26.0558  -26.9490   19.5060 C   0  0  0  0  0  0
  -24.8604  -27.6895   19.5247 C   0  0  0  0  0  0
  -23.6043  -29.8284   20.1650 C   0  0  0  0  0  0
  -25.4114  -36.3107   24.0343 C   0  0  1  0  0  0
  -20.5822  -28.3691   23.1257 C   0  0  2  0  0  0
  -20.6694  -26.9413   22.5396 C   0  0  0  0  0  0
  -19.5672  -26.6384   21.5203 C   0  0  0  0  0  0
  -18.1852  -26.7958   22.1616 C   0  0  0  0  0  0
  -19.1499  -28.8865   23.2874 C   0  0  0  0  0  0
  -18.9463  -30.1454   23.8926 C   0  0  0  0  0  0
  -17.6468  -30.6593   24.0633 C   0  0  0  0  0  0
  -25.9040  -34.9470   23.5134 C   0  0  0  0  0  0
  -16.5343  -29.9139   23.6376 C   0  0  0  0  0  0
  -16.7235  -28.6573   23.0334 C   0  0  0  0  0  0
  -26.4514  -31.6563   25.0667 C   0  0  0  0  0  0
  -25.3804  -31.3638   26.1434 C   0  0  0  0  0  0
  -27.0343  -30.3029   24.5953 C   0  0  0  0  0  0
  -27.6114  -32.4260   25.7407 C   0  0  0  0  0  0
  -27.5581  -37.1804   24.8464 C   0  0  0  0  0  0
  -21.4094  -29.3043   22.3647 N   0  0  0  0  0  0
  -26.4298  -37.3789   23.9403 N   0  0  0  0  0  0
  -24.6617  -31.0839   22.0980 N   0  0  0  0  0  0
  -23.4134  -28.8179   23.2956 O   0  0  0  0  0  0
  -28.4273  -26.7750   20.0577 O   0  0  0  0  0  0
  -26.5569  -34.8916   22.4672 O   0  0  0  0  0  0
  -23.5335  -32.1437   23.7532 O   0  0  0  0  0  0
  -30.4173  -20.4833   20.6366 C   0  0  0  0  0  0
  -30.2714  -21.4896   19.6638 C   0  0  0  0  0  0
  -29.5735  -20.4923   21.7666 C   0  0  0  0  0  0
  -28.6073  -21.5249   21.8589 C   0  0  0  0  0  0
  -29.2855  -22.4684   19.8413 C   0  0  0  0  0  0
  -27.6747  -21.6889   23.0454 C   0  0  0  0  0  0
  -29.7621  -19.4405   22.8613 C   0  0  0  0  0  0
  -30.4401  -16.3639   22.2391 C   0  0  0  0  0  0
  -29.2127  -17.1979   21.7888 C   0  0  0  0  0  0
  -28.3890  -25.3766   20.3422 C   0  0  0  0  0  0
  -28.1536  -24.4785   19.1061 C   0  0  0  0  0  0
  -28.4557  -22.4647   20.9051 N   0  0  0  0  0  0
  -30.2712  -14.9753   21.8160 N   0  0  0  0  0  0
  -28.8422  -18.2932   22.7168 N   0  3  0  0  0  0
  -29.1739  -23.4926   18.9241 O   0  0  0  0  0  0
  -31.4547  -12.4083   19.0799 H   0  0  0  0  0  0
  -30.3047  -11.2588   19.7055 H   0  0  0  0  0  0
  -29.7073  -11.8926   17.3553 H   0  0  0  0  0  0
  -29.6509  -13.5792   17.8064 H   0  0  0  0  0  0
  -27.7648  -11.3722   18.6998 H   0  0  0  0  0  0
  -27.3552  -12.7882   17.7710 H   0  0  0  0  0  0
  -27.7329  -14.2672   19.6579 H   0  0  0  0  0  0
  -28.6416  -11.8203   21.2269 H   0  0  0  0  0  0
  -28.4210  -13.3875   21.9098 H   0  0  0  0  0  0
  -25.2769   -9.5651   22.4731 H   0  0  0  0  0  0
  -23.9994   -7.4607   22.7424 H   0  0  0  0  0  0
  -21.0823   -8.8811   19.8943 H   0  0  0  0  0  0
  -22.3711  -10.9687   19.6146 H   0  0  0  0  0  0
  -21.2017   -7.6163   23.9734 H   0  0  0  0  0  0
  -21.1477   -6.0536   25.9091 H   0  0  0  0  0  0
  -22.0589   -2.7616   23.2865 H   0  0  0  0  0  0
  -22.4122  -11.9833   22.4820 H   0  0  0  0  0  0
  -21.1135  -13.1210   22.2735 H   0  0  0  0  0  0
  -24.6787  -15.8586   20.4695 H   0  0  0  0  0  0
  -26.2878  -15.5985   20.0340 H   0  0  0  0  0  0
  -26.7111  -32.5557   23.1162 H   0  0  0  0  0  0
  -25.0194  -33.9752   25.0578 H   0  0  0  0  0  0
  -22.6833  -31.3114   21.4150 H   0  0  0  0  0  0
  -23.3753  -35.9666   23.3278 H   0  0  0  0  0  0
  -24.3622  -36.8935   22.2042 H   0  0  0  0  0  0
  -23.7269  -37.6540   23.6625 H   0  0  0  0  0  0
  -26.0165  -31.6092   20.5804 H   0  0  0  0  0  0
  -26.8157  -30.9136   21.9602 H   0  0  0  0  0  0
  -28.0982  -29.1366   21.1454 H   0  0  0  0  0  0
  -26.0436  -25.9925   19.0100 H   0  0  0  0  0  0
  -23.9673  -27.2763   19.0758 H   0  0  0  0  0  0
  -23.7154  -30.6059   19.4081 H   0  0  0  0  0  0
  -22.7284  -29.2530   19.8624 H   0  0  0  0  0  0
  -25.1285  -36.1984   25.0834 H   0  0  0  0  0  0
  -20.9951  -28.3319   24.1364 H   0  0  0  0  0  0
  -20.5565  -26.2338   23.3613 H   0  0  0  0  0  0
  -21.6566  -26.7427   22.1213 H   0  0  0  0  0  0
  -19.6827  -25.6291   21.1243 H   0  0  0  0  0  0
  -19.6596  -27.3194   20.6731 H   0  0  0  0  0  0
  -17.4109  -26.6695   21.4036 H   0  0  0  0  0  0
  -18.0277  -26.0105   22.9029 H   0  0  0  0  0  0
  -19.7949  -30.7227   24.2326 H   0  0  0  0  0  0
  -17.5073  -31.6259   24.5279 H   0  0  0  0  0  0
  -15.5358  -30.3063   23.7719 H   0  0  0  0  0  0
  -15.8634  -28.0930   22.7006 H   0  0  0  0  0  0
  -24.5910  -30.7085   25.7740 H   0  0  0  0  0  0
  -24.9097  -32.2803   26.5000 H   0  0  0  0  0  0
  -25.8185  -30.8673   27.0106 H   0  0  0  0  0  0
  -26.2844  -29.6772   24.1097 H   0  0  0  0  0  0
  -27.4294  -29.7266   25.4330 H   0  0  0  0  0  0
  -27.8598  -30.4417   23.8966 H   0  0  0  0  0  0
  -27.2743  -33.3508   26.2105 H   0  0  0  0  0  0
  -28.3850  -32.6911   25.0180 H   0  0  0  0  0  0
  -28.0884  -31.8310   26.5214 H   0  0  0  0  0  0
  -28.2616  -38.0090   24.7509 H   0  0  0  0  0  0
  -28.1069  -36.2617   24.6306 H   0  0  0  0  0  0
  -27.2284  -37.1478   25.8868 H   0  0  0  0  0  0
  -20.9261  -29.8740   21.6851 H   0  0  0  0  0  0
  -26.0195  -38.2864   24.1435 H   0  0  0  0  0  0
  -31.1839  -19.7298   20.5249 H   0  0  0  0  0  0
  -30.9177  -21.5258   18.7974 H   0  0  0  0  0  0
  -27.0328  -22.5627   22.9254 H   0  0  0  0  0  0
  -27.0279  -20.8206   23.1614 H   0  0  0  0  0  0
  -28.2419  -21.8278   23.9667 H   0  0  0  0  0  0
  -29.5778  -19.9021   23.8326 H   0  0  0  0  0  0
  -30.7986  -19.1046   22.9049 H   0  0  0  0  0  0
  -30.5288  -16.3637   23.3263 H   0  0  0  0  0  0
  -31.3651  -16.7931   21.8447 H   0  0  0  0  0  0
  -28.3390  -16.5473   21.7235 H   0  0  0  0  0  0
  -29.3613  -17.5815   20.7782 H   0  0  0  0  0  0
  -29.3648  -25.1387   20.7681 H   0  0  0  0  0  0
  -27.6607  -25.1528   21.1255 H   0  0  0  0  0  0
  -28.1436  -25.0894   18.2036 H   0  0  0  0  0  0
  -27.1737  -23.9977   19.1489 H   0  0  0  0  0  0
  -29.5800  -14.4485   22.3305 H   0  0  0  0  0  0
  -27.9452  -18.6521   22.4362 H   0  0  0  0  0  0
  -28.7077  -17.8868   23.6284 H   0  0  0  0  0  0
  1 25  1  0  0  0
  1 30  2  0  0  0
  1 83  1  0  0  0
  2  3  1  0  0  0
  2 25  1  0  0  0
  2 86  1  0  0  0
  2 87  1  0  0  0
  3  4  1  0  0  0
  3 88  1  0  0  0
  3 89  1  0  0  0
  4  5  1  0  0  0
  4 90  1  0  0  0
  4 91  1  0  0  0
  5  6  1  0  0  0
  5 26  1  0  0  0
  5 92  1  0  0  0
  6 25  1  0  0  0
  6 93  1  0  0  0
  6 94  1  0  0  0
  7  8  2  0  0  0
  7 26  1  0  0  0
  7 29  1  0  0  0
  8  9  1  0  0  0
  8 22  1  0  0  0
  9 10  1  0  0  0
  9 27  2  0  0  0
 10 11  2  0  0  0
 10 15  1  0  0  0
 11 12  1  0  0  0
 11 95  1  0  0  0
 12 13  2  0  0  0
 12 96  1  0  0  0
 13 14  1  0  0  0
 13 31  1  0  0  0
 14 15  2  0  0  0
 14 97  1  0  0  0
 15 98  1  0  0  0
 16 17  2  0  0  0
 16 21  1  0  0  0
 16 31  1  0  0  0
 17 18  1  0  0  0
 17 99  1  0  0  0
 18 19  2  0  0  0
 18100  1  0  0  0
 19 20  1  0  0  0
 19 24  1  0  0  0
 20 21  2  0  0  0
 20101  1  0  0  0
 21 23  1  0  0  0
 22 28  1  0  0  0
 22 32  2  0  0  0
 26 27  1  0  0  0
 28102  1  0  0  0
 28103  1  0  0  0
 29104  1  0  0  0
 29105  1  0  0  0
 33 34  1  0  0  0
 33 66  1  0  0  0
 33 70  2  0  0  0
 34 36  1  0  0  0
 34 59  1  0  0  0
 34106  1  0  0  0
 35 44  2  0  0  0
 35 45  1  0  0  0
 35 68  1  0  0  0
 36 56  1  0  0  0
 36107  1  0  0  0
 37 39  1  0  0  0
 37 47  1  0  0  0
 37 66  1  0  0  0
 37108  1  0  0  0
 38 43  2  0  0  0
 38 46  1  0  0  0
 38 47  1  0  0  0
 39 64  1  0  0  0
 39 67  2  0  0  0
 40 52  1  0  0  0
 40 53  2  0  0  0
 40 58  1  0  0  0
 41109  1  0  0  0
 41110  1  0  0  0
 41111  1  0  0  0
 41 48  1  0  0  0
 42 43  1  0  0  0
 42 66  1  0  0  0
 42112  1  0  0  0
 42113  1  0  0  0
 43 44  1  0  0  0
 44114  1  0  0  0
 45 46  2  0  0  0
 45115  1  0  0  0
 46116  1  0  0  0
 47117  1  0  0  0
 47118  1  0  0  0
 48 56  1  0  0  0
 48 65  1  0  0  0
 48119  1  0  0  0
 49 50  1  0  0  0
 49 53  1  0  0  0
 49 64  1  0  0  0
 49120  1  0  0  0
 50 51  1  0  0  0
 50121  1  0  0  0
 50122  1  0  0  0
 51 52  1  0  0  0
 51123  1  0  0  0
 51124  1  0  0  0
 52125  1  0  0  0
 52126  1  0  0  0
 53 54  1  0  0  0
 54 55  2  0  0  0
 54127  1  0  0  0
 55 57  1  0  0  0
 55128  1  0  0  0
 56 69  2  0  0  0
 57 58  2  0  0  0
 57129  1  0  0  0
 58130  1  0  0  0
 59 60  1  0  0  0
 59 61  1  0  0  0
 59 62  1  0  0  0
 60131  1  0  0  0
 60132  1  0  0  0
 60133  1  0  0  0
 61134  1  0  0  0
 61135  1  0  0  0
 61136  1  0  0  0
 62137  1  0  0  0
 62138  1  0  0  0
 62139  1  0  0  0
 63 65  1  0  0  0
 63140  1  0  0  0
 63141  1  0  0  0
 63142  1  0  0  0
 64143  1  0  0  0
 65144  1  0  0  0
 68 80  1  0  0  0
 71 72  2  0  0  0
 71 73  1  0  0  0
 71145  1  0  0  0
 72 75  1  0  0  0
 72146  1  0  0  0
 73 74  2  0  0  0
 73 77  1  0  0  0
 74 76  1  0  0  0
 74 82  1  0  0  0
 75 82  2  0  0  0
 75 85  1  0  0  0
 76147  1  0  0  0
 76148  1  0  0  0
 76149  1  0  0  0
 77 84  1  0  0  0
 77150  1  0  0  0
 77151  1  0  0  0
 78 79  1  0  0  0
 78 83  1  0  0  0
 78152  1  0  0  0
 78153  1  0  0  0
 79 84  1  0  0  0
 79154  1  0  0  0
 79155  1  0  0  0
 80 81  1  0  0  0
 80156  1  0  0  0
 80157  1  0  0  0
 81 85  1  0  0  0
 81158  1  0  0  0
 81159  1  0  0  0
 83160  1  0  0  0
 84161  1  0  0  0
 84162  1  0  0  0
M  CHG  1  84   1
M  ISO  4   1 100  68 101  80 101  83 100
M  END
> <chiral flag>
0

> <version>
0

> <s_m_source_file>
/data/baiqing/PycharmProjects/Reinvent-master-3.2/result/LINK_invent/BTK/process_docking_weight1_custom_sum_contain_oxygen_bond_distance_aromatic_linkinvent_7_9_3/rearranged_h_0136.sdf

> <i_m_source_file_index>
15

> <r_mmod_Potential_Energy-OPLS-2005>
-465.167144775391

> <r_mmod_Stretch_Energy-OPLS-2005>
33.2638816833496

> <r_mmod_Bend_Energy-OPLS-2005>
109.259246826172

> <r_mmod_Torsional_Energy-OPLS-2005>
202.98583984375

> <r_mmod_Improper_Torsional_Energy-OPLS-2005>
2.52977871894836

> <r_mmod_Van_der_Waal_Energy-OPLS-2005>
164.214065551758

> <r_mmod_Electrostatic_Energy-OPLS-2005>
-480.660217285156

> <r_mmod_Solvation_Energy-OPLS-2005>
-506.286590576172

> <b_mmod_Minimization_Converged-OPLS-2005>
0

> <r_mmod_RMS_Derivative-OPLS-2005>
3.87747025489807

$$$$
16
                    3D
 Structure written by MMmdl.
171181  0  0  1  0            999 V2000
  -30.4896  -15.0226   20.3795 C   0  0  0  0  0  0
  -30.4424  -12.6252   19.5204 C   0  0  0  0  0  0
  -29.5383  -12.5281   18.2695 C   0  0  0  0  0  0
  -28.0637  -12.3220   18.6698 C   0  0  0  0  0  0
  -27.6257  -13.2499   19.8348 C   0  0  2  0  0  0
  -28.6613  -13.3035   20.9763 C   0  0  0  0  0  0
  -25.2445  -13.8178   20.5691 C   0  0  0  0  0  0
  -24.1759  -13.0401   20.9188 C   0  0  0  0  0  0
  -24.6387  -11.6892   20.8711 C   0  0  0  0  0  0
  -23.9065  -10.4267   21.0378 C   0  0  0  0  0  0
  -24.3614   -9.4193   21.9162 C   0  0  0  0  0  0
  -23.6294   -8.2226   22.0744 C   0  0  0  0  0  0
  -22.4282   -8.0259   21.3533 C   0  0  0  0  0  0
  -21.9905   -9.0222   20.4633 C   0  0  0  0  0  0
  -22.7227  -10.2107   20.3043 C   0  0  0  0  0  0
  -21.6856   -6.0713   22.5272 C   0  0  0  0  0  0
  -21.4008   -6.5618   23.8206 C   0  0  0  0  0  0
  -21.3665   -5.6776   24.9169 C   0  0  0  0  0  0
  -21.6056   -4.3037   24.7219 C   0  0  0  0  0  0
  -21.8818   -3.8124   23.4337 C   0  0  0  0  0  0
  -21.9185   -4.6938   22.3397 C   0  0  0  0  0  0
  -22.7791  -13.5184   21.1845 C   0  0  0  0  0  0
  -22.1658   -4.2133   21.0970 F   0  0  0  0  0  0
  -21.5635   -3.4519   25.7725 F   0  0  0  0  0  0
  -29.9272  -13.7393   20.3775 N   0  0  0  0  0  0
  -26.2863  -12.9418   20.3189 N   0  0  0  0  0  0
  -25.9315  -11.6547   20.5682 N   0  0  0  0  0  0
  -22.0437  -12.8210   22.0420 N   0  0  0  0  0  0
  -25.4105  -15.1913   20.4172 N   0  0  0  0  0  0
  -31.7007  -15.0726   20.1296 O   0  0  0  0  0  0
  -21.6644   -6.8850   21.4241 O   0  0  0  0  0  0
  -22.3483  -14.5486   20.6662 O   0  0  0  0  0  0
  -24.6472  -31.8392   23.1840 C   0  0  0  0  0  0
  -25.9229  -32.4665   23.8254 C   0  0  1  0  0  0
  -27.2147  -27.0764   20.1888 C   0  0  0  0  0  0
  -25.5969  -33.8471   24.2169 N   0  0  0  0  0  0
  -23.4555  -30.4545   21.5272 C   0  0  2  0  0  0
  -24.9101  -28.8716   20.1131 C   0  0  0  0  0  0
  -22.7592  -29.4502   22.4812 C   0  0  0  0  0  0
  -18.0311  -28.1391   22.8485 C   0  0  0  0  0  0
  -24.1493  -36.7229   23.2639 C   0  0  0  0  0  0
  -26.0148  -30.6967   21.3929 C   0  0  0  0  0  0
  -26.0869  -29.3009   20.7398 C   0  0  0  0  0  0
  -27.2414  -28.4216   20.7539 C   0  0  0  0  0  0
  -26.0129  -26.7601   19.5192 C   0  0  0  0  0  0
  -24.8901  -27.6180   19.4827 C   0  0  0  0  0  0
  -23.6893  -29.7807   20.1478 C   0  0  0  0  0  0
  -25.4128  -36.2995   24.0299 C   0  0  1  0  0  0
  -20.5928  -28.3714   23.1238 C   0  0  2  0  0  0
  -20.6790  -26.9414   22.5408 C   0  0  0  0  0  0
  -19.5761  -26.6380   21.5216 C   0  0  0  0  0  0
  -18.1942  -26.7935   22.1627 C   0  0  0  0  0  0
  -19.1570  -28.8872   23.2856 C   0  0  0  0  0  0
  -18.9479  -30.1469   23.8878 C   0  0  0  0  0  0
  -17.6469  -30.6590   24.0550 C   0  0  0  0  0  0
  -25.9086  -34.9379   23.5042 C   0  0  0  0  0  0
  -16.5363  -29.9077   23.6334 C   0  0  0  0  0  0
  -16.7291  -28.6493   23.0368 C   0  0  0  0  0  0
  -26.4555  -31.6549   25.0709 C   0  0  0  0  0  0
  -25.3732  -31.3762   26.1396 C   0  0  0  0  0  0
  -27.0423  -30.2932   24.6324 C   0  0  0  0  0  0
  -27.6068  -32.4326   25.7512 C   0  0  0  0  0  0
  -27.5570  -37.1768   24.8458 C   0  0  0  0  0  0
  -21.4276  -29.3032   22.3590 N   0  0  0  0  0  0
  -26.4276  -37.3718   23.9408 N   0  0  0  0  0  0
  -24.7252  -31.0196   22.0900 N   0  0  0  0  0  0
  -23.4218  -28.8039   23.2975 O   0  0  0  0  0  0
  -28.2639  -26.0716   20.2280 O   0  0  0  0  0  0
  -26.5652  -34.8881   22.4611 O   0  0  0  0  0  0
  -23.5577  -32.1279   23.7039 O   0  0  0  0  0  0
  -30.2512  -19.1160   17.9830 C   0  0  0  0  0  0
  -29.2977  -18.9883   20.5212 C   0  0  0  0  0  0
  -30.1213  -17.8348   18.5607 C   0  0  0  0  0  0
  -29.9466  -20.3434   18.6135 C   0  0  0  0  0  0
  -29.7500  -17.6733   19.9247 C   0  0  0  0  0  0
  -29.3363  -20.3746   19.9082 C   0  0  0  0  0  0
  -28.1554  -16.7007   16.0276 C   0  0  0  0  0  0
  -28.6789  -15.2872   15.9678 C   0  0  0  0  0  0
  -28.7679  -23.9862   15.1674 C   0  0  0  0  0  0
  -29.7046  -24.4763   16.2464 C   0  0  0  0  0  0
  -28.9024  -16.1235   17.2090 C   0  0  0  0  0  0
  -29.7683  -23.0383   15.7862 C   0  0  0  0  0  0
  -30.2675  -16.6739   17.5792 C   0  0  0  0  0  0
  -30.3334  -21.5575   17.7720 C   0  0  0  0  0  0
  -29.3044  -21.9012   16.6781 C   0  0  0  0  0  0
  -28.0194  -24.5383   20.5439 C   0  0  0  0  0  0
  -28.8701  -23.1426   20.0237 C   0  0  0  0  0  0
  -29.6949  -16.2225   20.5138 N   0  0  0  0  0  0
  -28.8029  -21.6357   20.5105 O   0  0  0  0  0  0
  -31.4772  -12.7908   19.2151 H   0  0  0  0  0  0
  -30.4440  -11.6812   20.0679 H   0  0  0  0  0  0
  -29.8704  -11.7190   17.6177 H   0  0  0  0  0  0
  -29.6421  -13.4417   17.6870 H   0  0  0  0  0  0
  -27.9477  -11.2792   18.9665 H   0  0  0  0  0  0
  -27.4165  -12.4639   17.8036 H   0  0  0  0  0  0
  -27.5757  -14.2490   19.4086 H   0  0  0  0  0  0
  -28.7615  -12.3338   21.4643 H   0  0  0  0  0  0
  -28.3498  -14.0065   21.7493 H   0  0  0  0  0  0
  -25.2759   -9.5672   22.4726 H   0  0  0  0  0  0
  -23.9996   -7.4623   22.7476 H   0  0  0  0  0  0
  -21.0820   -8.8731   19.8955 H   0  0  0  0  0  0
  -22.3666  -10.9631   19.6146 H   0  0  0  0  0  0
  -21.2015   -7.6133   23.9704 H   0  0  0  0  0  0
  -21.1494   -6.0504   25.9073 H   0  0  0  0  0  0
  -22.0600   -2.7587   23.2835 H   0  0  0  0  0  0
  -22.4071  -11.9925   22.4899 H   0  0  0  0  0  0
  -21.1039  -13.1236   22.2565 H   0  0  0  0  0  0
  -24.6340  -15.8342   20.5288 H   0  0  0  0  0  0
  -26.2570  -15.6414   20.0943 H   0  0  0  0  0  0
  -26.7289  -32.5259   23.0977 H   0  0  0  0  0  0
  -25.0102  -33.9579   25.0306 H   0  0  0  0  0  0
  -22.7599  -31.2805   21.3657 H   0  0  0  0  0  0
  -23.3753  -35.9561   23.3276 H   0  0  0  0  0  0
  -24.3581  -36.8888   22.2057 H   0  0  0  0  0  0
  -23.7250  -37.6414   23.6711 H   0  0  0  0  0  0
  -26.1739  -31.4495   20.6197 H   0  0  0  0  0  0
  -26.8832  -30.7526   22.0377 H   0  0  0  0  0  0
  -28.1413  -28.7413   21.2604 H   0  0  0  0  0  0
  -25.9160  -25.8018   19.0312 H   0  0  0  0  0  0
  -23.9952  -27.2860   18.9756 H   0  0  0  0  0  0
  -23.8314  -30.5520   19.3891 H   0  0  0  0  0  0
  -22.8045  -29.2244   19.8341 H   0  0  0  0  0  0
  -25.1323  -36.1801   25.0784 H   0  0  0  0  0  0
  -21.0036  -28.3296   24.1355 H   0  0  0  0  0  0
  -20.5693  -26.2313   23.3617 H   0  0  0  0  0  0
  -21.6652  -26.7409   22.1202 H   0  0  0  0  0  0
  -19.6919  -25.6288   21.1256 H   0  0  0  0  0  0
  -19.6715  -27.3175   20.6732 H   0  0  0  0  0  0
  -17.4222  -26.6688   21.4020 H   0  0  0  0  0  0
  -18.0333  -26.0082   22.9026 H   0  0  0  0  0  0
  -19.7947  -30.7295   24.2248 H   0  0  0  0  0  0
  -17.5016  -31.6273   24.5144 H   0  0  0  0  0  0
  -15.5360  -30.2967   23.7677 H   0  0  0  0  0  0
  -15.8689  -28.0795   22.7114 H   0  0  0  0  0  0
  -24.5915  -30.7104   25.7722 H   0  0  0  0  0  0
  -24.8924  -32.2955   26.4747 H   0  0  0  0  0  0
  -25.8012  -30.8987   27.0219 H   0  0  0  0  0  0
  -26.3047  -29.6643   24.1324 H   0  0  0  0  0  0
  -27.4000  -29.7245   25.4918 H   0  0  0  0  0  0
  -27.8979  -30.4131   23.9672 H   0  0  0  0  0  0
  -27.2644  -33.3637   26.2038 H   0  0  0  0  0  0
  -28.3936  -32.6866   25.0397 H   0  0  0  0  0  0
  -28.0686  -31.8487   26.5484 H   0  0  0  0  0  0
  -28.2557  -38.0089   24.7507 H   0  0  0  0  0  0
  -28.1097  -36.2613   24.6290 H   0  0  0  0  0  0
  -27.2289  -37.1404   25.8859 H   0  0  0  0  0  0
  -20.9484  -29.8731   21.6756 H   0  0  0  0  0  0
  -26.0125  -38.2773   24.1435 H   0  0  0  0  0  0
  -30.5799  -19.1617   16.9541 H   0  0  0  0  0  0
  -28.8825  -18.9321   21.5169 H   0  0  0  0  0  0
  -27.0852  -16.8525   16.1526 H   0  0  0  0  0  0
  -28.6651  -17.4482   15.4221 H   0  0  0  0  0  0
  -29.5359  -15.0844   15.3278 H   0  0  0  0  0  0
  -27.9577  -14.4761   16.0453 H   0  0  0  0  0  0
  -28.9537  -24.3258   14.1495 H   0  0  0  0  0  0
  -27.7184  -23.8661   15.4317 H   0  0  0  0  0  0
  -29.2850  -24.6802   17.2307 H   0  0  0  0  0  0
  -30.5084  -25.1435   15.9395 H   0  0  0  0  0  0
  -28.2952  -15.8489   18.0665 H   0  0  0  0  0  0
  -30.6243  -22.7793   15.1624 H   0  0  0  0  0  0
  -30.9128  -15.8847   17.9443 H   0  0  0  0  0  0
  -30.7622  -17.0154   16.6697 H   0  0  0  0  0  0
  -31.2705  -21.3128   17.2684 H   0  0  0  0  0  0
  -30.6246  -22.4094   18.3755 H   0  0  0  0  0  0
  -29.1351  -21.0292   16.0456 H   0  0  0  0  0  0
  -28.3331  -22.1455   17.1078 H   0  0  0  0  0  0
  -28.0765  -24.4951   21.6329 H   0  0  0  0  0  0
  -26.9719  -24.3340   20.3326 H   0  0  0  0  0  0
  -29.9201  -23.4127   20.1317 H   0  0  0  0  0  0
  -28.6546  -23.1317   18.9643 H   0  0  0  0  0  0
  -28.8296  -16.0323   20.9975 H   0  0  0  0  0  0
  1 25  1  0  0  0
  1 30  2  0  0  0
  1 88  1  0  0  0
  2  3  1  0  0  0
  2 25  1  0  0  0
  2 90  1  0  0  0
  2 91  1  0  0  0
  3  4  1  0  0  0
  3 92  1  0  0  0
  3 93  1  0  0  0
  4  5  1  0  0  0
  4 94  1  0  0  0
  4 95  1  0  0  0
  5  6  1  0  0  0
  5 26  1  0  0  0
  5 96  1  0  0  0
  6 25  1  0  0  0
  6 97  1  0  0  0
  6 98  1  0  0  0
  7  8  2  0  0  0
  7 26  1  0  0  0
  7 29  1  0  0  0
  8  9  1  0  0  0
  8 22  1  0  0  0
  9 10  1  0  0  0
  9 27  2  0  0  0
 10 11  2  0  0  0
 10 15  1  0  0  0
 11 12  1  0  0  0
 11 99  1  0  0  0
 12 13  2  0  0  0
 12100  1  0  0  0
 13 14  1  0  0  0
 13 31  1  0  0  0
 14 15  2  0  0  0
 14101  1  0  0  0
 15102  1  0  0  0
 16 17  2  0  0  0
 16 21  1  0  0  0
 16 31  1  0  0  0
 17 18  1  0  0  0
 17103  1  0  0  0
 18 19  2  0  0  0
 18104  1  0  0  0
 19 20  1  0  0  0
 19 24  1  0  0  0
 20 21  2  0  0  0
 20105  1  0  0  0
 21 23  1  0  0  0
 22 28  1  0  0  0
 22 32  2  0  0  0
 26 27  1  0  0  0
 28106  1  0  0  0
 28107  1  0  0  0
 29108  1  0  0  0
 29109  1  0  0  0
 33 34  1  0  0  0
 33 66  1  0  0  0
 33 70  2  0  0  0
 34 36  1  0  0  0
 34 59  1  0  0  0
 34110  1  0  0  0
 35 44  2  0  0  0
 35 45  1  0  0  0
 35 68  1  0  0  0
 36 56  1  0  0  0
 36111  1  0  0  0
 37 39  1  0  0  0
 37 47  1  0  0  0
 37 66  1  0  0  0
 37112  1  0  0  0
 38 43  2  0  0  0
 38 46  1  0  0  0
 38 47  1  0  0  0
 39 64  1  0  0  0
 39 67  2  0  0  0
 40 52  1  0  0  0
 40 53  2  0  0  0
 40 58  1  0  0  0
 41113  1  0  0  0
 41114  1  0  0  0
 41115  1  0  0  0
 41 48  1  0  0  0
 42 43  1  0  0  0
 42 66  1  0  0  0
 42116  1  0  0  0
 42117  1  0  0  0
 43 44  1  0  0  0
 44118  1  0  0  0
 45 46  2  0  0  0
 45119  1  0  0  0
 46120  1  0  0  0
 47121  1  0  0  0
 47122  1  0  0  0
 48 56  1  0  0  0
 48 65  1  0  0  0
 48123  1  0  0  0
 49 50  1  0  0  0
 49 53  1  0  0  0
 49 64  1  0  0  0
 49124  1  0  0  0
 50 51  1  0  0  0
 50125  1  0  0  0
 50126  1  0  0  0
 51 52  1  0  0  0
 51127  1  0  0  0
 51128  1  0  0  0
 52129  1  0  0  0
 52130  1  0  0  0
 53 54  1  0  0  0
 54 55  2  0  0  0
 54131  1  0  0  0
 55 57  1  0  0  0
 55132  1  0  0  0
 56 69  2  0  0  0
 57 58  2  0  0  0
 57133  1  0  0  0
 58134  1  0  0  0
 59 60  1  0  0  0
 59 61  1  0  0  0
 59 62  1  0  0  0
 60135  1  0  0  0
 60136  1  0  0  0
 60137  1  0  0  0
 61138  1  0  0  0
 61139  1  0  0  0
 61140  1  0  0  0
 62141  1  0  0  0
 62142  1  0  0  0
 62143  1  0  0  0
 63 65  1  0  0  0
 63144  1  0  0  0
 63145  1  0  0  0
 63146  1  0  0  0
 64147  1  0  0  0
 65148  1  0  0  0
 68 86  1  0  0  0
 71 73  2  0  0  0
 71 74  1  0  0  0
 71149  1  0  0  0
 72 75  2  0  0  0
 72 76  1  0  0  0
 72150  1  0  0  0
 73 75  1  0  0  0
 73 83  1  0  0  0
 74 76  2  0  0  0
 74 84  1  0  0  0
 75 88  1  0  0  0
 76 89  1  0  0  0
 77 78  1  0  0  0
 77 81  1  0  0  0
 77151  1  0  0  0
 77152  1  0  0  0
 78 81  1  0  0  0
 78153  1  0  0  0
 78154  1  0  0  0
 79 80  1  0  0  0
 79 82  1  0  0  0
 79155  1  0  0  0
 79156  1  0  0  0
 80 82  1  0  0  0
 80157  1  0  0  0
 80158  1  0  0  0
 81 83  1  0  0  0
 81159  1  0  0  0
 82 85  1  0  0  0
 82160  1  0  0  0
 83161  1  0  0  0
 83162  1  0  0  0
 84 85  1  0  0  0
 84163  1  0  0  0
 84164  1  0  0  0
 85165  1  0  0  0
 85166  1  0  0  0
 86 87  1  0  0  0
 86167  1  0  0  0
 86168  1  0  0  0
 87 89  1  0  0  0
 87169  1  0  0  0
 87170  1  0  0  0
 88171  1  0  0  0
M  ISO  4   1 100  68 101  86 101  88 100
M  END
> <chiral flag>
0

> <version>
0

> <s_m_source_file>
/data/baiqing/PycharmProjects/Reinvent-master-3.2/result/LINK_invent/BTK/process_docking_weight1_custom_sum_contain_oxygen_bond_distance_aromatic_linkinvent_7_9_3/rearranged_h_0136.sdf

> <i_m_source_file_index>
16

> <r_mmod_Potential_Energy-OPLS-2005>
819.951843261719

> <r_mmod_Stretch_Energy-OPLS-2005>
346.041046142578

> <r_mmod_Bend_Energy-OPLS-2005>
322.360870361328

> <r_mmod_Torsional_Energy-OPLS-2005>
336.086059570312

> <r_mmod_Improper_Torsional_Energy-OPLS-2005>
4.4191198348999

> <r_mmod_Van_der_Waal_Energy-OPLS-2005>
129.627410888672

> <r_mmod_Electrostatic_Energy-OPLS-2005>
-355.605682373047

> <r_mmod_Solvation_Energy-OPLS-2005>
-209.711288452148

> <b_mmod_Minimization_Converged-OPLS-2005>
0

> <r_mmod_RMS_Derivative-OPLS-2005>
2.79063987731934

$$$$
17
                    3D
 Structure written by MMmdl.
158167  0  0  1  0            999 V2000
  -30.5992  -14.7670   20.4653 C   0  0  0  0  0  0
  -30.4336  -12.4738   19.4722 C   0  0  0  0  0  0
  -29.5113  -12.5149   18.2361 C   0  0  0  0  0  0
  -28.0364  -12.3330   18.6471 C   0  0  0  0  0  0
  -27.6385  -13.2316   19.8490 C   0  0  2  0  0  0
  -28.6839  -13.1705   20.9823 C   0  0  0  0  0  0
  -25.2480  -13.8186   20.5688 C   0  0  0  0  0  0
  -24.1780  -13.0434   20.9219 C   0  0  0  0  0  0
  -24.6361  -11.6909   20.8739 C   0  0  0  0  0  0
  -23.9028  -10.4294   21.0383 C   0  0  0  0  0  0
  -24.3585   -9.4216   21.9168 C   0  0  0  0  0  0
  -23.6276   -8.2248   22.0750 C   0  0  0  0  0  0
  -22.4264   -8.0259   21.3541 C   0  0  0  0  0  0
  -21.9878   -9.0226   20.4645 C   0  0  0  0  0  0
  -22.7190  -10.2117   20.3040 C   0  0  0  0  0  0
  -21.6853   -6.0709   22.5268 C   0  0  0  0  0  0
  -21.4015   -6.5617   23.8194 C   0  0  0  0  0  0
  -21.3672   -5.6786   24.9167 C   0  0  0  0  0  0
  -21.6042   -4.3044   24.7226 C   0  0  0  0  0  0
  -21.8823   -3.8124   23.4349 C   0  0  0  0  0  0
  -21.9196   -4.6939   22.3401 C   0  0  0  0  0  0
  -22.7804  -13.5212   21.1884 C   0  0  0  0  0  0
  -22.1659   -4.2115   21.0983 F   0  0  0  0  0  0
  -21.5638   -3.4535   25.7747 F   0  0  0  0  0  0
  -29.9787  -13.5380   20.3959 N   0  0  0  0  0  0
  -26.2906  -12.9392   20.3272 N   0  0  0  0  0  0
  -25.9287  -11.6531   20.5740 N   0  0  0  0  0  0
  -22.0433  -12.8226   22.0438 N   0  0  0  0  0  0
  -25.4177  -15.1916   20.4114 N   0  0  0  0  0  0
  -31.7942  -14.8635   20.1723 O   0  0  0  0  0  0
  -21.6641   -6.8846   21.4225 O   0  0  0  0  0  0
  -22.3494  -14.5509   20.6694 O   0  0  0  0  0  0
  -24.6314  -31.8550   23.1977 C   0  0  0  0  0  0
  -25.9133  -32.4758   23.8330 C   0  0  1  0  0  0
  -27.2229  -27.2451   20.1381 C   0  0  0  0  0  0
  -25.5927  -33.8561   24.2255 N   0  0  0  0  0  0
  -23.4316  -30.4748   21.5400 C   0  0  2  0  0  0
  -24.8844  -28.9195   20.1105 C   0  0  0  0  0  0
  -22.7517  -29.4576   22.4897 C   0  0  0  0  0  0
  -18.0297  -28.1374   22.8488 C   0  0  0  0  0  0
  -24.1483  -36.7280   23.2635 C   0  0  0  0  0  0
  -25.9788  -30.7598   21.3832 C   0  0  0  0  0  0
  -26.0547  -29.3790   20.7293 C   0  0  0  0  0  0
  -27.2270  -28.5520   20.7419 C   0  0  0  0  0  0
  -26.0390  -26.8701   19.4661 C   0  0  0  0  0  0
  -24.8816  -27.6714   19.4687 C   0  0  0  0  0  0
  -23.6541  -29.8070   20.1564 C   0  0  0  0  0  0
  -25.4114  -36.3074   24.0323 C   0  0  1  0  0  0
  -20.5902  -28.3678   23.1258 C   0  0  2  0  0  0
  -20.6790  -26.9397   22.5395 C   0  0  0  0  0  0
  -19.5761  -26.6360   21.5197 C   0  0  0  0  0  0
  -18.1947  -26.7922   22.1619 C   0  0  0  0  0  0
  -19.1554  -28.8843   23.2874 C   0  0  0  0  0  0
  -18.9473  -30.1435   23.8909 C   0  0  0  0  0  0
  -17.6480  -30.6579   24.0561 C   0  0  0  0  0  0
  -25.9059  -34.9444   23.5093 C   0  0  0  0  0  0
  -16.5369  -29.9077   23.6338 C   0  0  0  0  0  0
  -16.7285  -28.6493   23.0354 C   0  0  0  0  0  0
  -26.4499  -31.6587   25.0719 C   0  0  0  0  0  0
  -25.3713  -31.3740   26.1431 C   0  0  0  0  0  0
  -27.0343  -30.2996   24.6220 C   0  0  0  0  0  0
  -27.6055  -32.4325   25.7498 C   0  0  0  0  0  0
  -27.5587  -37.1792   24.8452 C   0  0  0  0  0  0
  -21.4220  -29.3035   22.3658 N   0  0  0  0  0  0
  -26.4280  -37.3787   23.9420 N   0  0  0  0  0  0
  -24.6992  -31.0482   22.0967 N   0  0  0  0  0  0
  -23.4219  -28.8109   23.2989 O   0  0  0  0  0  0
  -28.2767  -26.2933   20.1778 O   0  0  0  0  0  0
  -26.5625  -34.8912   22.4660 O   0  0  0  0  0  0
  -23.5455  -32.1370   23.7258 O   0  0  0  0  0  0
  -26.7178  -23.4365   22.0165 C   0  0  0  0  0  0
  -27.0673  -24.7406   21.6379 C   0  0  0  0  0  0
  -27.3326  -22.3173   21.4192 C   0  0  0  0  0  0
  -28.4218  -22.5283   20.5371 C   0  0  0  0  0  0
  -28.0277  -24.9489   20.6346 C   0  0  0  0  0  0
  -26.0065  -20.2407   20.5385 C   0  0  0  0  0  0
  -25.2036  -20.7949   21.6858 C   0  0  0  0  0  0
  -26.7131  -20.9656   21.6668 C   0  0  0  0  0  0
  -29.3564  -18.6274   20.2413 C   0  0  0  0  0  0
  -29.6480  -20.1632   20.7324 C   0  0  0  0  0  0
  -30.2282  -17.3821   20.8511 C   0  0  0  0  0  0
  -28.7254  -23.8374   20.1359 N   0  0  0  0  0  0
  -29.1181  -21.3841   19.9757 N   0  0  0  0  0  0
  -29.8228  -15.9055   20.6735 N   0  0  0  0  0  0
  -31.4728  -12.6094   19.1660 H   0  0  0  0  0  0
  -30.3896  -11.4989   19.9602 H   0  0  0  0  0  0
  -29.8029  -11.7416   17.5253 H   0  0  0  0  0  0
  -29.6326  -13.4687   17.7195 H   0  0  0  0  0  0
  -27.8973  -11.2835   18.9099 H   0  0  0  0  0  0
  -27.3803  -12.5247   17.7964 H   0  0  0  0  0  0
  -27.6302  -14.2536   19.4688 H   0  0  0  0  0  0
  -28.7307  -12.1692   21.4137 H   0  0  0  0  0  0
  -28.4153  -13.8460   21.7970 H   0  0  0  0  0  0
  -25.2714   -9.5715   22.4758 H   0  0  0  0  0  0
  -23.9987   -7.4641   22.7456 H   0  0  0  0  0  0
  -21.0814   -8.8703   19.8960 H   0  0  0  0  0  0
  -22.3592  -10.9641   19.6159 H   0  0  0  0  0  0
  -21.1999   -7.6126   23.9682 H   0  0  0  0  0  0
  -21.1503   -6.0525   25.9072 H   0  0  0  0  0  0
  -22.0599   -2.7580   23.2858 H   0  0  0  0  0  0
  -22.4041  -11.9904   22.4872 H   0  0  0  0  0  0
  -21.1041  -13.1233   22.2598 H   0  0  0  0  0  0
  -24.6464  -15.8424   20.5150 H   0  0  0  0  0  0
  -26.2626  -15.6307   20.0686 H   0  0  0  0  0  0
  -26.7201  -32.5418   23.1079 H   0  0  0  0  0  0
  -25.0090  -33.9709   25.0411 H   0  0  0  0  0  0
  -22.7275  -31.2966   21.3930 H   0  0  0  0  0  0
  -23.3757  -35.9599   23.3271 H   0  0  0  0  0  0
  -24.3583  -36.8926   22.2055 H   0  0  0  0  0  0
  -23.7209  -37.6462   23.6674 H   0  0  0  0  0  0
  -26.1161  -31.5164   20.6097 H   0  0  0  0  0  0
  -26.8565  -30.8178   22.0144 H   0  0  0  0  0  0
  -28.1158  -28.8926   21.2542 H   0  0  0  0  0  0
  -25.9917  -25.9098   18.9706 H   0  0  0  0  0  0
  -23.9874  -27.3149   18.9752 H   0  0  0  0  0  0
  -23.7833  -30.5836   19.4021 H   0  0  0  0  0  0
  -22.7716  -29.2429   19.8474 H   0  0  0  0  0  0
  -25.1300  -36.1918   25.0816 H   0  0  0  0  0  0
  -20.9994  -28.3251   24.1383 H   0  0  0  0  0  0
  -20.5668  -26.2297   23.3604 H   0  0  0  0  0  0
  -21.6676  -26.7405   22.1235 H   0  0  0  0  0  0
  -19.6926  -25.6263   21.1255 H   0  0  0  0  0  0
  -19.6705  -27.3149   20.6716 H   0  0  0  0  0  0
  -17.4229  -26.6649   21.4020 H   0  0  0  0  0  0
  -18.0352  -26.0064   22.9008 H   0  0  0  0  0  0
  -19.7942  -30.7240   24.2302 H   0  0  0  0  0  0
  -17.5040  -31.6255   24.5170 H   0  0  0  0  0  0
  -15.5379  -30.2993   23.7663 H   0  0  0  0  0  0
  -15.8686  -28.0816   22.7076 H   0  0  0  0  0  0
  -24.5880  -30.7111   25.7743 H   0  0  0  0  0  0
  -24.8915  -32.2912   26.4855 H   0  0  0  0  0  0
  -25.8016  -30.8893   27.0205 H   0  0  0  0  0  0
  -26.2928  -29.6753   24.1213 H   0  0  0  0  0  0
  -27.3983  -29.7258   25.4758 H   0  0  0  0  0  0
  -27.8830  -30.4261   23.9489 H   0  0  0  0  0  0
  -27.2656  -33.3619   26.2082 H   0  0  0  0  0  0
  -28.3862  -32.6899   25.0325 H   0  0  0  0  0  0
  -28.0727  -31.8439   26.5405 H   0  0  0  0  0  0
  -28.2573  -38.0127   24.7582 H   0  0  0  0  0  0
  -28.1113  -36.2664   24.6179 H   0  0  0  0  0  0
  -27.2312  -37.1332   25.8853 H   0  0  0  0  0  0
  -20.9395  -29.8788   21.6902 H   0  0  0  0  0  0
  -26.0143  -38.2843   24.1474 H   0  0  0  0  0  0
  -25.9158  -23.2976   22.7267 H   0  0  0  0  0  0
  -26.5409  -25.5759   22.0774 H   0  0  0  0  0  0
  -25.9399  -20.7539   19.5802 H   0  0  0  0  0  0
  -26.0732  -19.1567   20.4808 H   0  0  0  0  0  0
  -24.7726  -20.0613   22.3652 H   0  0  0  0  0  0
  -24.5725  -21.6557   21.4713 H   0  0  0  0  0  0
  -27.2756  -20.3829   22.3930 H   0  0  0  0  0  0
  -29.4664  -18.5898   19.1563 H   0  0  0  0  0  0
  -28.3040  -18.4201   20.4282 H   0  0  0  0  0  0
  -30.7324  -20.2834   20.7167 H   0  0  0  0  0  0
  -29.3931  -20.2552   21.7876 H   0  0  0  0  0  0
  -30.2883  -17.5336   21.9300 H   0  0  0  0  0  0
  -31.2566  -17.4935   20.5040 H   0  0  0  0  0  0
  -29.7188  -21.6429   19.1996 H   0  0  0  0  0  0
  -28.8465  -15.7083   20.8388 H   0  0  0  0  0  0
  1 25  1  0  0  0
  1 30  2  0  0  0
  1 84  1  0  0  0
  2  3  1  0  0  0
  2 25  1  0  0  0
  2 85  1  0  0  0
  2 86  1  0  0  0
  3  4  1  0  0  0
  3 87  1  0  0  0
  3 88  1  0  0  0
  4  5  1  0  0  0
  4 89  1  0  0  0
  4 90  1  0  0  0
  5  6  1  0  0  0
  5 26  1  0  0  0
  5 91  1  0  0  0
  6 25  1  0  0  0
  6 92  1  0  0  0
  6 93  1  0  0  0
  7  8  2  0  0  0
  7 26  1  0  0  0
  7 29  1  0  0  0
  8  9  1  0  0  0
  8 22  1  0  0  0
  9 10  1  0  0  0
  9 27  2  0  0  0
 10 11  2  0  0  0
 10 15  1  0  0  0
 11 12  1  0  0  0
 11 94  1  0  0  0
 12 13  2  0  0  0
 12 95  1  0  0  0
 13 14  1  0  0  0
 13 31  1  0  0  0
 14 15  2  0  0  0
 14 96  1  0  0  0
 15 97  1  0  0  0
 16 17  2  0  0  0
 16 21  1  0  0  0
 16 31  1  0  0  0
 17 18  1  0  0  0
 17 98  1  0  0  0
 18 19  2  0  0  0
 18 99  1  0  0  0
 19 20  1  0  0  0
 19 24  1  0  0  0
 20 21  2  0  0  0
 20100  1  0  0  0
 21 23  1  0  0  0
 22 28  1  0  0  0
 22 32  2  0  0  0
 26 27  1  0  0  0
 28101  1  0  0  0
 28102  1  0  0  0
 29103  1  0  0  0
 29104  1  0  0  0
 33 34  1  0  0  0
 33 66  1  0  0  0
 33 70  2  0  0  0
 34 36  1  0  0  0
 34 59  1  0  0  0
 34105  1  0  0  0
 35 44  2  0  0  0
 35 45  1  0  0  0
 35 68  1  0  0  0
 36 56  1  0  0  0
 36106  1  0  0  0
 37 39  1  0  0  0
 37 47  1  0  0  0
 37 66  1  0  0  0
 37107  1  0  0  0
 38 43  2  0  0  0
 38 46  1  0  0  0
 38 47  1  0  0  0
 39 64  1  0  0  0
 39 67  2  0  0  0
 40 52  1  0  0  0
 40 53  2  0  0  0
 40 58  1  0  0  0
 41108  1  0  0  0
 41109  1  0  0  0
 41110  1  0  0  0
 41 48  1  0  0  0
 42 43  1  0  0  0
 42 66  1  0  0  0
 42111  1  0  0  0
 42112  1  0  0  0
 43 44  1  0  0  0
 44113  1  0  0  0
 45 46  2  0  0  0
 45114  1  0  0  0
 46115  1  0  0  0
 47116  1  0  0  0
 47117  1  0  0  0
 48 56  1  0  0  0
 48 65  1  0  0  0
 48118  1  0  0  0
 49 50  1  0  0  0
 49 53  1  0  0  0
 49 64  1  0  0  0
 49119  1  0  0  0
 50 51  1  0  0  0
 50120  1  0  0  0
 50121  1  0  0  0
 51 52  1  0  0  0
 51122  1  0  0  0
 51123  1  0  0  0
 52124  1  0  0  0
 52125  1  0  0  0
 53 54  1  0  0  0
 54 55  2  0  0  0
 54126  1  0  0  0
 55 57  1  0  0  0
 55127  1  0  0  0
 56 69  2  0  0  0
 57 58  2  0  0  0
 57128  1  0  0  0
 58129  1  0  0  0
 59 60  1  0  0  0
 59 61  1  0  0  0
 59 62  1  0  0  0
 60130  1  0  0  0
 60131  1  0  0  0
 60132  1  0  0  0
 61133  1  0  0  0
 61134  1  0  0  0
 61135  1  0  0  0
 62136  1  0  0  0
 62137  1  0  0  0
 62138  1  0  0  0
 63 65  1  0  0  0
 63139  1  0  0  0
 63140  1  0  0  0
 63141  1  0  0  0
 64142  1  0  0  0
 65143  1  0  0  0
 68 75  1  0  0  0
 71 72  2  0  0  0
 71 73  1  0  0  0
 71144  1  0  0  0
 72 75  1  0  0  0
 72145  1  0  0  0
 73 74  2  0  0  0
 73 78  1  0  0  0
 74 82  1  0  0  0
 74 83  1  0  0  0
 75 82  2  0  0  0
 76 77  1  0  0  0
 76 78  1  0  0  0
 76146  1  0  0  0
 76147  1  0  0  0
 77 78  1  0  0  0
 77148  1  0  0  0
 77149  1  0  0  0
 78150  1  0  0  0
 79 80  1  0  0  0
 79 81  1  0  0  0
 79151  1  0  0  0
 79152  1  0  0  0
 80 83  1  0  0  0
 80153  1  0  0  0
 80154  1  0  0  0
 81 84  1  0  0  0
 81155  1  0  0  0
 81156  1  0  0  0
 83157  1  0  0  0
 84158  1  0  0  0
M  ISO  4   1 100  68 101  75 101  84 100
M  END
> <chiral flag>
0

> <version>
0

> <s_m_source_file>
/data/baiqing/PycharmProjects/Reinvent-master-3.2/result/LINK_invent/BTK/process_docking_weight1_custom_sum_contain_oxygen_bond_distance_aromatic_linkinvent_7_9_3/rearranged_h_0136.sdf

> <i_m_source_file_index>
17

> <r_mmod_Potential_Energy-OPLS-2005>
43.5666770935059

> <r_mmod_Stretch_Energy-OPLS-2005>
138.464691162109

> <r_mmod_Bend_Energy-OPLS-2005>
177.433303833008

> <r_mmod_Torsional_Energy-OPLS-2005>
248.221237182617

> <r_mmod_Improper_Torsional_Energy-OPLS-2005>
7.7385425567627

> <r_mmod_Van_der_Waal_Energy-OPLS-2005>
135.164840698242

> <r_mmod_Electrostatic_Energy-OPLS-2005>
-533.37353515625

> <r_mmod_Solvation_Energy-OPLS-2005>
-230.500244140625

> <b_mmod_Minimization_Converged-OPLS-2005>
0

> <r_mmod_RMS_Derivative-OPLS-2005>
2.40540742874146

$$$$
18
                    3D
 Structure written by MMmdl.
165174  0  0  1  0            999 V2000
  -30.7715  -14.3583   20.6807 C   0  0  0  0  0  0
  -30.4146  -12.2870   19.3909 C   0  0  0  0  0  0
  -29.4792  -12.5238   18.1909 C   0  0  0  0  0  0
  -28.0050  -12.3836   18.6109 C   0  0  0  0  0  0
  -27.6671  -13.2041   19.8825 C   0  0  2  0  0  0
  -28.7051  -12.9458   20.9959 C   0  0  0  0  0  0
  -25.2613  -13.8164   20.5689 C   0  0  0  0  0  0
  -24.1855  -13.0446   20.9168 C   0  0  0  0  0  0
  -24.6394  -11.6908   20.8730 C   0  0  0  0  0  0
  -23.9061  -10.4298   21.0402 C   0  0  0  0  0  0
  -24.3613   -9.4215   21.9183 C   0  0  0  0  0  0
  -23.6291   -8.2253   22.0761 C   0  0  0  0  0  0
  -22.4281   -8.0284   21.3538 C   0  0  0  0  0  0
  -21.9907   -9.0261   20.4648 C   0  0  0  0  0  0
  -22.7232  -10.2138   20.3055 C   0  0  0  0  0  0
  -21.6845   -6.0741   22.5284 C   0  0  0  0  0  0
  -21.4011   -6.5644   23.8219 C   0  0  0  0  0  0
  -21.3657   -5.6795   24.9179 C   0  0  0  0  0  0
  -21.6044   -4.3060   24.7227 C   0  0  0  0  0  0
  -21.8816   -3.8150   23.4350 C   0  0  0  0  0  0
  -21.9196   -4.6969   22.3406 C   0  0  0  0  0  0
  -22.7872  -13.5237   21.1826 C   0  0  0  0  0  0
  -22.1661   -4.2154   21.0985 F   0  0  0  0  0  0
  -21.5631   -3.4545   25.7744 F   0  0  0  0  0  0
  -30.0470  -13.2325   20.4556 N   0  0  0  0  0  0
  -26.3056  -12.9331   20.3405 N   0  0  0  0  0  0
  -25.9323  -11.6488   20.5769 N   0  0  0  0  0  0
  -22.0514  -12.8245   22.0388 N   0  0  0  0  0  0
  -25.4348  -15.1888   20.4109 N   0  0  0  0  0  0
  -31.7948  -14.6420   20.0510 O   0  0  0  0  0  0
  -21.6636   -6.8886   21.4244 O   0  0  0  0  0  0
  -22.3560  -14.5545   20.6671 O   0  0  0  0  0  0
  -24.6118  -31.8717   23.2153 C   0  0  0  0  0  0
  -25.9028  -32.4843   23.8437 C   0  0  1  0  0  0
  -27.2332  -27.4819   20.0763 C   0  0  0  0  0  0
  -25.5902  -33.8639   24.2375 N   0  0  0  0  0  0
  -23.3971  -30.4961   21.5567 C   0  0  2  0  0  0
  -24.8408  -28.9627   20.1196 C   0  0  0  0  0  0
  -22.7386  -29.4693   22.5042 C   0  0  0  0  0  0
  -18.0264  -28.1394   22.8508 C   0  0  0  0  0  0
  -24.1483  -36.7320   23.2642 C   0  0  0  0  0  0
  -25.9204  -30.8495   21.3628 C   0  0  0  0  0  0
  -25.9978  -29.4850   20.7128 C   0  0  0  0  0  0
  -27.1993  -28.7490   20.6961 C   0  0  0  0  0  0
  -26.0677  -26.9616   19.4822 C   0  0  0  0  0  0
  -24.8660  -27.6949   19.5089 C   0  0  0  0  0  0
  -23.6002  -29.8245   20.1716 C   0  0  0  0  0  0
  -25.4105  -36.3118   24.0342 C   0  0  1  0  0  0
  -20.5847  -28.3678   23.1329 C   0  0  2  0  0  0
  -20.6752  -26.9421   22.5426 C   0  0  0  0  0  0
  -19.5730  -26.6394   21.5230 C   0  0  0  0  0  0
  -18.1899  -26.7942   22.1628 C   0  0  0  0  0  0
  -19.1510  -28.8850   23.2915 C   0  0  0  0  0  0
  -18.9443  -30.1448   23.8936 C   0  0  0  0  0  0
  -17.6450  -30.6599   24.0574 C   0  0  0  0  0  0
  -25.9026  -34.9481   23.5148 C   0  0  0  0  0  0
  -16.5344  -29.9103   23.6341 C   0  0  0  0  0  0
  -16.7253  -28.6514   23.0377 C   0  0  0  0  0  0
  -26.4485  -31.6605   25.0743 C   0  0  0  0  0  0
  -25.3768  -31.3634   26.1484 C   0  0  0  0  0  0
  -27.0348  -30.3068   24.6100 C   0  0  0  0  0  0
  -27.6080  -32.4324   25.7483 C   0  0  0  0  0  0
  -27.5576  -37.1805   24.8472 C   0  0  0  0  0  0
  -21.4123  -29.3037   22.3747 N   0  0  0  0  0  0
  -26.4298  -37.3799   23.9404 N   0  0  0  0  0  0
  -24.6615  -31.0840   22.1051 N   0  0  0  0  0  0
  -23.4171  -28.8243   23.3085 O   0  0  0  0  0  0
  -28.3932  -26.7602   20.0087 O   0  0  0  0  0  0
  -26.5591  -34.8938   22.4711 O   0  0  0  0  0  0
  -23.5322  -32.1463   23.7564 O   0  0  0  0  0  0
  -27.8018  -24.0677   22.1692 C   0  0  0  0  0  0
  -27.7012  -22.6655   22.2377 C   0  0  0  0  0  0
  -29.3045  -22.4613   20.4293 C   0  0  0  0  0  0
  -28.6744  -24.6797   21.2472 C   0  0  0  0  0  0
  -29.4201  -23.8680   20.3586 C   0  0  0  0  0  0
  -28.4757  -21.8352   21.3931 C   0  0  0  0  0  0
  -29.1781  -18.7167   22.9981 C   0  0  0  0  0  0
  -28.1707  -19.8546   22.8462 C   0  0  0  0  0  0
  -29.3242  -19.5622   20.7696 C   0  0  0  0  0  0
  -29.4442  -18.2534   21.5635 C   0  0  1  0  0  0
  -30.3608  -24.4767   19.3302 C   0  0  0  0  0  0
  -28.8075  -26.1968   21.2458 C   0  0  0  0  0  0
  -30.8165  -17.5771   21.3706 C   0  0  0  0  0  0
  -31.0446  -16.3006   22.2045 C   0  0  0  0  0  0
  -28.4176  -20.4281   21.5251 N   0  0  0  0  0  0
  -30.3334  -15.1370   21.6785 N   0  0  0  0  0  0
  -31.4560  -12.3900   19.0792 H   0  0  0  0  0  0
  -30.3172  -11.2627   19.7544 H   0  0  0  0  0  0
  -29.7049  -11.8191   17.3890 H   0  0  0  0  0  0
  -29.6526  -13.5203   17.7816 H   0  0  0  0  0  0
  -27.8067  -11.3261   18.7888 H   0  0  0  0  0  0
  -27.3517  -12.6816   17.7902 H   0  0  0  0  0  0
  -27.7266  -14.2587   19.6115 H   0  0  0  0  0  0
  -28.6655  -11.9032   21.3159 H   0  0  0  0  0  0
  -28.4559  -13.5271   21.8833 H   0  0  0  0  0  0
  -25.2749   -9.5701   22.4764 H   0  0  0  0  0  0
  -23.9999   -7.4649   22.7482 H   0  0  0  0  0  0
  -21.0838   -8.8769   19.8957 H   0  0  0  0  0  0
  -22.3674  -10.9681   19.6177 H   0  0  0  0  0  0
  -21.1994   -7.6150   23.9721 H   0  0  0  0  0  0
  -21.1482   -6.0528   25.9082 H   0  0  0  0  0  0
  -22.0599   -2.7616   23.2851 H   0  0  0  0  0  0
  -22.4117  -11.9895   22.4776 H   0  0  0  0  0  0
  -21.1139  -13.1287   22.2596 H   0  0  0  0  0  0
  -24.6730  -15.8486   20.5244 H   0  0  0  0  0  0
  -26.2977  -15.6260   20.1131 H   0  0  0  0  0  0
  -26.7112  -32.5561   23.1224 H   0  0  0  0  0  0
  -25.0050  -33.9820   25.0510 H   0  0  0  0  0  0
  -22.6837  -31.3107   21.4182 H   0  0  0  0  0  0
  -23.3760  -35.9640   23.3310 H   0  0  0  0  0  0
  -24.3569  -36.8947   22.2062 H   0  0  0  0  0  0
  -23.7232  -37.6514   23.6680 H   0  0  0  0  0  0
  -26.0257  -31.6210   20.5978 H   0  0  0  0  0  0
  -26.8116  -30.9037   21.9774 H   0  0  0  0  0  0
  -28.0980  -29.1551   21.1401 H   0  0  0  0  0  0
  -26.0922  -25.9942   19.0000 H   0  0  0  0  0  0
  -23.9744  -27.2880   19.0533 H   0  0  0  0  0  0
  -23.7031  -30.5999   19.4116 H   0  0  0  0  0  0
  -22.7262  -29.2405   19.8820 H   0  0  0  0  0  0
  -25.1287  -36.1991   25.0836 H   0  0  0  0  0  0
  -20.9927  -28.3254   24.1459 H   0  0  0  0  0  0
  -20.5660  -26.2307   23.3616 H   0  0  0  0  0  0
  -21.6624  -26.7461   22.1221 H   0  0  0  0  0  0
  -19.6885  -25.6307   21.1253 H   0  0  0  0  0  0
  -19.6658  -27.3211   20.6758 H   0  0  0  0  0  0
  -17.4176  -26.6749   21.4012 H   0  0  0  0  0  0
  -18.0240  -26.0071   22.9002 H   0  0  0  0  0  0
  -19.7921  -30.7251   24.2339 H   0  0  0  0  0  0
  -17.5012  -31.6282   24.5175 H   0  0  0  0  0  0
  -15.5342  -30.3025   23.7636 H   0  0  0  0  0  0
  -15.8656  -28.0824   22.7107 H   0  0  0  0  0  0
  -24.6003  -30.6927   25.7784 H   0  0  0  0  0  0
  -24.8880  -32.2747   26.4943 H   0  0  0  0  0  0
  -25.8138  -30.8801   27.0231 H   0  0  0  0  0  0
  -26.2872  -29.6754   24.1286 H   0  0  0  0  0  0
  -27.4292  -29.7375   25.4527 H   0  0  0  0  0  0
  -27.8629  -30.4434   23.9139 H   0  0  0  0  0  0
  -27.2751  -33.3651   26.2054 H   0  0  0  0  0  0
  -28.3872  -32.6831   25.0269 H   0  0  0  0  0  0
  -28.0788  -31.8457   26.5389 H   0  0  0  0  0  0
  -28.2609  -38.0094   24.7525 H   0  0  0  0  0  0
  -28.1064  -36.2619   24.6304 H   0  0  0  0  0  0
  -27.2295  -37.1473   25.8881 H   0  0  0  0  0  0
  -20.9285  -29.8733   21.6944 H   0  0  0  0  0  0
  -26.0192  -38.2881   24.1408 H   0  0  0  0  0  0
  -27.2114  -24.6709   22.8435 H   0  0  0  0  0  0
  -27.0224  -22.2431   22.9644 H   0  0  0  0  0  0
  -29.8842  -21.8734   19.7327 H   0  0  0  0  0  0
  -28.8132  -17.9194   23.6462 H   0  0  0  0  0  0
  -30.0963  -19.1066   23.4411 H   0  0  0  0  0  0
  -28.2916  -20.5709   23.6605 H   0  0  0  0  0  0
  -27.1482  -19.4739   22.8849 H   0  0  0  0  0  0
  -28.9539  -19.3882   19.7572 H   0  0  0  0  0  0
  -30.3103  -20.0201   20.6868 H   0  0  0  0  0  0
  -28.6454  -17.5759   21.2538 H   0  0  0  0  0  0
  -30.9636  -23.7125   18.8370 H   0  0  0  0  0  0
  -31.0482  -25.1829   19.7968 H   0  0  0  0  0  0
  -29.7985  -25.0035   18.5591 H   0  0  0  0  0  0
  -29.8482  -26.4654   21.4243 H   0  0  0  0  0  0
  -28.2546  -26.6127   22.0909 H   0  0  0  0  0  0
  -31.5957  -18.2932   21.6338 H   0  0  0  0  0  0
  -30.9718  -17.3614   20.3122 H   0  0  0  0  0  0
  -30.7553  -16.4598   23.2438 H   0  0  0  0  0  0
  -32.1134  -16.0808   22.2347 H   0  0  0  0  0  0
  -29.4962  -14.8411   22.1588 H   0  0  0  0  0  0
  1 25  1  0  0  0
  1 30  2  0  0  0
  1 86  1  0  0  0
  2  3  1  0  0  0
  2 25  1  0  0  0
  2 87  1  0  0  0
  2 88  1  0  0  0
  3  4  1  0  0  0
  3 89  1  0  0  0
  3 90  1  0  0  0
  4  5  1  0  0  0
  4 91  1  0  0  0
  4 92  1  0  0  0
  5  6  1  0  0  0
  5 26  1  0  0  0
  5 93  1  0  0  0
  6 25  1  0  0  0
  6 94  1  0  0  0
  6 95  1  0  0  0
  7  8  2  0  0  0
  7 26  1  0  0  0
  7 29  1  0  0  0
  8  9  1  0  0  0
  8 22  1  0  0  0
  9 10  1  0  0  0
  9 27  2  0  0  0
 10 11  2  0  0  0
 10 15  1  0  0  0
 11 12  1  0  0  0
 11 96  1  0  0  0
 12 13  2  0  0  0
 12 97  1  0  0  0
 13 14  1  0  0  0
 13 31  1  0  0  0
 14 15  2  0  0  0
 14 98  1  0  0  0
 15 99  1  0  0  0
 16 17  2  0  0  0
 16 21  1  0  0  0
 16 31  1  0  0  0
 17 18  1  0  0  0
 17100  1  0  0  0
 18 19  2  0  0  0
 18101  1  0  0  0
 19 20  1  0  0  0
 19 24  1  0  0  0
 20 21  2  0  0  0
 20102  1  0  0  0
 21 23  1  0  0  0
 22 28  1  0  0  0
 22 32  2  0  0  0
 26 27  1  0  0  0
 28103  1  0  0  0
 28104  1  0  0  0
 29105  1  0  0  0
 29106  1  0  0  0
 33 34  1  0  0  0
 33 66  1  0  0  0
 33 70  2  0  0  0
 34 36  1  0  0  0
 34 59  1  0  0  0
 34107  1  0  0  0
 35 44  2  0  0  0
 35 45  1  0  0  0
 35 68  1  0  0  0
 36 56  1  0  0  0
 36108  1  0  0  0
 37 39  1  0  0  0
 37 47  1  0  0  0
 37 66  1  0  0  0
 37109  1  0  0  0
 38 43  2  0  0  0
 38 46  1  0  0  0
 38 47  1  0  0  0
 39 64  1  0  0  0
 39 67  2  0  0  0
 40 52  1  0  0  0
 40 53  2  0  0  0
 40 58  1  0  0  0
 41110  1  0  0  0
 41111  1  0  0  0
 41112  1  0  0  0
 41 48  1  0  0  0
 42 43  1  0  0  0
 42 66  1  0  0  0
 42113  1  0  0  0
 42114  1  0  0  0
 43 44  1  0  0  0
 44115  1  0  0  0
 45 46  2  0  0  0
 45116  1  0  0  0
 46117  1  0  0  0
 47118  1  0  0  0
 47119  1  0  0  0
 48 56  1  0  0  0
 48 65  1  0  0  0
 48120  1  0  0  0
 49 50  1  0  0  0
 49 53  1  0  0  0
 49 64  1  0  0  0
 49121  1  0  0  0
 50 51  1  0  0  0
 50122  1  0  0  0
 50123  1  0  0  0
 51 52  1  0  0  0
 51124  1  0  0  0
 51125  1  0  0  0
 52126  1  0  0  0
 52127  1  0  0  0
 53 54  1  0  0  0
 54 55  2  0  0  0
 54128  1  0  0  0
 55 57  1  0  0  0
 55129  1  0  0  0
 56 69  2  0  0  0
 57 58  2  0  0  0
 57130  1  0  0  0
 58131  1  0  0  0
 59 60  1  0  0  0
 59 61  1  0  0  0
 59 62  1  0  0  0
 60132  1  0  0  0
 60133  1  0  0  0
 60134  1  0  0  0
 61135  1  0  0  0
 61136  1  0  0  0
 61137  1  0  0  0
 62138  1  0  0  0
 62139  1  0  0  0
 62140  1  0  0  0
 63 65  1  0  0  0
 63141  1  0  0  0
 63142  1  0  0  0
 63143  1  0  0  0
 64144  1  0  0  0
 65145  1  0  0  0
 68 82  1  0  0  0
 71 72  2  0  0  0
 71 74  1  0  0  0
 71146  1  0  0  0
 72 76  1  0  0  0
 72147  1  0  0  0
 73 75  1  0  0  0
 73 76  2  0  0  0
 73148  1  0  0  0
 74 75  2  0  0  0
 74 82  1  0  0  0
 75 81  1  0  0  0
 76 85  1  0  0  0
 77 78  1  0  0  0
 77 80  1  0  0  0
 77149  1  0  0  0
 77150  1  0  0  0
 78 85  1  0  0  0
 78151  1  0  0  0
 78152  1  0  0  0
 79 80  1  0  0  0
 79 85  1  0  0  0
 79153  1  0  0  0
 79154  1  0  0  0
 80 83  1  0  0  0
 80155  1  0  0  0
 81156  1  0  0  0
 81157  1  0  0  0
 81158  1  0  0  0
 82159  1  0  0  0
 82160  1  0  0  0
 83 84  1  0  0  0
 83161  1  0  0  0
 83162  1  0  0  0
 84 86  1  0  0  0
 84163  1  0  0  0
 84164  1  0  0  0
 86165  1  0  0  0
M  ISO  4   1 100  68 101  82 101  86 100
M  END
> <chiral flag>
0

> <version>
0

> <s_m_source_file>
/data/baiqing/PycharmProjects/Reinvent-master-3.2/result/LINK_invent/BTK/process_docking_weight1_custom_sum_contain_oxygen_bond_distance_aromatic_linkinvent_7_9_3/rearranged_h_0136.sdf

> <i_m_source_file_index>
18

> <r_mmod_Potential_Energy-OPLS-2005>
16.3457050323486

> <r_mmod_Stretch_Energy-OPLS-2005>
32.5352554321289

> <r_mmod_Bend_Energy-OPLS-2005>
119.279563903809

> <r_mmod_Torsional_Energy-OPLS-2005>
289.900085449219

> <r_mmod_Improper_Torsional_Energy-OPLS-2005>
5.16972923278809

> <r_mmod_Van_der_Waal_Energy-OPLS-2005>
158.027847290039

> <r_mmod_Electrostatic_Energy-OPLS-2005>
-371.525726318359

> <r_mmod_Solvation_Energy-OPLS-2005>
-223.157287597656

> <b_mmod_Minimization_Converged-OPLS-2005>
0

> <r_mmod_RMS_Derivative-OPLS-2005>
2.3103621006012

$$$$
19
                    3D
 Structure written by MMmdl.
155164  0  0  1  0            999 V2000
  -30.5155  -14.9055   20.4356 C   0  0  0  0  0  0
  -30.4578  -12.5552   19.4925 C   0  0  0  0  0  0
  -29.5250  -12.5239   18.2571 C   0  0  0  0  0  0
  -28.0564  -12.3117   18.6752 C   0  0  0  0  0  0
  -27.6396  -13.2352   19.8487 C   0  0  2  0  0  0
  -28.6859  -13.2087   20.9848 C   0  0  0  0  0  0
  -25.2514  -13.8189   20.5713 C   0  0  0  0  0  0
  -24.1804  -13.0428   20.9212 C   0  0  0  0  0  0
  -24.6393  -11.6909   20.8753 C   0  0  0  0  0  0
  -23.9069  -10.4287   21.0399 C   0  0  0  0  0  0
  -24.3613   -9.4199   21.9180 C   0  0  0  0  0  0
  -23.6284   -8.2236   22.0753 C   0  0  0  0  0  0
  -22.4267   -8.0273   21.3544 C   0  0  0  0  0  0
  -21.9904   -9.0240   20.4643 C   0  0  0  0  0  0
  -22.7237  -10.2125   20.3050 C   0  0  0  0  0  0
  -21.6845   -6.0728   22.5273 C   0  0  0  0  0  0
  -21.4013   -6.5634   23.8205 C   0  0  0  0  0  0
  -21.3659   -5.6785   24.9166 C   0  0  0  0  0  0
  -21.6039   -4.3044   24.7221 C   0  0  0  0  0  0
  -21.8818   -3.8142   23.4337 C   0  0  0  0  0  0
  -21.9195   -4.6962   22.3395 C   0  0  0  0  0  0
  -22.7823  -13.5211   21.1856 C   0  0  0  0  0  0
  -22.1659   -4.2150   21.0967 F   0  0  0  0  0  0
  -21.5634   -3.4525   25.7734 F   0  0  0  0  0  0
  -29.9716  -13.6247   20.4052 N   0  0  0  0  0  0
  -26.2937  -12.9398   20.3289 N   0  0  0  0  0  0
  -25.9333  -11.6540   20.5761 N   0  0  0  0  0  0
  -22.0455  -12.8222   22.0420 N   0  0  0  0  0  0
  -25.4181  -15.1922   20.4130 N   0  0  0  0  0  0
  -31.7008  -15.0475   20.1113 O   0  0  0  0  0  0
  -21.6624   -6.8869   21.4231 O   0  0  0  0  0  0
  -22.3513  -14.5514   20.6696 O   0  0  0  0  0  0
  -24.6441  -31.8442   23.1896 C   0  0  0  0  0  0
  -25.9210  -32.4694   23.8290 C   0  0  1  0  0  0
  -27.2206  -27.1431   20.1461 C   0  0  0  0  0  0
  -25.5968  -33.8498   24.2192 N   0  0  0  0  0  0
  -23.4484  -30.4632   21.5381 C   0  0  2  0  0  0
  -24.8958  -28.8943   20.1134 C   0  0  0  0  0  0
  -22.7594  -29.4504   22.4876 C   0  0  0  0  0  0
  -18.0310  -28.1354   22.8480 C   0  0  0  0  0  0
  -24.1486  -36.7218   23.2656 C   0  0  0  0  0  0
  -26.0055  -30.7199   21.3872 C   0  0  0  0  0  0
  -26.0754  -29.3327   20.7267 C   0  0  0  0  0  0
  -27.2385  -28.4749   20.7241 C   0  0  0  0  0  0
  -26.0087  -26.8045   19.5004 C   0  0  0  0  0  0
  -24.8737  -27.6411   19.4867 C   0  0  0  0  0  0
  -23.6742  -29.7970   20.1559 C   0  0  0  0  0  0
  -25.4120  -36.3007   24.0334 C   0  0  1  0  0  0
  -20.5933  -28.3665   23.1240 C   0  0  2  0  0  0
  -20.6776  -26.9370   22.5385 C   0  0  0  0  0  0
  -19.5748  -26.6332   21.5193 C   0  0  0  0  0  0
  -18.1938  -26.7898   22.1610 C   0  0  0  0  0  0
  -19.1580  -28.8836   23.2839 C   0  0  0  0  0  0
  -18.9491  -30.1451   23.8821 C   0  0  0  0  0  0
  -17.6484  -30.6546   24.0565 C   0  0  0  0  0  0
  -25.9070  -34.9396   23.5060 C   0  0  0  0  0  0
  -16.5374  -29.9035   23.6343 C   0  0  0  0  0  0
  -16.7293  -28.6470   23.0328 C   0  0  0  0  0  0
  -26.4546  -31.6559   25.0727 C   0  0  0  0  0  0
  -25.3732  -31.3755   26.1426 C   0  0  0  0  0  0
  -27.0443  -30.2973   24.6291 C   0  0  0  0  0  0
  -27.6078  -32.4337   25.7498 C   0  0  0  0  0  0
  -27.5568  -37.1757   24.8489 C   0  0  0  0  0  0
  -21.4285  -29.3001   22.3646 N   0  0  0  0  0  0
  -26.4271  -37.3722   23.9447 N   0  0  0  0  0  0
  -24.7190  -31.0305   22.0929 N   0  0  0  0  0  0
  -23.4255  -28.8031   23.2993 O   0  0  0  0  0  0
  -28.2809  -26.1635   20.1967 O   0  0  0  0  0  0
  -26.5650  -34.8902   22.4630 O   0  0  0  0  0  0
  -23.5549  -32.1309   23.7104 O   0  0  0  0  0  0
  -30.3806  -18.5010   19.9823 C   0  0  0  0  0  0
  -30.0717  -19.9373   19.9456 C   0  0  0  0  0  0
  -28.3929  -18.1266   21.1884 C   0  0  0  0  0  0
  -28.0708  -19.5355   21.1512 C   0  0  0  0  0  0
  -29.5396  -17.5086   20.6055 C   0  0  0  0  0  0
  -28.8864  -20.5327   20.5174 C   0  0  0  0  0  0
  -25.5709  -19.1313   21.9442 C   0  0  0  0  0  0
  -25.5761  -20.3536   21.0601 C   0  0  0  0  0  0
  -26.8150  -19.9897   21.8467 C   0  0  0  0  0  0
  -27.9704  -24.6371   20.1896 C   0  0  0  0  0  0
  -28.9823  -23.2884   20.2373 C   0  0  0  0  0  0
  -29.6381  -15.9817   20.6905 N   0  0  0  0  0  0
  -28.3785  -21.9082   20.5121 O   0  0  0  0  0  0
  -31.4874  -12.7320   19.1777 H   0  0  0  0  0  0
  -30.4656  -11.5892   20.0008 H   0  0  0  0  0  0
  -29.8346  -11.7362   17.5700 H   0  0  0  0  0  0
  -29.6162  -13.4635   17.7109 H   0  0  0  0  0  0
  -27.9503  -11.2682   18.9764 H   0  0  0  0  0  0
  -27.3897  -12.4517   17.8231 H   0  0  0  0  0  0
  -27.6175  -14.2455   19.4403 H   0  0  0  0  0  0
  -28.7604  -12.2086   21.4158 H   0  0  0  0  0  0
  -28.3919  -13.8703   21.8001 H   0  0  0  0  0  0
  -25.2750   -9.5682   22.4768 H   0  0  0  0  0  0
  -23.9980   -7.4629   22.7488 H   0  0  0  0  0  0
  -21.0832   -8.8758   19.8957 H   0  0  0  0  0  0
  -22.3682  -10.9662   19.6173 H   0  0  0  0  0  0
  -21.1992   -7.6143   23.9715 H   0  0  0  0  0  0
  -21.1485   -6.0509   25.9072 H   0  0  0  0  0  0
  -22.0604   -2.7606   23.2821 H   0  0  0  0  0  0
  -22.4043  -11.9866   22.4805 H   0  0  0  0  0  0
  -21.1102  -13.1298   22.2637 H   0  0  0  0  0  0
  -24.6391  -15.8359   20.4976 H   0  0  0  0  0  0
  -26.2516  -15.6292   20.0436 H   0  0  0  0  0  0
  -26.7284  -32.5291   23.1019 H   0  0  0  0  0  0
  -25.0196  -33.9632   25.0406 H   0  0  0  0  0  0
  -22.7491  -31.2884   21.3859 H   0  0  0  0  0  0
  -23.3768  -35.9522   23.3268 H   0  0  0  0  0  0
  -24.3593  -36.8870   22.2078 H   0  0  0  0  0  0
  -23.7196  -37.6389   23.6706 H   0  0  0  0  0  0
  -26.1662  -31.4747   20.6158 H   0  0  0  0  0  0
  -26.8742  -30.7625   22.0327 H   0  0  0  0  0  0
  -28.1393  -28.8081   21.2214 H   0  0  0  0  0  0
  -25.8941  -25.8539   19.0070 H   0  0  0  0  0  0
  -23.9711  -27.2969   18.9993 H   0  0  0  0  0  0
  -23.8155  -30.5758   19.4058 H   0  0  0  0  0  0
  -22.7881  -29.2421   19.8399 H   0  0  0  0  0  0
  -25.1283  -36.1817   25.0821 H   0  0  0  0  0  0
  -21.0017  -28.3188   24.1361 H   0  0  0  0  0  0
  -20.5630  -26.2272   23.3595 H   0  0  0  0  0  0
  -21.6636  -26.7310   22.1206 H   0  0  0  0  0  0
  -19.6914  -25.6240   21.1209 H   0  0  0  0  0  0
  -19.6680  -27.3150   20.6740 H   0  0  0  0  0  0
  -17.4207  -26.6651   21.4016 H   0  0  0  0  0  0
  -18.0324  -26.0031   22.8994 H   0  0  0  0  0  0
  -19.7976  -30.7306   24.2096 H   0  0  0  0  0  0
  -17.5037  -31.6224   24.5174 H   0  0  0  0  0  0
  -15.5372  -30.2913   23.7712 H   0  0  0  0  0  0
  -15.8701  -28.0787   22.7010 H   0  0  0  0  0  0
  -24.5905  -30.7115   25.7738 H   0  0  0  0  0  0
  -24.8964  -32.2956   26.4813 H   0  0  0  0  0  0
  -25.8008  -30.8942   27.0232 H   0  0  0  0  0  0
  -26.3082  -29.6665   24.1295 H   0  0  0  0  0  0
  -27.4114  -29.7270   25.4834 H   0  0  0  0  0  0
  -27.8945  -30.4263   23.9587 H   0  0  0  0  0  0
  -27.2685  -33.3705   26.1929 H   0  0  0  0  0  0
  -28.3956  -32.6764   25.0353 H   0  0  0  0  0  0
  -28.0672  -31.8559   26.5524 H   0  0  0  0  0  0
  -28.2540  -38.0090   24.7531 H   0  0  0  0  0  0
  -28.1073  -36.2601   24.6263 H   0  0  0  0  0  0
  -27.2306  -37.1350   25.8898 H   0  0  0  0  0  0
  -20.9481  -29.8794   21.6912 H   0  0  0  0  0  0
  -26.0103  -38.2774   24.1455 H   0  0  0  0  0  0
  -31.2843  -18.1654   19.4913 H   0  0  0  0  0  0
  -30.7665  -20.5868   19.4325 H   0  0  0  0  0  0
  -27.7007  -17.4752   21.7017 H   0  0  0  0  0  0
  -25.5511  -18.1657   21.4439 H   0  0  0  0  0  0
  -24.9813  -19.1928   22.8585 H   0  0  0  0  0  0
  -24.9875  -21.2047   21.3963 H   0  0  0  0  0  0
  -25.5812  -20.1855   19.9847 H   0  0  0  0  0  0
  -27.0628  -20.5986   22.7149 H   0  0  0  0  0  0
  -27.2888  -24.5063   21.0313 H   0  0  0  0  0  0
  -27.3673  -24.4444   19.3066 H   0  0  0  0  0  0
  -29.7305  -23.4516   21.0130 H   0  0  0  0  0  0
  -29.5354  -23.2359   19.2990 H   0  0  0  0  0  0
  -28.7641  -15.5844   20.9967 H   0  0  0  0  0  0
  1 25  1  0  0  0
  1 30  2  0  0  0
  1 82  1  0  0  0
  2  3  1  0  0  0
  2 25  1  0  0  0
  2 84  1  0  0  0
  2 85  1  0  0  0
  3  4  1  0  0  0
  3 86  1  0  0  0
  3 87  1  0  0  0
  4  5  1  0  0  0
  4 88  1  0  0  0
  4 89  1  0  0  0
  5  6  1  0  0  0
  5 26  1  0  0  0
  5 90  1  0  0  0
  6 25  1  0  0  0
  6 91  1  0  0  0
  6 92  1  0  0  0
  7  8  2  0  0  0
  7 26  1  0  0  0
  7 29  1  0  0  0
  8  9  1  0  0  0
  8 22  1  0  0  0
  9 10  1  0  0  0
  9 27  2  0  0  0
 10 11  2  0  0  0
 10 15  1  0  0  0
 11 12  1  0  0  0
 11 93  1  0  0  0
 12 13  2  0  0  0
 12 94  1  0  0  0
 13 14  1  0  0  0
 13 31  1  0  0  0
 14 15  2  0  0  0
 14 95  1  0  0  0
 15 96  1  0  0  0
 16 17  2  0  0  0
 16 21  1  0  0  0
 16 31  1  0  0  0
 17 18  1  0  0  0
 17 97  1  0  0  0
 18 19  2  0  0  0
 18 98  1  0  0  0
 19 20  1  0  0  0
 19 24  1  0  0  0
 20 21  2  0  0  0
 20 99  1  0  0  0
 21 23  1  0  0  0
 22 28  1  0  0  0
 22 32  2  0  0  0
 26 27  1  0  0  0
 28100  1  0  0  0
 28101  1  0  0  0
 29102  1  0  0  0
 29103  1  0  0  0
 33 34  1  0  0  0
 33 66  1  0  0  0
 33 70  2  0  0  0
 34 36  1  0  0  0
 34 59  1  0  0  0
 34104  1  0  0  0
 35 44  2  0  0  0
 35 45  1  0  0  0
 35 68  1  0  0  0
 36 56  1  0  0  0
 36105  1  0  0  0
 37 39  1  0  0  0
 37 47  1  0  0  0
 37 66  1  0  0  0
 37106  1  0  0  0
 38 43  2  0  0  0
 38 46  1  0  0  0
 38 47  1  0  0  0
 39 64  1  0  0  0
 39 67  2  0  0  0
 40 52  1  0  0  0
 40 53  2  0  0  0
 40 58  1  0  0  0
 41107  1  0  0  0
 41108  1  0  0  0
 41109  1  0  0  0
 41 48  1  0  0  0
 42 43  1  0  0  0
 42 66  1  0  0  0
 42110  1  0  0  0
 42111  1  0  0  0
 43 44  1  0  0  0
 44112  1  0  0  0
 45 46  2  0  0  0
 45113  1  0  0  0
 46114  1  0  0  0
 47115  1  0  0  0
 47116  1  0  0  0
 48 56  1  0  0  0
 48 65  1  0  0  0
 48117  1  0  0  0
 49 50  1  0  0  0
 49 53  1  0  0  0
 49 64  1  0  0  0
 49118  1  0  0  0
 50 51  1  0  0  0
 50119  1  0  0  0
 50120  1  0  0  0
 51 52  1  0  0  0
 51121  1  0  0  0
 51122  1  0  0  0
 52123  1  0  0  0
 52124  1  0  0  0
 53 54  1  0  0  0
 54 55  2  0  0  0
 54125  1  0  0  0
 55 57  1  0  0  0
 55126  1  0  0  0
 56 69  2  0  0  0
 57 58  2  0  0  0
 57127  1  0  0  0
 58128  1  0  0  0
 59 60  1  0  0  0
 59 61  1  0  0  0
 59 62  1  0  0  0
 60129  1  0  0  0
 60130  1  0  0  0
 60131  1  0  0  0
 61132  1  0  0  0
 61133  1  0  0  0
 61134  1  0  0  0
 62135  1  0  0  0
 62136  1  0  0  0
 62137  1  0  0  0
 63 65  1  0  0  0
 63138  1  0  0  0
 63139  1  0  0  0
 63140  1  0  0  0
 64141  1  0  0  0
 65142  1  0  0  0
 68 80  1  0  0  0
 71 72  2  0  0  0
 71 75  1  0  0  0
 71143  1  0  0  0
 72 76  1  0  0  0
 72144  1  0  0  0
 73 74  1  0  0  0
 73 75  2  0  0  0
 73145  1  0  0  0
 74 76  2  0  0  0
 74 79  1  0  0  0
 75 82  1  0  0  0
 76 83  1  0  0  0
 77 78  1  0  0  0
 77 79  1  0  0  0
 77146  1  0  0  0
 77147  1  0  0  0
 78 79  1  0  0  0
 78148  1  0  0  0
 78149  1  0  0  0
 79150  1  0  0  0
 80 81  1  0  0  0
 80151  1  0  0  0
 80152  1  0  0  0
 81 83  1  0  0  0
 81153  1  0  0  0
 81154  1  0  0  0
 82155  1  0  0  0
M  ISO  4   1 100  68 101  80 101  82 100
M  END
> <chiral flag>
0

> <version>
0

> <s_m_source_file>
/data/baiqing/PycharmProjects/Reinvent-master-3.2/result/LINK_invent/BTK/process_docking_weight1_custom_sum_contain_oxygen_bond_distance_aromatic_linkinvent_7_9_3/rearranged_h_0136.sdf

> <i_m_source_file_index>
19

> <r_mmod_Potential_Energy-OPLS-2005>
490.653381347656

> <r_mmod_Stretch_Energy-OPLS-2005>
219.606109619141

> <r_mmod_Bend_Energy-OPLS-2005>
306.443023681641

> <r_mmod_Torsional_Energy-OPLS-2005>
245.141983032227

> <r_mmod_Improper_Torsional_Energy-OPLS-2005>
3.76041269302368

> <r_mmod_Van_der_Waal_Energy-OPLS-2005>
127.991004943848

> <r_mmod_Electrostatic_Energy-OPLS-2005>
-376.065155029297

> <r_mmod_Solvation_Energy-OPLS-2005>
-210.360229492188

> <b_mmod_Minimization_Converged-OPLS-2005>
0

> <r_mmod_RMS_Derivative-OPLS-2005>
2.39195203781128

$$$$
20
                    3D
 Structure written by MMmdl.
170179  0  0  1  0            999 V2000
  -30.6014  -14.5812   20.4401 C   0  0  0  0  0  0
  -30.4315  -12.3498   19.4158 C   0  0  0  0  0  0
  -29.4900  -12.4811   18.2002 C   0  0  0  0  0  0
  -28.0095  -12.3635   18.6171 C   0  0  0  0  0  0
  -27.6532  -13.2082   19.8710 C   0  0  2  0  0  0
  -28.7034  -13.0323   20.9895 C   0  0  0  0  0  0
  -25.2581  -13.8093   20.5672 C   0  0  0  0  0  0
  -24.1840  -13.0459   20.9233 C   0  0  0  0  0  0
  -24.6379  -11.6899   20.8807 C   0  0  0  0  0  0
  -23.9064  -10.4290   21.0468 C   0  0  0  0  0  0
  -24.3601   -9.4182   21.9237 C   0  0  0  0  0  0
  -23.6272   -8.2228   22.0789 C   0  0  0  0  0  0
  -22.4261   -8.0267   21.3564 C   0  0  0  0  0  0
  -21.9920   -9.0256   20.4678 C   0  0  0  0  0  0
  -22.7261  -10.2137   20.3107 C   0  0  0  0  0  0
  -21.6833   -6.0713   22.5271 C   0  0  0  0  0  0
  -21.4007   -6.5626   23.8195 C   0  0  0  0  0  0
  -21.3686   -5.6806   24.9172 C   0  0  0  0  0  0
  -21.6056   -4.3055   24.7237 C   0  0  0  0  0  0
  -21.8800   -3.8132   23.4350 C   0  0  0  0  0  0
  -21.9187   -4.6943   22.3401 C   0  0  0  0  0  0
  -22.7857  -13.5271   21.1825 C   0  0  0  0  0  0
  -22.1645   -4.2116   21.0978 F   0  0  0  0  0  0
  -21.5667   -3.4547   25.7754 F   0  0  0  0  0  0
  -30.0130  -13.3549   20.4095 N   0  0  0  0  0  0
  -26.3023  -12.9304   20.3415 N   0  0  0  0  0  0
  -25.9323  -11.6451   20.5848 N   0  0  0  0  0  0
  -22.0440  -12.8316   22.0348 N   0  0  0  0  0  0
  -25.4307  -15.1835   20.3832 N   0  0  0  0  0  0
  -31.7807  -14.7527   20.1179 O   0  0  0  0  0  0
  -21.6650   -6.8862   21.4235 O   0  0  0  0  0  0
  -22.3602  -14.5589   20.6634 O   0  0  0  0  0  0
  -24.6075  -31.8716   23.2068 C   0  0  0  0  0  0
  -25.9018  -32.4805   23.8362 C   0  0  1  0  0  0
  -27.2308  -27.4422   20.1038 C   0  0  0  0  0  0
  -25.5845  -33.8587   24.2314 N   0  0  0  0  0  0
  -23.3923  -30.4953   21.5532 C   0  0  2  0  0  0
  -24.8343  -28.9503   20.1225 C   0  0  0  0  0  0
  -22.7357  -29.4703   22.5015 C   0  0  0  0  0  0
  -18.0263  -28.1267   22.8376 C   0  0  0  0  0  0
  -24.1468  -36.7311   23.2635 C   0  0  0  0  0  0
  -25.9226  -30.8307   21.3554 C   0  0  0  0  0  0
  -25.9969  -29.4650   20.7060 C   0  0  0  0  0  0
  -27.1959  -28.7259   20.6880 C   0  0  0  0  0  0
  -26.0493  -26.9216   19.5312 C   0  0  0  0  0  0
  -24.8530  -27.6709   19.5382 C   0  0  0  0  0  0
  -23.5971  -29.8238   20.1651 C   0  0  0  0  0  0
  -25.4097  -36.3132   24.0340 C   0  0  1  0  0  0
  -20.5850  -28.3520   23.1062 C   0  0  2  0  0  0
  -20.6808  -26.9314   22.4933 C   0  0  0  0  0  0
  -19.5731  -26.6469   21.4793 C   0  0  0  0  0  0
  -18.1930  -26.7952   22.1285 C   0  0  0  0  0  0
  -19.1514  -28.8738   23.2711 C   0  0  0  0  0  0
  -18.9455  -30.1336   23.8728 C   0  0  0  0  0  0
  -17.6452  -30.6425   24.0555 C   0  0  0  0  0  0
  -25.9028  -34.9469   23.5146 C   0  0  0  0  0  0
  -16.5328  -29.8842   23.6461 C   0  0  0  0  0  0
  -16.7235  -28.6270   23.0489 C   0  0  0  0  0  0
  -26.4438  -31.6639   25.0761 C   0  0  0  0  0  0
  -25.3702  -31.3692   26.1517 C   0  0  0  0  0  0
  -27.0309  -30.3097   24.6164 C   0  0  0  0  0  0
  -27.6041  -32.4358   25.7511 C   0  0  0  0  0  0
  -27.5579  -37.1830   24.8474 C   0  0  0  0  0  0
  -21.4151  -29.2908   22.3507 N   0  0  0  0  0  0
  -26.4292  -37.3820   23.9417 N   0  0  0  0  0  0
  -24.6597  -31.0801   22.0970 N   0  0  0  0  0  0
  -23.4037  -28.8331   23.3179 O   0  0  0  0  0  0
  -28.4286  -26.7692   20.0893 O   0  0  0  0  0  0
  -26.5642  -34.8930   22.4719 O   0  0  0  0  0  0
  -23.5287  -32.1429   23.7532 O   0  0  0  0  0  0
  -30.0839  -19.9045   19.0834 C   0  0  0  0  0  0
  -30.2991  -21.2840   18.9113 C   0  0  0  0  0  0
  -28.0272  -21.7304   19.5930 C   0  0  0  0  0  0
  -28.8425  -19.3953   19.5346 C   0  0  0  0  0  0
  -27.7679  -20.3305   19.7408 C   0  0  0  0  0  0
  -29.2787  -22.2218   19.1614 C   0  0  0  0  0  0
  -24.8140  -20.8356   18.3174 C   0  0  0  0  0  0
  -23.9014  -20.4550   19.4568 C   0  0  2  0  0  0
  -21.5693  -21.5890   19.3291 C   0  0  0  0  0  0
  -28.6945  -17.8677   19.7771 C   0  0  0  0  0  0
  -26.3272  -19.8817   20.1079 C   0  0  0  0  0  0
  -22.9112  -21.4449   20.0722 C   0  0  0  0  0  0
  -29.9837  -17.0570   20.1867 C   0  0  0  0  0  0
  -28.4057  -25.3519   20.2759 C   0  0  0  0  0  0
  -28.5740  -24.5730   18.9479 C   0  0  0  0  0  0
  -29.7430  -15.6291   20.5638 N   0  0  0  0  0  0
  -25.2828  -20.8655   19.6953 N   0  3  1  0  0  0
  -29.5901  -23.5610   19.0056 O   0  0  0  0  0  0
  -31.4655  -12.4884   19.0980 H   0  0  0  0  0  0
  -30.3706  -11.3461   19.8426 H   0  0  0  0  0  0
  -29.7202  -11.7000   17.4742 H   0  0  0  0  0  0
  -29.6663  -13.4335   17.6901 H   0  0  0  0  0  0
  -27.7953  -11.3113   18.8102 H   0  0  0  0  0  0
  -27.3660  -12.6537   17.7828 H   0  0  0  0  0  0
  -27.6793  -14.2519   19.5574 H   0  0  0  0  0  0
  -28.7069  -12.0085   21.3671 H   0  0  0  0  0  0
  -28.4774  -13.6754   21.8412 H   0  0  0  0  0  0
  -25.2702   -9.5640   22.4869 H   0  0  0  0  0  0
  -23.9943   -7.4613   22.7503 H   0  0  0  0  0  0
  -21.0870   -8.8810   19.8960 H   0  0  0  0  0  0
  -22.3718  -10.9713   19.6250 H   0  0  0  0  0  0
  -21.1969   -7.6123   23.9678 H   0  0  0  0  0  0
  -21.1558   -6.0538   25.9075 H   0  0  0  0  0  0
  -22.0546   -2.7586   23.2865 H   0  0  0  0  0  0
  -22.3979  -12.0008   22.4864 H   0  0  0  0  0  0
  -21.1049  -13.1386   22.2487 H   0  0  0  0  0  0
  -24.6257  -15.7945   20.3725 H   0  0  0  0  0  0
  -26.2418  -15.5760   19.9306 H   0  0  0  0  0  0
  -26.7122  -32.5510   23.1152 H   0  0  0  0  0  0
  -25.0059  -33.9757   25.0507 H   0  0  0  0  0  0
  -22.6739  -31.3081   21.4178 H   0  0  0  0  0  0
  -23.3740  -35.9635   23.3343 H   0  0  0  0  0  0
  -24.3536  -36.8883   22.2037 H   0  0  0  0  0  0
  -23.7200  -37.6519   23.6613 H   0  0  0  0  0  0
  -26.0545  -31.5890   20.5867 H   0  0  0  0  0  0
  -26.7970  -30.8653   21.9925 H   0  0  0  0  0  0
  -28.0997  -29.1321   21.1259 H   0  0  0  0  0  0
  -26.0323  -25.9452   19.0683 H   0  0  0  0  0  0
  -23.9590  -27.2484   19.1010 H   0  0  0  0  0  0
  -23.6950  -30.5979   19.4006 H   0  0  0  0  0  0
  -22.7176  -29.2466   19.8816 H   0  0  0  0  0  0
  -25.1280  -36.2028   25.0835 H   0  0  0  0  0  0
  -20.9905  -28.3030   24.1177 H   0  0  0  0  0  0
  -20.6174  -26.1787   23.2810 H   0  0  0  0  0  0
  -21.6589  -26.7710   22.0323 H   0  0  0  0  0  0
  -19.6728  -25.6468   21.0612 H   0  0  0  0  0  0
  -19.6666  -27.3367   20.6395 H   0  0  0  0  0  0
  -17.4226  -26.6958   21.3569 H   0  0  0  0  0  0
  -18.0278  -26.0021   22.8552 H   0  0  0  0  0  0
  -19.7980  -30.7106   24.2020 H   0  0  0  0  0  0
  -17.4930  -31.6065   24.5255 H   0  0  0  0  0  0
  -15.5313  -30.2514   23.8089 H   0  0  0  0  0  0
  -15.8611  -28.0493   22.7508 H   0  0  0  0  0  0
  -24.5941  -30.6963   25.7851 H   0  0  0  0  0  0
  -24.8786  -32.2803   26.4949 H   0  0  0  0  0  0
  -25.8046  -30.8919   27.0314 H   0  0  0  0  0  0
  -26.2874  -29.6867   24.1187 H   0  0  0  0  0  0
  -27.4070  -29.7346   25.4644 H   0  0  0  0  0  0
  -27.8713  -30.4495   23.9346 H   0  0  0  0  0  0
  -27.2703  -33.3643   26.2140 H   0  0  0  0  0  0
  -28.3790  -32.6918   25.0282 H   0  0  0  0  0  0
  -28.0789  -31.8463   26.5379 H   0  0  0  0  0  0
  -28.2669  -38.0080   24.7519 H   0  0  0  0  0  0
  -28.1032  -36.2619   24.6334 H   0  0  0  0  0  0
  -27.2300  -37.1532   25.8889 H   0  0  0  0  0  0
  -20.9529  -29.8084   21.6151 H   0  0  0  0  0  0
  -26.0209  -38.2912   24.1414 H   0  0  0  0  0  0
  -30.9008  -19.2348   18.8738 H   0  0  0  0  0  0
  -31.2818  -21.6245   18.6030 H   0  0  0  0  0  0
  -27.2475  -22.4495   19.8078 H   0  0  0  0  0  0
  -24.7804  -21.8480   17.9213 H   0  0  0  0  0  0
  -25.3120  -20.0714   17.7223 H   0  0  0  0  0  0
  -23.7156  -19.3993   19.6303 H   0  0  0  0  0  0
  -21.1911  -22.6008   19.4594 H   0  0  0  0  0  0
  -20.8106  -20.9225   19.7344 H   0  0  0  0  0  0
  -21.6532  -21.4211   18.2510 H   0  0  0  0  0  0
  -27.9585  -17.7299   20.5662 H   0  0  0  0  0  0
  -28.2675  -17.4270   18.8698 H   0  0  0  0  0  0
  -26.2502  -19.7385   21.1915 H   0  0  0  0  0  0
  -26.1056  -18.9153   19.6518 H   0  0  0  0  0  0
  -23.3698  -22.4310   20.0635 H   0  0  0  0  0  0
  -22.7374  -21.1867   21.1242 H   0  0  0  0  0  0
  -30.4724  -17.5608   21.0280 H   0  0  0  0  0  0
  -30.6896  -17.0839   19.3573 H   0  0  0  0  0  0
  -29.2409  -25.1412   20.9367 H   0  0  0  0  0  0
  -27.5408  -25.0231   20.8441 H   0  0  0  0  0  0
  -28.9367  -25.2770   18.1955 H   0  0  0  0  0  0
  -27.6178  -24.2250   18.5557 H   0  0  0  0  0  0
  -28.8045  -15.3910   20.8503 H   0  0  0  0  0  0
  -25.3232  -21.7714   20.1254 H   0  0  0  0  0  0
  1 25  1  0  0  0
  1 30  2  0  0  0
  1 86  1  0  0  0
  2  3  1  0  0  0
  2 25  1  0  0  0
  2 89  1  0  0  0
  2 90  1  0  0  0
  3  4  1  0  0  0
  3 91  1  0  0  0
  3 92  1  0  0  0
  4  5  1  0  0  0
  4 93  1  0  0  0
  4 94  1  0  0  0
  5  6  1  0  0  0
  5 26  1  0  0  0
  5 95  1  0  0  0
  6 25  1  0  0  0
  6 96  1  0  0  0
  6 97  1  0  0  0
  7  8  2  0  0  0
  7 26  1  0  0  0
  7 29  1  0  0  0
  8  9  1  0  0  0
  8 22  1  0  0  0
  9 10  1  0  0  0
  9 27  2  0  0  0
 10 11  2  0  0  0
 10 15  1  0  0  0
 11 12  1  0  0  0
 11 98  1  0  0  0
 12 13  2  0  0  0
 12 99  1  0  0  0
 13 14  1  0  0  0
 13 31  1  0  0  0
 14 15  2  0  0  0
 14100  1  0  0  0
 15101  1  0  0  0
 16 17  2  0  0  0
 16 21  1  0  0  0
 16 31  1  0  0  0
 17 18  1  0  0  0
 17102  1  0  0  0
 18 19  2  0  0  0
 18103  1  0  0  0
 19 20  1  0  0  0
 19 24  1  0  0  0
 20 21  2  0  0  0
 20104  1  0  0  0
 21 23  1  0  0  0
 22 28  1  0  0  0
 22 32  2  0  0  0
 26 27  1  0  0  0
 28105  1  0  0  0
 28106  1  0  0  0
 29107  1  0  0  0
 29108  1  0  0  0
 33 34  1  0  0  0
 33 66  1  0  0  0
 33 70  2  0  0  0
 34 36  1  0  0  0
 34 59  1  0  0  0
 34109  1  0  0  0
 35 44  2  0  0  0
 35 45  1  0  0  0
 35 68  1  0  0  0
 36 56  1  0  0  0
 36110  1  0  0  0
 37 39  1  0  0  0
 37 47  1  0  0  0
 37 66  1  0  0  0
 37111  1  0  0  0
 38 43  2  0  0  0
 38 46  1  0  0  0
 38 47  1  0  0  0
 39 64  1  0  0  0
 39 67  2  0  0  0
 40 52  1  0  0  0
 40 53  2  0  0  0
 40 58  1  0  0  0
 41112  1  0  0  0
 41113  1  0  0  0
 41114  1  0  0  0
 41 48  1  0  0  0
 42 43  1  0  0  0
 42 66  1  0  0  0
 42115  1  0  0  0
 42116  1  0  0  0
 43 44  1  0  0  0
 44117  1  0  0  0
 45 46  2  0  0  0
 45118  1  0  0  0
 46119  1  0  0  0
 47120  1  0  0  0
 47121  1  0  0  0
 48 56  1  0  0  0
 48 65  1  0  0  0
 48122  1  0  0  0
 49 50  1  0  0  0
 49 53  1  0  0  0
 49 64  1  0  0  0
 49123  1  0  0  0
 50 51  1  0  0  0
 50124  1  0  0  0
 50125  1  0  0  0
 51 52  1  0  0  0
 51126  1  0  0  0
 51127  1  0  0  0
 52128  1  0  0  0
 52129  1  0  0  0
 53 54  1  0  0  0
 54 55  2  0  0  0
 54130  1  0  0  0
 55 57  1  0  0  0
 55131  1  0  0  0
 56 69  2  0  0  0
 57 58  2  0  0  0
 57132  1  0  0  0
 58133  1  0  0  0
 59 60  1  0  0  0
 59 61  1  0  0  0
 59 62  1  0  0  0
 60134  1  0  0  0
 60135  1  0  0  0
 60136  1  0  0  0
 61137  1  0  0  0
 61138  1  0  0  0
 61139  1  0  0  0
 62140  1  0  0  0
 62141  1  0  0  0
 62142  1  0  0  0
 63 65  1  0  0  0
 63143  1  0  0  0
 63144  1  0  0  0
 63145  1  0  0  0
 64146  1  0  0  0
 65147  1  0  0  0
 68 84  1  0  0  0
 71 72  2  0  0  0
 71 74  1  0  0  0
 71148  1  0  0  0
 72 76  1  0  0  0
 72149  1  0  0  0
 73 75  1  0  0  0
 73 76  2  0  0  0
 73150  1  0  0  0
 74 75  2  0  0  0
 74 80  1  0  0  0
 75 81  1  0  0  0
 76 88  1  0  0  0
 77 78  1  0  0  0
 77 87  1  0  0  0
 77151  1  0  0  0
 77152  1  0  0  0
 78 82  1  0  0  0
 78 87  1  0  0  0
 78153  1  0  0  0
 79 82  1  0  0  0
 79154  1  0  0  0
 79155  1  0  0  0
 79156  1  0  0  0
 80 83  1  0  0  0
 80157  1  0  0  0
 80158  1  0  0  0
 81159  1  0  0  0
 81160  1  0  0  0
 81 87  1  0  0  0
 82161  1  0  0  0
 82162  1  0  0  0
 83 86  1  0  0  0
 83163  1  0  0  0
 83164  1  0  0  0
 84 85  1  0  0  0
 84165  1  0  0  0
 84166  1  0  0  0
 85 88  1  0  0  0
 85167  1  0  0  0
 85168  1  0  0  0
 86169  1  0  0  0
 87170  1  0  0  0
M  CHG  1  87   1
M  ISO  4   1 100  68 101  84 101  86 100
M  END
> <chiral flag>
0

> <version>
0

> <s_m_source_file>
/data/baiqing/PycharmProjects/Reinvent-master-3.2/result/LINK_invent/BTK/process_docking_weight1_custom_sum_contain_oxygen_bond_distance_aromatic_linkinvent_7_9_3/rearranged_h_0136.sdf

> <i_m_source_file_index>
20

> <r_mmod_Potential_Energy-OPLS-2005>
-115.765769958496

> <r_mmod_Stretch_Energy-OPLS-2005>
53.0084457397461

> <r_mmod_Bend_Energy-OPLS-2005>
133.615493774414

> <r_mmod_Torsional_Energy-OPLS-2005>
261.672271728516

> <r_mmod_Improper_Torsional_Energy-OPLS-2005>
8.58710384368896

> <r_mmod_Van_der_Waal_Energy-OPLS-2005>
146.472793579102

> <r_mmod_Electrostatic_Energy-OPLS-2005>
-255.53369140625

> <r_mmod_Solvation_Energy-OPLS-2005>
-491.001251220703

> <b_mmod_Minimization_Converged-OPLS-2005>
0

> <r_mmod_RMS_Derivative-OPLS-2005>
11.4256896972656

$$$$
21
                    3D
 Structure written by MMmdl.
160168  0  0  1  0            999 V2000
  -30.6780  -14.5310   20.6056 C   0  0  0  0  0  0
  -30.4360  -12.3513   19.4416 C   0  0  0  0  0  0
  -29.5056  -12.4951   18.2206 C   0  0  0  0  0  0
  -28.0292  -12.3523   18.6353 C   0  0  0  0  0  0
  -27.6613  -13.2042   19.8762 C   0  0  2  0  0  0
  -28.7004  -13.0099   21.0029 C   0  0  0  0  0  0
  -25.2557  -13.8128   20.5577 C   0  0  0  0  0  0
  -24.1842  -13.0427   20.9255 C   0  0  0  0  0  0
  -24.6374  -11.6895   20.8778 C   0  0  0  0  0  0
  -23.8994  -10.4291   21.0438 C   0  0  0  0  0  0
  -24.3579   -9.4223   21.9194 C   0  0  0  0  0  0
  -23.6281   -8.2222   22.0725 C   0  0  0  0  0  0
  -22.4268   -8.0233   21.3521 C   0  0  0  0  0  0
  -21.9909   -9.0208   20.4623 C   0  0  0  0  0  0
  -22.7177  -10.2115   20.3069 C   0  0  0  0  0  0
  -21.6848   -6.0698   22.5286 C   0  0  0  0  0  0
  -21.3989   -6.5609   23.8201 C   0  0  0  0  0  0
  -21.3675   -5.6777   24.9178 C   0  0  0  0  0  0
  -21.6053   -4.3039   24.7241 C   0  0  0  0  0  0
  -21.8829   -3.8115   23.4362 C   0  0  0  0  0  0
  -21.9194   -4.6927   22.3418 C   0  0  0  0  0  0
  -22.7890  -13.5264   21.1935 C   0  0  0  0  0  0
  -22.1669   -4.2120   21.0997 F   0  0  0  0  0  0
  -21.5658   -3.4533   25.7754 F   0  0  0  0  0  0
  -30.0246  -13.3450   20.4560 N   0  0  0  0  0  0
  -26.3001  -12.9277   20.3322 N   0  0  0  0  0  0
  -25.9299  -11.6451   20.5792 N   0  0  0  0  0  0
  -22.0516  -12.8164   22.0429 N   0  0  0  0  0  0
  -25.4220  -15.1788   20.3695 N   0  0  0  0  0  0
  -31.8005  -14.7152   20.1232 O   0  0  0  0  0  0
  -21.6608   -6.8849   21.4237 O   0  0  0  0  0  0
  -22.3608  -14.5590   20.6795 O   0  0  0  0  0  0
  -24.6126  -31.8673   23.2068 C   0  0  0  0  0  0
  -25.9021  -32.4794   23.8397 C   0  0  1  0  0  0
  -27.2441  -27.4292   20.1042 C   0  0  0  0  0  0
  -25.5894  -33.8588   24.2360 N   0  0  0  0  0  0
  -23.4087  -30.4856   21.5402 C   0  0  2  0  0  0
  -24.8665  -28.9588   20.0999 C   0  0  0  0  0  0
  -22.7422  -29.4631   22.4903 C   0  0  0  0  0  0
  -18.0302  -28.1429   22.8478 C   0  0  0  0  0  0
  -24.1489  -36.7315   23.2635 C   0  0  0  0  0  0
  -25.9388  -30.8255   21.3719 C   0  0  0  0  0  0
  -26.0205  -29.4620   20.7144 C   0  0  0  0  0  0
  -27.2140  -28.7010   20.7234 C   0  0  0  0  0  0
  -26.0883  -26.9594   19.4459 C   0  0  0  0  0  0
  -24.8938  -27.7048   19.4647 C   0  0  0  0  0  0
  -23.6241  -29.8191   20.1529 C   0  0  0  0  0  0
  -25.4095  -36.3093   24.0353 C   0  0  1  0  0  0
  -20.5885  -28.3717   23.1290 C   0  0  2  0  0  0
  -20.6795  -26.9462   22.5389 C   0  0  0  0  0  0
  -19.5764  -26.6433   21.5196 C   0  0  0  0  0  0
  -18.1935  -26.7976   22.1598 C   0  0  0  0  0  0
  -19.1550  -28.8890   23.2868 C   0  0  0  0  0  0
  -18.9469  -30.1484   23.8887 C   0  0  0  0  0  0
  -17.6467  -30.6604   24.0586 C   0  0  0  0  0  0
  -25.9041  -34.9441   23.5165 C   0  0  0  0  0  0
  -16.5361  -29.9112   23.6348 C   0  0  0  0  0  0
  -16.7280  -28.6550   23.0328 C   0  0  0  0  0  0
  -26.4444  -31.6530   25.0697 C   0  0  0  0  0  0
  -25.3695  -31.3581   26.1423 C   0  0  0  0  0  0
  -27.0300  -30.2984   24.6054 C   0  0  0  0  0  0
  -27.6074  -32.4210   25.7411 C   0  0  0  0  0  0
  -27.5597  -37.1757   24.8444 C   0  0  0  0  0  0
  -21.4156  -29.3065   22.3656 N   0  0  0  0  0  0
  -26.4280  -37.3777   23.9440 N   0  0  0  0  0  0
  -24.6696  -31.0769   22.0963 N   0  0  0  0  0  0
  -23.4154  -28.8192   23.2984 O   0  0  0  0  0  0
  -28.3376  -26.5866   20.1838 O   0  0  0  0  0  0
  -26.5560  -34.8920   22.4703 O   0  0  0  0  0  0
  -23.5309  -32.1431   23.7431 O   0  0  0  0  0  0
  -30.7079  -24.6526   21.1370 C   0  0  0  0  0  0
  -28.8040  -23.1740   21.2929 C   0  0  0  0  0  0
  -31.5017  -23.4947   21.0779 C   0  0  0  0  0  0
  -29.3090  -24.5112   21.2447 C   0  0  0  0  0  0
  -29.6750  -22.0564   21.2404 C   0  0  0  0  0  0
  -27.0291  -25.4122   21.9889 C   0  0  0  0  0  0
  -30.1071  -19.5731   21.4739 C   0  0  0  0  0  0
  -30.5162  -16.9508   21.3500 C   0  0  0  0  0  0
  -28.4130  -25.7701   21.3913 C   0  0  2  0  0  0
  -29.4658  -18.1260   21.4338 C   0  0  2  0  0  0
  -31.0059  -22.2325   21.1135 N   0  0  0  0  0  0
  -29.1787  -20.7280   21.3306 N   0  0  0  0  0  0
  -29.9948  -15.5552   21.1870 N   0  0  0  0  0  0
  -28.4799  -18.0164   20.3465 N   0  3  0  0  0  0
  -31.4752  -12.4761   19.1318 H   0  0  0  0  0  0
  -30.3669  -11.3455   19.8522 H   0  0  0  0  0  0
  -29.7555  -11.7432   17.4691 H   0  0  0  0  0  0
  -29.6704  -13.4604   17.7393 H   0  0  0  0  0  0
  -27.8499  -11.3000   18.8440 H   0  0  0  0  0  0
  -27.3772  -12.5969   17.7989 H   0  0  0  0  0  0
  -27.7009  -14.2466   19.5629 H   0  0  0  0  0  0
  -28.6995  -11.9734   21.3387 H   0  0  0  0  0  0
  -28.4495  -13.6053   21.8833 H   0  0  0  0  0  0
  -25.2736   -9.5667   22.4771 H   0  0  0  0  0  0
  -24.0019   -7.4575   22.7368 H   0  0  0  0  0  0
  -21.0887   -8.8676   19.8887 H   0  0  0  0  0  0
  -22.3624  -10.9643   19.6180 H   0  0  0  0  0  0
  -21.1917   -7.6105   23.9697 H   0  0  0  0  0  0
  -21.1534   -6.0507   25.9088 H   0  0  0  0  0  0
  -22.0604   -2.7570   23.2866 H   0  0  0  0  0  0
  -22.4163  -11.9838   22.4810 H   0  0  0  0  0  0
  -21.1127  -13.1133   22.2659 H   0  0  0  0  0  0
  -24.5773  -15.7418   20.3627 H   0  0  0  0  0  0
  -26.0643  -15.4597   19.6407 H   0  0  0  0  0  0
  -26.7050  -32.5568   23.1130 H   0  0  0  0  0  0
  -25.0133  -33.9752   25.0568 H   0  0  0  0  0  0
  -22.7022  -31.3023   21.3928 H   0  0  0  0  0  0
  -23.3748  -35.9647   23.3253 H   0  0  0  0  0  0
  -24.3654  -36.8981   22.2069 H   0  0  0  0  0  0
  -23.7185  -37.6497   23.6658 H   0  0  0  0  0  0
  -26.0747  -31.5984   20.6150 H   0  0  0  0  0  0
  -26.8116  -30.8663   22.0060 H   0  0  0  0  0  0
  -28.0988  -29.0696   21.2241 H   0  0  0  0  0  0
  -26.1062  -25.9927   18.9627 H   0  0  0  0  0  0
  -24.0095  -27.3134   18.9847 H   0  0  0  0  0  0
  -23.7362  -30.5944   19.3941 H   0  0  0  0  0  0
  -22.7531  -29.2347   19.8483 H   0  0  0  0  0  0
  -25.1227  -36.1984   25.0829 H   0  0  0  0  0  0
  -20.9985  -28.3313   24.1409 H   0  0  0  0  0  0
  -20.5774  -26.2318   23.3566 H   0  0  0  0  0  0
  -21.6670  -26.7577   22.1149 H   0  0  0  0  0  0
  -19.6941  -25.6345   21.1238 H   0  0  0  0  0  0
  -19.6722  -27.3245   20.6727 H   0  0  0  0  0  0
  -17.4216  -26.6741   21.3978 H   0  0  0  0  0  0
  -18.0351  -26.0118   22.9002 H   0  0  0  0  0  0
  -19.7945  -30.7294   24.2269 H   0  0  0  0  0  0
  -17.5026  -31.6293   24.5187 H   0  0  0  0  0  0
  -15.5355  -30.2977   23.7715 H   0  0  0  0  0  0
  -15.8689  -28.0850   22.7033 H   0  0  0  0  0  0
  -24.5922  -30.6898   25.7692 H   0  0  0  0  0  0
  -24.8789  -32.2702   26.4856 H   0  0  0  0  0  0
  -25.8027  -30.8732   27.0178 H   0  0  0  0  0  0
  -26.2834  -29.6654   24.1250 H   0  0  0  0  0  0
  -27.4236  -29.7309   25.4492 H   0  0  0  0  0  0
  -27.8585  -30.4349   23.9095 H   0  0  0  0  0  0
  -27.2786  -33.3538   26.2016 H   0  0  0  0  0  0
  -28.3817  -32.6702   25.0134 H   0  0  0  0  0  0
  -28.0768  -31.8255   26.5253 H   0  0  0  0  0  0
  -28.2488  -38.0174   24.7706 H   0  0  0  0  0  0
  -28.1208  -36.2731   24.6002 H   0  0  0  0  0  0
  -27.2376  -37.1106   25.8849 H   0  0  0  0  0  0
  -20.9297  -29.8789   21.6896 H   0  0  0  0  0  0
  -26.0177  -38.2840   24.1535 H   0  0  0  0  0  0
  -31.1803  -25.6294   21.1265 H   0  0  0  0  0  0
  -27.7433  -23.0052   21.3890 H   0  0  0  0  0  0
  -32.5745  -23.5900   21.0064 H   0  0  0  0  0  0
  -27.1290  -24.7997   22.8836 H   0  0  0  0  0  0
  -26.4096  -24.8658   21.2797 H   0  0  0  0  0  0
  -26.4771  -26.2995   22.2997 H   0  0  0  0  0  0
  -30.8669  -19.6402   20.6959 H   0  0  0  0  0  0
  -30.6414  -19.7007   22.4181 H   0  0  0  0  0  0
  -31.1431  -16.9747   22.2432 H   0  0  0  0  0  0
  -31.1908  -17.1680   20.5204 H   0  0  0  0  0  0
  -28.9029  -26.4031   22.1378 H   0  0  0  0  0  0
  -28.9113  -17.9859   22.3637 H   0  0  0  0  0  0
  -28.2815  -20.6519   21.8014 H   0  0  0  0  0  0
  -29.1127  -15.3115   21.6198 H   0  0  0  0  0  0
  -28.9005  -18.2683   19.4710 H   0  0  0  0  0  0
  -27.7008  -18.6285   20.5154 H   0  0  0  0  0  0
  -28.1366  -17.0768   20.2736 H   0  0  0  0  0  0
  1 25  1  0  0  0
  1 30  2  0  0  0
  1 83  1  0  0  0
  2  3  1  0  0  0
  2 25  1  0  0  0
  2 85  1  0  0  0
  2 86  1  0  0  0
  3  4  1  0  0  0
  3 87  1  0  0  0
  3 88  1  0  0  0
  4  5  1  0  0  0
  4 89  1  0  0  0
  4 90  1  0  0  0
  5  6  1  0  0  0
  5 26  1  0  0  0
  5 91  1  0  0  0
  6 25  1  0  0  0
  6 92  1  0  0  0
  6 93  1  0  0  0
  7  8  2  0  0  0
  7 26  1  0  0  0
  7 29  1  0  0  0
  8  9  1  0  0  0
  8 22  1  0  0  0
  9 10  1  0  0  0
  9 27  2  0  0  0
 10 11  2  0  0  0
 10 15  1  0  0  0
 11 12  1  0  0  0
 11 94  1  0  0  0
 12 13  2  0  0  0
 12 95  1  0  0  0
 13 14  1  0  0  0
 13 31  1  0  0  0
 14 15  2  0  0  0
 14 96  1  0  0  0
 15 97  1  0  0  0
 16 17  2  0  0  0
 16 21  1  0  0  0
 16 31  1  0  0  0
 17 18  1  0  0  0
 17 98  1  0  0  0
 18 19  2  0  0  0
 18 99  1  0  0  0
 19 20  1  0  0  0
 19 24  1  0  0  0
 20 21  2  0  0  0
 20100  1  0  0  0
 21 23  1  0  0  0
 22 28  1  0  0  0
 22 32  2  0  0  0
 26 27  1  0  0  0
 28101  1  0  0  0
 28102  1  0  0  0
 29103  1  0  0  0
 29104  1  0  0  0
 33 34  1  0  0  0
 33 66  1  0  0  0
 33 70  2  0  0  0
 34 36  1  0  0  0
 34 59  1  0  0  0
 34105  1  0  0  0
 35 44  2  0  0  0
 35 45  1  0  0  0
 35 68  1  0  0  0
 36 56  1  0  0  0
 36106  1  0  0  0
 37 39  1  0  0  0
 37 47  1  0  0  0
 37 66  1  0  0  0
 37107  1  0  0  0
 38 43  2  0  0  0
 38 46  1  0  0  0
 38 47  1  0  0  0
 39 64  1  0  0  0
 39 67  2  0  0  0
 40 52  1  0  0  0
 40 53  2  0  0  0
 40 58  1  0  0  0
 41108  1  0  0  0
 41109  1  0  0  0
 41110  1  0  0  0
 41 48  1  0  0  0
 42 43  1  0  0  0
 42 66  1  0  0  0
 42111  1  0  0  0
 42112  1  0  0  0
 43 44  1  0  0  0
 44113  1  0  0  0
 45 46  2  0  0  0
 45114  1  0  0  0
 46115  1  0  0  0
 47116  1  0  0  0
 47117  1  0  0  0
 48 56  1  0  0  0
 48 65  1  0  0  0
 48118  1  0  0  0
 49 50  1  0  0  0
 49 53  1  0  0  0
 49 64  1  0  0  0
 49119  1  0  0  0
 50 51  1  0  0  0
 50120  1  0  0  0
 50121  1  0  0  0
 51 52  1  0  0  0
 51122  1  0  0  0
 51123  1  0  0  0
 52124  1  0  0  0
 52125  1  0  0  0
 53 54  1  0  0  0
 54 55  2  0  0  0
 54126  1  0  0  0
 55 57  1  0  0  0
 55127  1  0  0  0
 56 69  2  0  0  0
 57 58  2  0  0  0
 57128  1  0  0  0
 58129  1  0  0  0
 59 60  1  0  0  0
 59 61  1  0  0  0
 59 62  1  0  0  0
 60130  1  0  0  0
 60131  1  0  0  0
 60132  1  0  0  0
 61133  1  0  0  0
 61134  1  0  0  0
 61135  1  0  0  0
 62136  1  0  0  0
 62137  1  0  0  0
 62138  1  0  0  0
 63 65  1  0  0  0
 63139  1  0  0  0
 63140  1  0  0  0
 63141  1  0  0  0
 64142  1  0  0  0
 65143  1  0  0  0
 68 79  1  0  0  0
 71 73  2  0  0  0
 71 74  1  0  0  0
 71144  1  0  0  0
 72 74  2  0  0  0
 72 75  1  0  0  0
 72145  1  0  0  0
 73 81  1  0  0  0
 73146  1  0  0  0
 74 79  1  0  0  0
 75 81  2  0  0  0
 75 82  1  0  0  0
 76147  1  0  0  0
 76148  1  0  0  0
 76149  1  0  0  0
 76 79  1  0  0  0
 77 80  1  0  0  0
 77 82  1  0  0  0
 77150  1  0  0  0
 77151  1  0  0  0
 78 80  1  0  0  0
 78 83  1  0  0  0
 78152  1  0  0  0
 78153  1  0  0  0
 79154  1  0  0  0
 80 84  1  0  0  0
 80155  1  0  0  0
 82156  1  0  0  0
 83157  1  0  0  0
 84158  1  0  0  0
 84159  1  0  0  0
 84160  1  0  0  0
M  CHG  1  84   1
M  ISO  4   1 100  68 101  79 101  83 100
M  END
> <chiral flag>
0

> <version>
0

> <s_m_source_file>
/data/baiqing/PycharmProjects/Reinvent-master-3.2/result/LINK_invent/BTK/process_docking_weight1_custom_sum_contain_oxygen_bond_distance_aromatic_linkinvent_7_9_3/rearranged_h_0136.sdf

> <i_m_source_file_index>
21

> <r_mmod_Potential_Energy-OPLS-2005>
-567.614074707031

> <r_mmod_Stretch_Energy-OPLS-2005>
55.8988075256348

> <r_mmod_Bend_Energy-OPLS-2005>
105.613777160645

> <r_mmod_Torsional_Energy-OPLS-2005>
290.183197021484

> <r_mmod_Improper_Torsional_Energy-OPLS-2005>
9.91368389129639

> <r_mmod_Van_der_Waal_Energy-OPLS-2005>
161.954513549805

> <r_mmod_Electrostatic_Energy-OPLS-2005>
-679.045715332031

> <r_mmod_Solvation_Energy-OPLS-2005>
-534.93603515625

> <b_mmod_Minimization_Converged-OPLS-2005>
0

> <r_mmod_RMS_Derivative-OPLS-2005>
7.01104831695557

$$$$
23
                    3D
 Structure written by MMmdl.
170180  0  0  1  0            999 V2000
  -30.6045  -14.7025   20.4714 C   0  0  0  0  0  0
  -30.4321  -12.4290   19.4575 C   0  0  0  0  0  0
  -29.5023  -12.4994   18.2260 C   0  0  0  0  0  0
  -28.0283  -12.3261   18.6430 C   0  0  0  0  0  0
  -27.6396  -13.2210   19.8503 C   0  0  2  0  0  0
  -28.6875  -13.1283   20.9809 C   0  0  0  0  0  0
  -25.2482  -13.8182   20.5698 C   0  0  0  0  0  0
  -24.1773  -13.0434   20.9235 C   0  0  0  0  0  0
  -24.6356  -11.6915   20.8761 C   0  0  0  0  0  0
  -23.9043  -10.4291   21.0422 C   0  0  0  0  0  0
  -24.3598   -9.4196   21.9184 C   0  0  0  0  0  0
  -23.6282   -8.2229   22.0743 C   0  0  0  0  0  0
  -22.4265   -8.0269   21.3541 C   0  0  0  0  0  0
  -21.9897   -9.0238   20.4641 C   0  0  0  0  0  0
  -22.7222  -10.2125   20.3061 C   0  0  0  0  0  0
  -21.6844   -6.0726   22.5281 C   0  0  0  0  0  0
  -21.4008   -6.5633   23.8213 C   0  0  0  0  0  0
  -21.3668   -5.6791   24.9174 C   0  0  0  0  0  0
  -21.6048   -4.3055   24.7226 C   0  0  0  0  0  0
  -21.8815   -3.8143   23.4348 C   0  0  0  0  0  0
  -21.9187   -4.6954   22.3403 C   0  0  0  0  0  0
  -22.7794  -13.5214   21.1902 C   0  0  0  0  0  0
  -22.1655   -4.2138   21.0979 F   0  0  0  0  0  0
  -21.5633   -3.4541   25.7739 F   0  0  0  0  0  0
  -29.9892  -13.4766   20.3993 N   0  0  0  0  0  0
  -26.2907  -12.9370   20.3294 N   0  0  0  0  0  0
  -25.9275  -11.6527   20.5767 N   0  0  0  0  0  0
  -22.0445  -12.8194   22.0458 N   0  0  0  0  0  0
  -25.4169  -15.1905   20.4095 N   0  0  0  0  0  0
  -31.8040  -14.8110   20.1963 O   0  0  0  0  0  0
  -21.6634   -6.8860   21.4244 O   0  0  0  0  0  0
  -22.3488  -14.5523   20.6750 O   0  0  0  0  0  0
  -24.6258  -31.8594   23.2013 C   0  0  0  0  0  0
  -25.9112  -32.4775   23.8333 C   0  0  1  0  0  0
  -27.2240  -27.3005   20.1247 C   0  0  0  0  0  0
  -25.5928  -33.8571   24.2268 N   0  0  0  0  0  0
  -23.4193  -30.4805   21.5439 C   0  0  2  0  0  0
  -24.8665  -28.9280   20.1119 C   0  0  0  0  0  0
  -22.7463  -29.4615   22.4940 C   0  0  0  0  0  0
  -18.0280  -28.1384   22.8490 C   0  0  0  0  0  0
  -24.1491  -36.7290   23.2636 C   0  0  0  0  0  0
  -25.9596  -30.7828   21.3751 C   0  0  0  0  0  0
  -26.0324  -29.4041   20.7246 C   0  0  0  0  0  0
  -27.2093  -28.5981   20.7277 C   0  0  0  0  0  0
  -26.0387  -26.8805   19.4818 C   0  0  0  0  0  0
  -24.8713  -27.6710   19.4841 C   0  0  0  0  0  0
  -23.6352  -29.8110   20.1594 C   0  0  0  0  0  0
  -25.4118  -36.3074   24.0321 C   0  0  1  0  0  0
  -20.5880  -28.3683   23.1291 C   0  0  2  0  0  0
  -20.6770  -26.9409   22.5419 C   0  0  0  0  0  0
  -19.5749  -26.6391   21.5215 C   0  0  0  0  0  0
  -18.1927  -26.7929   22.1629 C   0  0  0  0  0  0
  -19.1534  -28.8851   23.2888 C   0  0  0  0  0  0
  -18.9456  -30.1454   23.8903 C   0  0  0  0  0  0
  -17.6458  -30.6590   24.0562 C   0  0  0  0  0  0
  -25.9061  -34.9445   23.5099 C   0  0  0  0  0  0
  -16.5349  -29.9087   23.6329 C   0  0  0  0  0  0
  -16.7268  -28.6502   23.0351 C   0  0  0  0  0  0
  -26.4497  -31.6580   25.0701 C   0  0  0  0  0  0
  -25.3735  -31.3715   26.1435 C   0  0  0  0  0  0
  -27.0332  -30.2996   24.6157 C   0  0  0  0  0  0
  -27.6054  -32.4306   25.7477 C   0  0  0  0  0  0
  -27.5576  -37.1805   24.8464 C   0  0  0  0  0  0
  -21.4178  -29.3031   22.3677 N   0  0  0  0  0  0
  -26.4297  -37.3776   23.9404 N   0  0  0  0  0  0
  -24.6869  -31.0584   22.0971 N   0  0  0  0  0  0
  -23.4190  -28.8170   23.3032 O   0  0  0  0  0  0
  -28.3622  -26.4759   20.1464 O   0  0  0  0  0  0
  -26.5626  -34.8917   22.4663 O   0  0  0  0  0  0
  -23.5422  -32.1393   23.7339 O   0  0  0  0  0  0
  -31.0886  -17.6299   21.6088 C   0  0  0  0  0  0
  -30.4788  -19.9744   21.3293 C   0  0  0  0  0  0
  -31.3092  -18.9962   21.9125 C   0  0  0  0  0  0
  -30.0349  -17.2409   20.7523 C   0  0  0  0  0  0
  -29.4294  -19.5836   20.4930 C   0  0  0  0  0  0
  -29.5288  -22.9093   19.2563 C   0  0  0  0  0  0
  -28.1462  -22.7660   21.3407 C   0  0  0  0  0  0
  -33.3136  -20.5455   22.3896 C   0  0  0  0  0  0
  -29.1700  -24.4474   19.1253 C   0  0  0  0  0  0
  -28.3147  -24.3449   21.3428 C   0  0  0  0  0  0
  -34.4695  -20.5178   23.4020 C   0  0  0  0  0  0
  -33.3550  -18.4045   23.4267 C   0  0  0  0  0  0
  -32.3725  -19.4577   22.9042 C   0  0  2  0  0  0
  -28.4561  -22.0647   19.9831 C   0  0  0  0  0  0
  -29.2233  -18.2408   20.2314 N   0  0  0  0  0  0
  -28.1206  -24.9799   20.0255 N   0  0  0  0  0  0
  -29.7732  -15.8035   20.5805 N   0  0  0  0  0  0
  -28.5428  -20.5492   19.9191 N   0  0  0  0  0  0
  -34.4572  -19.1783   24.0269 N   0  3  0  0  0  0
  -31.4708  -12.5668   19.1526 H   0  0  0  0  0  0
  -30.3824  -11.4466   19.9298 H   0  0  0  0  0  0
  -29.7770  -11.7327   17.5002 H   0  0  0  0  0  0
  -29.6283  -13.4591   17.7221 H   0  0  0  0  0  0
  -27.8832  -11.2770   18.9046 H   0  0  0  0  0  0
  -27.3675  -12.5244   17.7986 H   0  0  0  0  0  0
  -27.6375  -14.2439   19.4748 H   0  0  0  0  0  0
  -28.7140  -12.1217   21.4002 H   0  0  0  0  0  0
  -28.4315  -13.7974   21.8037 H   0  0  0  0  0  0
  -25.2735   -9.5677   22.4763 H   0  0  0  0  0  0
  -23.9992   -7.4617   22.7451 H   0  0  0  0  0  0
  -21.0828   -8.8754   19.8937 H   0  0  0  0  0  0
  -22.3673  -10.9660   19.6172 H   0  0  0  0  0  0
  -21.2000   -7.6141   23.9715 H   0  0  0  0  0  0
  -21.1499   -6.0519   25.9078 H   0  0  0  0  0  0
  -22.0588   -2.7605   23.2854 H   0  0  0  0  0  0
  -22.4067  -11.9855   22.4842 H   0  0  0  0  0  0
  -21.1055  -13.1200   22.2663 H   0  0  0  0  0  0
  -24.6462  -15.8399   20.5191 H   0  0  0  0  0  0
  -26.2504  -15.6336   20.0471 H   0  0  0  0  0  0
  -26.7169  -32.5442   23.1071 H   0  0  0  0  0  0
  -25.0062  -33.9708   25.0400 H   0  0  0  0  0  0
  -22.7143  -31.3013   21.3984 H   0  0  0  0  0  0
  -23.3749  -35.9626   23.3301 H   0  0  0  0  0  0
  -24.3583  -36.8910   22.2051 H   0  0  0  0  0  0
  -23.7249  -37.6493   23.6660 H   0  0  0  0  0  0
  -26.0901  -31.5426   20.6028 H   0  0  0  0  0  0
  -26.8408  -30.8374   22.0025 H   0  0  0  0  0  0
  -28.1052  -28.9582   21.2118 H   0  0  0  0  0  0
  -25.9995  -25.9234   18.9824 H   0  0  0  0  0  0
  -23.9783  -27.3025   18.9985 H   0  0  0  0  0  0
  -23.7556  -30.5862   19.4015 H   0  0  0  0  0  0
  -22.7536  -29.2414   19.8577 H   0  0  0  0  0  0
  -25.1302  -36.1924   25.0811 H   0  0  0  0  0  0
  -20.9975  -28.3265   24.1412 H   0  0  0  0  0  0
  -20.5672  -26.2296   23.3623 H   0  0  0  0  0  0
  -21.6639  -26.7446   22.1217 H   0  0  0  0  0  0
  -19.6916  -25.6304   21.1236 H   0  0  0  0  0  0
  -19.6685  -27.3206   20.6747 H   0  0  0  0  0  0
  -17.4205  -26.6678   21.4025 H   0  0  0  0  0  0
  -18.0323  -26.0065   22.9016 H   0  0  0  0  0  0
  -19.7931  -30.7260   24.2282 H   0  0  0  0  0  0
  -17.5015  -31.6266   24.5161 H   0  0  0  0  0  0
  -15.5353  -30.2993   23.7645 H   0  0  0  0  0  0
  -15.8669  -28.0823   22.7067 H   0  0  0  0  0  0
  -24.5934  -30.7029   25.7773 H   0  0  0  0  0  0
  -24.8902  -32.2876   26.4831 H   0  0  0  0  0  0
  -25.8077  -30.8927   27.0219 H   0  0  0  0  0  0
  -26.2899  -29.6762   24.1175 H   0  0  0  0  0  0
  -27.4014  -29.7239   25.4658 H   0  0  0  0  0  0
  -27.8776  -30.4264   23.9381 H   0  0  0  0  0  0
  -27.2668  -33.3612   26.2041 H   0  0  0  0  0  0
  -28.3882  -32.6859   25.0322 H   0  0  0  0  0  0
  -28.0706  -31.8439   26.5411 H   0  0  0  0  0  0
  -28.2602  -38.0093   24.7504 H   0  0  0  0  0  0
  -28.1067  -36.2626   24.6303 H   0  0  0  0  0  0
  -27.2295  -37.1466   25.8867 H   0  0  0  0  0  0
  -20.9364  -29.8740   21.6867 H   0  0  0  0  0  0
  -26.0171  -38.2849   24.1398 H   0  0  0  0  0  0
  -31.6926  -16.8629   22.0680 H   0  0  0  0  0  0
  -30.6384  -21.0199   21.5484 H   0  0  0  0  0  0
  -30.4726  -22.8180   19.7948 H   0  0  0  0  0  0
  -29.7171  -22.5021   18.2620 H   0  0  0  0  0  0
  -27.1273  -22.5171   21.6361 H   0  0  0  0  0  0
  -28.7809  -22.3595   22.1276 H   0  0  0  0  0  0
  -33.6836  -20.2790   21.3986 H   0  0  0  0  0  0
  -32.8425  -21.5257   22.3146 H   0  0  0  0  0  0
  -28.8455  -24.6559   18.1054 H   0  0  0  0  0  0
  -30.0869  -25.0226   19.2686 H   0  0  0  0  0  0
  -27.6220  -24.7813   22.0638 H   0  0  0  0  0  0
  -29.3160  -24.5980   21.6954 H   0  0  0  0  0  0
  -34.3166  -21.2675   24.1801 H   0  0  0  0  0  0
  -35.4280  -20.7253   22.9254 H   0  0  0  0  0  0
  -33.7634  -17.8180   22.6026 H   0  0  0  0  0  0
  -32.8947  -17.7177   24.1374 H   0  0  0  0  0  0
  -31.8295  -19.8594   23.7624 H   0  0  0  0  0  0
  -27.5611  -22.2468   19.3864 H   0  0  0  0  0  0
  -28.7964  -15.5712   20.5193 H   0  0  0  0  0  0
  -27.8234  -20.1325   19.3356 H   0  0  0  0  0  0
  -34.3028  -19.2836   25.0169 H   0  0  0  0  0  0
  -35.3366  -18.7045   23.8955 H   0  0  0  0  0  0
  1 25  1  0  0  0
  1 30  2  0  0  0
  1 87  1  0  0  0
  2  3  1  0  0  0
  2 25  1  0  0  0
  2 90  1  0  0  0
  2 91  1  0  0  0
  3  4  1  0  0  0
  3 92  1  0  0  0
  3 93  1  0  0  0
  4  5  1  0  0  0
  4 94  1  0  0  0
  4 95  1  0  0  0
  5  6  1  0  0  0
  5 26  1  0  0  0
  5 96  1  0  0  0
  6 25  1  0  0  0
  6 97  1  0  0  0
  6 98  1  0  0  0
  7  8  2  0  0  0
  7 26  1  0  0  0
  7 29  1  0  0  0
  8  9  1  0  0  0
  8 22  1  0  0  0
  9 10  1  0  0  0
  9 27  2  0  0  0
 10 11  2  0  0  0
 10 15  1  0  0  0
 11 12  1  0  0  0
 11 99  1  0  0  0
 12 13  2  0  0  0
 12100  1  0  0  0
 13 14  1  0  0  0
 13 31  1  0  0  0
 14 15  2  0  0  0
 14101  1  0  0  0
 15102  1  0  0  0
 16 17  2  0  0  0
 16 21  1  0  0  0
 16 31  1  0  0  0
 17 18  1  0  0  0
 17103  1  0  0  0
 18 19  2  0  0  0
 18104  1  0  0  0
 19 20  1  0  0  0
 19 24  1  0  0  0
 20 21  2  0  0  0
 20105  1  0  0  0
 21 23  1  0  0  0
 22 28  1  0  0  0
 22 32  2  0  0  0
 26 27  1  0  0  0
 28106  1  0  0  0
 28107  1  0  0  0
 29108  1  0  0  0
 29109  1  0  0  0
 33 34  1  0  0  0
 33 66  1  0  0  0
 33 70  2  0  0  0
 34 36  1  0  0  0
 34 59  1  0  0  0
 34110  1  0  0  0
 35 44  2  0  0  0
 35 45  1  0  0  0
 35 68  1  0  0  0
 36 56  1  0  0  0
 36111  1  0  0  0
 37 39  1  0  0  0
 37 47  1  0  0  0
 37 66  1  0  0  0
 37112  1  0  0  0
 38 43  2  0  0  0
 38 46  1  0  0  0
 38 47  1  0  0  0
 39 64  1  0  0  0
 39 67  2  0  0  0
 40 52  1  0  0  0
 40 53  2  0  0  0
 40 58  1  0  0  0
 41113  1  0  0  0
 41114  1  0  0  0
 41115  1  0  0  0
 41 48  1  0  0  0
 42 43  1  0  0  0
 42 66  1  0  0  0
 42116  1  0  0  0
 42117  1  0  0  0
 43 44  1  0  0  0
 44118  1  0  0  0
 45 46  2  0  0  0
 45119  1  0  0  0
 46120  1  0  0  0
 47121  1  0  0  0
 47122  1  0  0  0
 48 56  1  0  0  0
 48 65  1  0  0  0
 48123  1  0  0  0
 49 50  1  0  0  0
 49 53  1  0  0  0
 49 64  1  0  0  0
 49124  1  0  0  0
 50 51  1  0  0  0
 50125  1  0  0  0
 50126  1  0  0  0
 51 52  1  0  0  0
 51127  1  0  0  0
 51128  1  0  0  0
 52129  1  0  0  0
 52130  1  0  0  0
 53 54  1  0  0  0
 54 55  2  0  0  0
 54131  1  0  0  0
 55 57  1  0  0  0
 55132  1  0  0  0
 56 69  2  0  0  0
 57 58  2  0  0  0
 57133  1  0  0  0
 58134  1  0  0  0
 59 60  1  0  0  0
 59 61  1  0  0  0
 59 62  1  0  0  0
 60135  1  0  0  0
 60136  1  0  0  0
 60137  1  0  0  0
 61138  1  0  0  0
 61139  1  0  0  0
 61140  1  0  0  0
 62141  1  0  0  0
 62142  1  0  0  0
 62143  1  0  0  0
 63 65  1  0  0  0
 63144  1  0  0  0
 63145  1  0  0  0
 63146  1  0  0  0
 64147  1  0  0  0
 65148  1  0  0  0
 68 86  1  0  0  0
 71 73  2  0  0  0
 71 74  1  0  0  0
 71149  1  0  0  0
 72 73  1  0  0  0
 72 75  2  0  0  0
 72150  1  0  0  0
 73 83  1  0  0  0
 74 85  2  0  0  0
 74 87  1  0  0  0
 75 85  1  0  0  0
 75 88  1  0  0  0
 76 79  1  0  0  0
 76 84  1  0  0  0
 76151  1  0  0  0
 76152  1  0  0  0
 77 80  1  0  0  0
 77 84  1  0  0  0
 77153  1  0  0  0
 77154  1  0  0  0
 78 81  1  0  0  0
 78 83  1  0  0  0
 78155  1  0  0  0
 78156  1  0  0  0
 79 86  1  0  0  0
 79157  1  0  0  0
 79158  1  0  0  0
 80 86  1  0  0  0
 80159  1  0  0  0
 80160  1  0  0  0
 81 89  1  0  0  0
 81161  1  0  0  0
 81162  1  0  0  0
 82 83  1  0  0  0
 82 89  1  0  0  0
 82163  1  0  0  0
 82164  1  0  0  0
 83165  1  0  0  0
 84 88  1  0  0  0
 84166  1  0  0  0
 87167  1  0  0  0
 88168  1  0  0  0
 89169  1  0  0  0
 89170  1  0  0  0
M  CHG  1  89   1
M  ISO  4   1 100  68 101  86 101  87 100
M  END
> <chiral flag>
0

> <version>
0

> <s_m_source_file>
/data/baiqing/PycharmProjects/Reinvent-master-3.2/result/LINK_invent/BTK/process_docking_weight1_custom_sum_contain_oxygen_bond_distance_aromatic_linkinvent_7_9_3/rearranged_h_0136.sdf

> <i_m_source_file_index>
22

> <r_mmod_Potential_Energy-OPLS-2005>
-170.648788452148

> <r_mmod_Stretch_Energy-OPLS-2005>
92.5960235595703

> <r_mmod_Bend_Energy-OPLS-2005>
214.632751464844

> <r_mmod_Torsional_Energy-OPLS-2005>
329.321929931641

> <r_mmod_Improper_Torsional_Energy-OPLS-2005>
7.23222303390503

> <r_mmod_Van_der_Waal_Energy-OPLS-2005>
143.203811645508

> <r_mmod_Electrostatic_Energy-OPLS-2005>
-512.1923828125

> <r_mmod_Solvation_Energy-OPLS-2005>
-509.312774658203

> <b_mmod_Minimization_Converged-OPLS-2005>
0

> <r_mmod_RMS_Derivative-OPLS-2005>
2.17771887779236

$$$$
24
                    3D
 Structure written by MMmdl.
166175  0  0  1  0            999 V2000
  -30.6663  -14.4701   20.4770 C   0  0  0  0  0  0
  -30.4142  -12.2813   19.4057 C   0  0  0  0  0  0
  -29.4825  -12.4748   18.1898 C   0  0  0  0  0  0
  -28.0018  -12.3387   18.6049 C   0  0  0  0  0  0
  -27.6498  -13.1785   19.8619 C   0  0  2  0  0  0
  -28.6993  -12.9977   20.9799 C   0  0  0  0  0  0
  -25.2610  -13.8084   20.5699 C   0  0  0  0  0  0
  -24.1831  -13.0394   20.9201 C   0  0  0  0  0  0
  -24.6366  -11.6857   20.8765 C   0  0  0  0  0  0
  -23.9025  -10.4265   21.0422 C   0  0  0  0  0  0
  -24.3588   -9.4184   21.9194 C   0  0  0  0  0  0
  -23.6273   -8.2217   22.0783 C   0  0  0  0  0  0
  -22.4264   -8.0264   21.3568 C   0  0  0  0  0  0
  -21.9907   -9.0234   20.4655 C   0  0  0  0  0  0
  -22.7223  -10.2114   20.3063 C   0  0  0  0  0  0
  -21.6851   -6.0729   22.5291 C   0  0  0  0  0  0
  -21.4006   -6.5651   23.8221 C   0  0  0  0  0  0
  -21.3637   -5.6821   24.9197 C   0  0  0  0  0  0
  -21.6034   -4.3084   24.7254 C   0  0  0  0  0  0
  -21.8821   -3.8156   23.4393 C   0  0  0  0  0  0
  -21.9196   -4.6954   22.3434 C   0  0  0  0  0  0
  -22.7872  -13.5231   21.1884 C   0  0  0  0  0  0
  -22.1669   -4.2124   21.1010 F   0  0  0  0  0  0
  -21.5627   -3.4568   25.7765 F   0  0  0  0  0  0
  -30.0212  -13.2777   20.4050 N   0  0  0  0  0  0
  -26.2965  -12.9164   20.3325 N   0  0  0  0  0  0
  -25.9261  -11.6372   20.5770 N   0  0  0  0  0  0
  -22.0554  -12.8174   22.0440 N   0  0  0  0  0  0
  -25.4486  -15.1788   20.4141 N   0  0  0  0  0  0
  -31.8549  -14.6221   20.1815 O   0  0  0  0  0  0
  -21.6634   -6.8864   21.4256 O   0  0  0  0  0  0
  -22.3562  -14.5549   20.6765 O   0  0  0  0  0  0
  -24.6073  -31.8719   23.2113 C   0  0  0  0  0  0
  -25.8999  -32.4841   23.8411 C   0  0  1  0  0  0
  -27.2664  -27.4927   20.0982 C   0  0  0  0  0  0
  -25.5899  -33.8637   24.2352 N   0  0  0  0  0  0
  -23.3923  -30.4890   21.5516 C   0  0  2  0  0  0
  -24.8451  -28.9552   20.1219 C   0  0  0  0  0  0
  -22.7367  -29.4666   22.5038 C   0  0  0  0  0  0
  -18.0251  -28.1381   22.8483 C   0  0  0  0  0  0
  -24.1501  -36.7332   23.2622 C   0  0  0  0  0  0
  -25.9107  -30.8571   21.3519 C   0  0  0  0  0  0
  -25.9952  -29.4920   20.7093 C   0  0  0  0  0  0
  -27.2047  -28.7710   20.7020 C   0  0  0  0  0  0
  -26.0977  -26.9595   19.5168 C   0  0  0  0  0  0
  -24.8865  -27.6813   19.5263 C   0  0  0  0  0  0
  -23.5972  -29.8073   20.1704 C   0  0  0  0  0  0
  -25.4111  -36.3123   24.0343 C   0  0  1  0  0  0
  -20.5843  -28.3647   23.1349 C   0  0  2  0  0  0
  -20.6753  -26.9390   22.5429 C   0  0  0  0  0  0
  -19.5740  -26.6352   21.5229 C   0  0  0  0  0  0
  -18.1902  -26.7934   22.1598 C   0  0  0  0  0  0
  -19.1504  -28.8831   23.2914 C   0  0  0  0  0  0
  -18.9439  -30.1454   23.8901 C   0  0  0  0  0  0
  -17.6438  -30.6588   24.0554 C   0  0  0  0  0  0
  -25.9039  -34.9484   23.5145 C   0  0  0  0  0  0
  -16.5319  -29.9089   23.6321 C   0  0  0  0  0  0
  -16.7231  -28.6493   23.0348 C   0  0  0  0  0  0
  -26.4441  -31.6581   25.0712 C   0  0  0  0  0  0
  -25.3698  -31.3631   26.1434 C   0  0  0  0  0  0
  -27.0252  -30.3035   24.6028 C   0  0  0  0  0  0
  -27.6023  -32.4251   25.7517 C   0  0  0  0  0  0
  -27.5616  -37.1790   24.8436 C   0  0  0  0  0  0
  -21.4107  -29.3005   22.3755 N   0  0  0  0  0  0
  -26.4288  -37.3828   23.9444 N   0  0  0  0  0  0
  -24.6540  -31.0866   22.0976 N   0  0  0  0  0  0
  -23.4153  -28.8237   23.3081 O   0  0  0  0  0  0
  -28.4077  -26.7246   20.0353 O   0  0  0  0  0  0
  -26.5603  -34.8933   22.4705 O   0  0  0  0  0  0
  -23.5295  -32.1452   23.7549 O   0  0  0  0  0  0
  -32.1113  -23.6338   20.9538 C   0  0  0  0  0  0
  -32.4713  -22.2931   20.7439 C   0  0  0  0  0  0
  -29.8917  -22.8603   21.5304 C   0  0  0  0  0  0
  -30.7943  -23.9281   21.3482 C   0  0  0  0  0  0
  -30.3255  -21.5455   21.2324 C   0  0  0  0  0  0
  -29.8094  -17.7127   19.4275 C   0  0  0  0  0  0
  -29.5825  -16.2222   19.2088 C   0  0  0  0  0  0
  -29.9451  -16.5636   21.5424 C   0  0  0  0  0  0
  -29.4939  -17.8877   20.9097 C   0  0  1  0  0  0
  -28.4722  -23.1393   22.0134 C   0  0  0  0  0  0
  -29.3709  -20.3518   21.2239 C   0  0  0  0  0  0
  -29.6101  -27.2550   20.5938 C   0  0  0  0  0  0
  -30.6880  -26.1664   20.5668 C   0  0  0  0  0  0
  -31.5991  -21.2680   20.8653 N   0  0  0  0  0  0
  -29.8355  -15.5405   20.4952 N   0  0  0  0  0  0
  -30.0854  -19.1001   21.5230 N   0  3  0  0  0  0
  -30.3643  -25.2117   21.5724 O   0  0  0  0  0  0
  -31.4592  -12.3748   19.1066 H   0  0  0  0  0  0
  -30.3007  -11.2786   19.8177 H   0  0  0  0  0  0
  -29.7200  -11.7455   17.4118 H   0  0  0  0  0  0
  -29.6465  -13.4586   17.7444 H   0  0  0  0  0  0
  -27.8095  -11.2837   18.7987 H   0  0  0  0  0  0
  -27.3522  -12.6184   17.7734 H   0  0  0  0  0  0
  -27.6700  -14.2122   19.5371 H   0  0  0  0  0  0
  -28.6729  -11.9793   21.3704 H   0  0  0  0  0  0
  -28.4821  -13.6553   21.8236 H   0  0  0  0  0  0
  -25.2754   -9.5667   22.4763 H   0  0  0  0  0  0
  -23.9980   -7.4630   22.7517 H   0  0  0  0  0  0
  -21.0852   -8.8781   19.8924 H   0  0  0  0  0  0
  -22.3725  -10.9665   19.6180 H   0  0  0  0  0  0
  -21.1979   -7.6159   23.9699 H   0  0  0  0  0  0
  -21.1451   -6.0570   25.9092 H   0  0  0  0  0  0
  -22.0608   -2.7611   23.2929 H   0  0  0  0  0  0
  -22.4177  -11.9725   22.4633 H   0  0  0  0  0  0
  -21.1188  -13.1181   22.2732 H   0  0  0  0  0  0
  -24.7065  -15.8612   20.5241 H   0  0  0  0  0  0
  -26.3271  -15.5948   20.1322 H   0  0  0  0  0  0
  -26.7086  -32.5608   23.1203 H   0  0  0  0  0  0
  -25.0105  -33.9797   25.0533 H   0  0  0  0  0  0
  -22.6767  -31.3028   21.4089 H   0  0  0  0  0  0
  -23.3813  -35.9613   23.3174 H   0  0  0  0  0  0
  -24.3632  -36.9071   22.2063 H   0  0  0  0  0  0
  -23.7185  -37.6459   23.6738 H   0  0  0  0  0  0
  -26.0058  -31.6205   20.5791 H   0  0  0  0  0  0
  -26.8043  -30.9238   21.9605 H   0  0  0  0  0  0
  -28.0716  -29.2206   21.1625 H   0  0  0  0  0  0
  -26.1329  -25.9833   19.0556 H   0  0  0  0  0  0
  -24.0024  -27.2508   19.0745 H   0  0  0  0  0  0
  -23.6908  -30.5713   19.3981 H   0  0  0  0  0  0
  -22.7279  -29.2101   19.8871 H   0  0  0  0  0  0
  -25.1266  -36.1982   25.0831 H   0  0  0  0  0  0
  -20.9917  -28.3208   24.1477 H   0  0  0  0  0  0
  -20.5671  -26.2227   23.3594 H   0  0  0  0  0  0
  -21.6633  -26.7459   22.1221 H   0  0  0  0  0  0
  -19.6900  -25.6270   21.1234 H   0  0  0  0  0  0
  -19.6683  -27.3141   20.6744 H   0  0  0  0  0  0
  -17.4193  -26.6725   21.3967 H   0  0  0  0  0  0
  -18.0242  -26.0053   22.8947 H   0  0  0  0  0  0
  -19.7920  -30.7276   24.2244 H   0  0  0  0  0  0
  -17.4994  -31.6272   24.5145 H   0  0  0  0  0  0
  -15.5312  -30.2991   23.7655 H   0  0  0  0  0  0
  -15.8621  -28.0805   22.7074 H   0  0  0  0  0  0
  -24.5975  -30.6848   25.7779 H   0  0  0  0  0  0
  -24.8735  -32.2730   26.4822 H   0  0  0  0  0  0
  -25.8061  -30.8883   27.0234 H   0  0  0  0  0  0
  -26.2787  -29.6837   24.1040 H   0  0  0  0  0  0
  -27.3988  -29.7213   25.4465 H   0  0  0  0  0  0
  -27.8641  -30.4356   23.9187 H   0  0  0  0  0  0
  -27.2673  -33.3536   26.2165 H   0  0  0  0  0  0
  -28.3854  -32.6819   25.0361 H   0  0  0  0  0  0
  -28.0685  -31.8305   26.5390 H   0  0  0  0  0  0
  -28.2521  -38.0198   24.7702 H   0  0  0  0  0  0
  -28.1230  -36.2762   24.6009 H   0  0  0  0  0  0
  -27.2359  -37.1093   25.8823 H   0  0  0  0  0  0
  -20.9273  -29.8698   21.6956 H   0  0  0  0  0  0
  -26.0177  -38.2880   24.1572 H   0  0  0  0  0  0
  -32.8518  -24.4113   20.8274 H   0  0  0  0  0  0
  -33.4825  -22.0343   20.4611 H   0  0  0  0  0  0
  -29.1734  -18.3213   18.7809 H   0  0  0  0  0  0
  -30.8513  -17.9573   19.2129 H   0  0  0  0  0  0
  -30.2038  -15.8543   18.3902 H   0  0  0  0  0  0
  -28.5455  -16.0599   18.9158 H   0  0  0  0  0  0
  -29.2960  -16.2988   22.3803 H   0  0  0  0  0  0
  -30.9669  -16.6237   21.9194 H   0  0  0  0  0  0
  -28.4098  -17.9409   21.0296 H   0  0  0  0  0  0
  -28.1872  -24.1879   21.9215 H   0  0  0  0  0  0
  -28.3802  -22.8701   23.0681 H   0  0  0  0  0  0
  -27.7396  -22.5701   21.4417 H   0  0  0  0  0  0
  -28.9358  -20.3119   20.2247 H   0  0  0  0  0  0
  -28.5477  -20.4661   21.9276 H   0  0  0  0  0  0
  -29.9304  -28.1102   19.9971 H   0  0  0  0  0  0
  -29.4674  -27.5933   21.6203 H   0  0  0  0  0  0
  -31.6639  -26.6021   20.7794 H   0  0  0  0  0  0
  -30.7352  -25.7225   19.5703 H   0  0  0  0  0  0
  -31.0200  -19.2759   21.1786 H   0  0  0  0  0  0
  -30.1420  -19.0137   22.5254 H   0  0  0  0  0  0
  1 25  1  0  0  0
  1 30  2  0  0  0
  1 85  1  0  0  0
  2  3  1  0  0  0
  2 25  1  0  0  0
  2 88  1  0  0  0
  2 89  1  0  0  0
  3  4  1  0  0  0
  3 90  1  0  0  0
  3 91  1  0  0  0
  4  5  1  0  0  0
  4 92  1  0  0  0
  4 93  1  0  0  0
  5  6  1  0  0  0
  5 26  1  0  0  0
  5 94  1  0  0  0
  6 25  1  0  0  0
  6 95  1  0  0  0
  6 96  1  0  0  0
  7  8  2  0  0  0
  7 26  1  0  0  0
  7 29  1  0  0  0
  8  9  1  0  0  0
  8 22  1  0  0  0
  9 10  1  0  0  0
  9 27  2  0  0  0
 10 11  2  0  0  0
 10 15  1  0  0  0
 11 12  1  0  0  0
 11 97  1  0  0  0
 12 13  2  0  0  0
 12 98  1  0  0  0
 13 14  1  0  0  0
 13 31  1  0  0  0
 14 15  2  0  0  0
 14 99  1  0  0  0
 15100  1  0  0  0
 16 17  2  0  0  0
 16 21  1  0  0  0
 16 31  1  0  0  0
 17 18  1  0  0  0
 17101  1  0  0  0
 18 19  2  0  0  0
 18102  1  0  0  0
 19 20  1  0  0  0
 19 24  1  0  0  0
 20 21  2  0  0  0
 20103  1  0  0  0
 21 23  1  0  0  0
 22 28  1  0  0  0
 22 32  2  0  0  0
 26 27  1  0  0  0
 28104  1  0  0  0
 28105  1  0  0  0
 29106  1  0  0  0
 29107  1  0  0  0
 33 34  1  0  0  0
 33 66  1  0  0  0
 33 70  2  0  0  0
 34 36  1  0  0  0
 34 59  1  0  0  0
 34108  1  0  0  0
 35 44  2  0  0  0
 35 45  1  0  0  0
 35 68  1  0  0  0
 36 56  1  0  0  0
 36109  1  0  0  0
 37 39  1  0  0  0
 37 47  1  0  0  0
 37 66  1  0  0  0
 37110  1  0  0  0
 38 43  2  0  0  0
 38 46  1  0  0  0
 38 47  1  0  0  0
 39 64  1  0  0  0
 39 67  2  0  0  0
 40 52  1  0  0  0
 40 53  2  0  0  0
 40 58  1  0  0  0
 41111  1  0  0  0
 41112  1  0  0  0
 41113  1  0  0  0
 41 48  1  0  0  0
 42 43  1  0  0  0
 42 66  1  0  0  0
 42114  1  0  0  0
 42115  1  0  0  0
 43 44  1  0  0  0
 44116  1  0  0  0
 45 46  2  0  0  0
 45117  1  0  0  0
 46118  1  0  0  0
 47119  1  0  0  0
 47120  1  0  0  0
 48 56  1  0  0  0
 48 65  1  0  0  0
 48121  1  0  0  0
 49 50  1  0  0  0
 49 53  1  0  0  0
 49 64  1  0  0  0
 49122  1  0  0  0
 50 51  1  0  0  0
 50123  1  0  0  0
 50124  1  0  0  0
 51 52  1  0  0  0
 51125  1  0  0  0
 51126  1  0  0  0
 52127  1  0  0  0
 52128  1  0  0  0
 53 54  1  0  0  0
 54 55  2  0  0  0
 54129  1  0  0  0
 55 57  1  0  0  0
 55130  1  0  0  0
 56 69  2  0  0  0
 57 58  2  0  0  0
 57131  1  0  0  0
 58132  1  0  0  0
 59 60  1  0  0  0
 59 61  1  0  0  0
 59 62  1  0  0  0
 60133  1  0  0  0
 60134  1  0  0  0
 60135  1  0  0  0
 61136  1  0  0  0
 61137  1  0  0  0
 61138  1  0  0  0
 62139  1  0  0  0
 62140  1  0  0  0
 62141  1  0  0  0
 63 65  1  0  0  0
 63142  1  0  0  0
 63143  1  0  0  0
 63144  1  0  0  0
 64145  1  0  0  0
 65146  1  0  0  0
 68 82  1  0  0  0
 71 72  2  0  0  0
 71 74  1  0  0  0
 71147  1  0  0  0
 72 84  1  0  0  0
 72148  1  0  0  0
 73 74  2  0  0  0
 73 75  1  0  0  0
 73 80  1  0  0  0
 74 87  1  0  0  0
 75 81  1  0  0  0
 75 84  2  0  0  0
 76 77  1  0  0  0
 76 79  1  0  0  0
 76149  1  0  0  0
 76150  1  0  0  0
 77 85  1  0  0  0
 77151  1  0  0  0
 77152  1  0  0  0
 78 79  1  0  0  0
 78 85  1  0  0  0
 78153  1  0  0  0
 78154  1  0  0  0
 79 86  1  0  0  0
 79155  1  0  0  0
 80156  1  0  0  0
 80157  1  0  0  0
 80158  1  0  0  0
 81 86  1  0  0  0
 81159  1  0  0  0
 81160  1  0  0  0
 82 83  1  0  0  0
 82161  1  0  0  0
 82162  1  0  0  0
 83 87  1  0  0  0
 83163  1  0  0  0
 83164  1  0  0  0
 86165  1  0  0  0
 86166  1  0  0  0
M  CHG  1  86   1
M  ISO  4   1 100  68 101  82 101  85 100
M  END
> <chiral flag>
0

> <version>
0

> <s_m_source_file>
/data/baiqing/PycharmProjects/Reinvent-master-3.2/result/LINK_invent/BTK/process_docking_weight1_custom_sum_contain_oxygen_bond_distance_aromatic_linkinvent_7_9_3/rearranged_h_0136.sdf

> <i_m_source_file_index>
23

> <r_mmod_Potential_Energy-OPLS-2005>
-295.772674560547

> <r_mmod_Stretch_Energy-OPLS-2005>
33.8340911865234

> <r_mmod_Bend_Energy-OPLS-2005>
121.434257507324

> <r_mmod_Torsional_Energy-OPLS-2005>
363.096252441406

> <r_mmod_Improper_Torsional_Energy-OPLS-2005>
15.0100212097168

> <r_mmod_Van_der_Waal_Energy-OPLS-2005>
160.891326904297

> <r_mmod_Electrostatic_Energy-OPLS-2005>
-557.385986328125

> <r_mmod_Solvation_Energy-OPLS-2005>
-448.071411132812

> <b_mmod_Minimization_Converged-OPLS-2005>
0

> <r_mmod_RMS_Derivative-OPLS-2005>
4.60445690155029

$$$$
25
                    3D
 Structure written by MMmdl.
171179  0  0  1  0            999 V2000
  -30.6011  -14.8467   20.4291 C   0  0  0  0  0  0
  -30.4379  -12.5091   19.4866 C   0  0  0  0  0  0
  -29.5179  -12.5164   18.2465 C   0  0  0  0  0  0
  -28.0483  -12.3155   18.6552 C   0  0  0  0  0  0
  -27.6387  -13.2355   19.8301 C   0  0  2  0  0  0
  -28.6804  -13.2390   20.9682 C   0  0  0  0  0  0
  -25.2580  -13.8166   20.5595 C   0  0  0  0  0  0
  -24.1852  -13.0449   20.9182 C   0  0  0  0  0  0
  -24.6477  -11.6936   20.8761 C   0  0  0  0  0  0
  -23.9118  -10.4314   21.0452 C   0  0  0  0  0  0
  -24.3658   -9.4216   21.9202 C   0  0  0  0  0  0
  -23.6336   -8.2244   22.0767 C   0  0  0  0  0  0
  -22.4308   -8.0318   21.3550 C   0  0  0  0  0  0
  -21.9942   -9.0288   20.4640 C   0  0  0  0  0  0
  -22.7296  -10.2177   20.3076 C   0  0  0  0  0  0
  -21.6843   -6.0795   22.5290 C   0  0  0  0  0  0
  -21.4017   -6.5684   23.8248 C   0  0  0  0  0  0
  -21.3664   -5.6812   24.9192 C   0  0  0  0  0  0
  -21.6020   -4.3079   24.7215 C   0  0  0  0  0  0
  -21.8807   -3.8199   23.4334 C   0  0  0  0  0  0
  -21.9185   -4.7021   22.3412 C   0  0  0  0  0  0
  -22.7874  -13.5254   21.1864 C   0  0  0  0  0  0
  -22.1648   -4.2220   21.0985 F   0  0  0  0  0  0
  -21.5622   -3.4562   25.7722 F   0  0  0  0  0  0
  -29.9809  -13.6057   20.3810 N   0  0  0  0  0  0
  -26.2971  -12.9366   20.3128 N   0  0  0  0  0  0
  -25.9415  -11.6533   20.5720 N   0  0  0  0  0  0
  -22.0515  -12.8177   22.0412 N   0  0  0  0  0  0
  -25.4383  -15.1806   20.4030 N   0  0  0  0  0  0
  -31.8022  -14.9180   20.1533 O   0  0  0  0  0  0
  -21.6646   -6.8930   21.4249 O   0  0  0  0  0  0
  -22.3523  -14.5565   20.6771 O   0  0  0  0  0  0
  -24.6380  -31.8483   23.1935 C   0  0  0  0  0  0
  -25.9163  -32.4734   23.8317 C   0  0  1  0  0  0
  -27.2285  -27.1947   20.1644 C   0  0  0  0  0  0
  -25.5923  -33.8549   24.2241 N   0  0  0  0  0  0
  -23.4460  -30.4614   21.5377 C   0  0  2  0  0  0
  -24.8990  -28.9054   20.1107 C   0  0  0  0  0  0
  -22.7596  -29.4496   22.4874 C   0  0  0  0  0  0
  -18.0309  -28.1376   22.8502 C   0  0  0  0  0  0
  -24.1494  -36.7295   23.2630 C   0  0  0  0  0  0
  -25.9930  -30.7411   21.3842 C   0  0  0  0  0  0
  -26.0687  -29.3533   20.7407 C   0  0  0  0  0  0
  -27.2391  -28.5110   20.7564 C   0  0  0  0  0  0
  -26.0422  -26.8478   19.4928 C   0  0  0  0  0  0
  -24.8962  -27.6649   19.4643 C   0  0  0  0  0  0
  -23.6704  -29.7951   20.1527 C   0  0  0  0  0  0
  -25.4114  -36.3082   24.0326 C   0  0  1  0  0  0
  -20.5899  -28.3702   23.1323 C   0  0  2  0  0  0
  -20.6778  -26.9432   22.5437 C   0  0  0  0  0  0
  -19.5786  -26.6568   21.5174 C   0  0  0  0  0  0
  -18.2044  -26.7887   22.1710 C   0  0  0  0  0  0
  -19.1546  -28.8844   23.2930 C   0  0  0  0  0  0
  -18.9417  -30.1396   23.9071 C   0  0  0  0  0  0
  -17.6394  -30.6480   24.0707 C   0  0  0  0  0  0
  -25.9050  -34.9422   23.5102 C   0  0  0  0  0  0
  -16.5317  -29.9028   23.6368 C   0  0  0  0  0  0
  -16.7277  -28.6492   23.0291 C   0  0  0  0  0  0
  -26.4512  -31.6554   25.0710 C   0  0  0  0  0  0
  -25.3719  -31.3715   26.1407 C   0  0  0  0  0  0
  -27.0370  -30.2955   24.6251 C   0  0  0  0  0  0
  -27.6077  -32.4276   25.7491 C   0  0  0  0  0  0
  -27.5587  -37.1809   24.8457 C   0  0  0  0  0  0
  -21.4265  -29.3012   22.3710 N   0  0  0  0  0  0
  -26.4299  -37.3778   23.9399 N   0  0  0  0  0  0
  -24.7114  -31.0367   22.0942 N   0  0  0  0  0  0
  -23.4317  -28.8044   23.2982 O   0  0  0  0  0  0
  -28.2668  -26.2116   20.1742 O   0  0  0  0  0  0
  -26.5664  -34.8899   22.4690 O   0  0  0  0  0  0
  -23.5489  -32.1341   23.7144 O   0  0  0  0  0  0
  -29.6047  -21.1981   21.2795 C   0  0  0  0  0  0
  -29.3720  -22.6289   21.3410 C   0  0  0  0  0  0
  -28.8990  -20.3033   20.4127 C   0  0  0  0  0  0
  -28.4771  -23.3564   20.4898 C   0  0  0  0  0  0
  -27.9385  -21.0254   19.5920 C   0  0  0  0  0  0
  -27.8463  -22.4923   19.5292 C   0  0  0  0  0  0
  -25.1744  -18.3939   19.7018 C   0  0  0  0  0  0
  -25.7473  -20.2490   21.3130 C   0  0  0  0  0  0
  -28.9180  -18.6524   20.5516 C   0  0  0  0  0  0
  -27.1983  -23.1808   18.3175 C   0  0  0  0  0  0
  -26.8262  -20.2137   18.9055 C   0  0  0  0  0  0
  -27.9764  -24.8771   20.8626 C   0  0  0  0  0  0
  -30.1513  -17.5476   20.5411 C   0  0  0  0  0  0
  -25.6601  -23.3653   18.2640 C   0  0  0  0  0  0
  -25.6094  -19.8630   19.8265 C   0  0  0  0  0  0
  -29.8252  -16.0105   20.5806 N   0  0  0  0  0  0
  -25.2644  -24.1453   17.0675 N   0  3  0  0  0  0
  -31.4779  -12.6285   19.1805 H   0  0  0  0  0  0
  -30.3947  -11.5417   19.9907 H   0  0  0  0  0  0
  -29.8295  -11.7376   17.5471 H   0  0  0  0  0  0
  -29.6138  -13.4640   17.7159 H   0  0  0  0  0  0
  -27.9322  -11.2692   18.9368 H   0  0  0  0  0  0
  -27.3885  -12.4743   17.8023 H   0  0  0  0  0  0
  -27.6107  -14.2448   19.4168 H   0  0  0  0  0  0
  -28.7302  -12.2658   21.4577 H   0  0  0  0  0  0
  -28.3987  -13.9596   21.7369 H   0  0  0  0  0  0
  -25.2835   -9.5666   22.4724 H   0  0  0  0  0  0
  -24.0070   -7.4636   22.7488 H   0  0  0  0  0  0
  -21.0872   -8.8820   19.8920 H   0  0  0  0  0  0
  -22.3799  -10.9714   19.6155 H   0  0  0  0  0  0
  -21.2017   -7.6201   23.9764 H   0  0  0  0  0  0
  -21.1482   -6.0539   25.9092 H   0  0  0  0  0  0
  -22.0585   -2.7666   23.2795 H   0  0  0  0  0  0
  -22.4160  -11.9777   22.4580 H   0  0  0  0  0  0
  -21.1174  -13.1197   22.2834 H   0  0  0  0  0  0
  -24.6827  -15.8435   20.5170 H   0  0  0  0  0  0
  -26.2929  -15.6038   20.0569 H   0  0  0  0  0  0
  -26.7185  -32.5367   23.1023 H   0  0  0  0  0  0
  -24.9985  -33.9685   25.0324 H   0  0  0  0  0  0
  -22.7435  -31.2815   21.3869 H   0  0  0  0  0  0
  -23.3754  -35.9634   23.3281 H   0  0  0  0  0  0
  -24.3560  -36.8945   22.2045 H   0  0  0  0  0  0
  -23.7272  -37.6488   23.6666 H   0  0  0  0  0  0
  -26.1414  -31.4844   20.5978 H   0  0  0  0  0  0
  -26.8676  -30.7978   22.0211 H   0  0  0  0  0  0
  -28.1254  -28.8520   21.2742 H   0  0  0  0  0  0
  -26.0053  -25.9004   18.9971 H   0  0  0  0  0  0
  -24.0110  -27.3338   18.9403 H   0  0  0  0  0  0
  -23.7945  -30.5759   19.3968 H   0  0  0  0  0  0
  -22.7929  -29.2207   19.8456 H   0  0  0  0  0  0
  -25.1308  -36.1918   25.0826 H   0  0  0  0  0  0
  -20.9989  -28.3333   24.1411 H   0  0  0  0  0  0
  -20.5566  -26.2216   23.3522 H   0  0  0  0  0  0
  -21.6636  -26.7578   22.1229 H   0  0  0  0  0  0
  -19.6976  -25.6615   21.0878 H   0  0  0  0  0  0
  -19.6688  -27.3597   20.6900 H   0  0  0  0  0  0
  -18.0734  -25.9986   22.9133 H   0  0  0  0  0  0
  -17.4296  -26.6462   21.4202 H   0  0  0  0  0  0
  -19.7843  -30.7201   24.2606 H   0  0  0  0  0  0
  -17.4964  -31.6100   24.5484 H   0  0  0  0  0  0
  -15.5327  -30.2954   23.7647 H   0  0  0  0  0  0
  -15.8710  -28.0844   22.6861 H   0  0  0  0  0  0
  -24.5908  -30.7070   25.7688 H   0  0  0  0  0  0
  -24.8920  -32.2891   26.4795 H   0  0  0  0  0  0
  -25.7994  -30.8884   27.0202 H   0  0  0  0  0  0
  -26.2966  -29.6684   24.1271 H   0  0  0  0  0  0
  -27.3980  -29.7229   25.4802 H   0  0  0  0  0  0
  -27.8869  -30.4167   23.9545 H   0  0  0  0  0  0
  -27.2693  -33.3557   26.2078 H   0  0  0  0  0  0
  -28.3876  -32.6847   25.0328 H   0  0  0  0  0  0
  -28.0746  -31.8400   26.5400 H   0  0  0  0  0  0
  -28.2608  -38.0105   24.7508 H   0  0  0  0  0  0
  -28.1089  -36.2642   24.6277 H   0  0  0  0  0  0
  -27.2296  -37.1435   25.8858 H   0  0  0  0  0  0
  -20.9358  -29.8721   21.6999 H   0  0  0  0  0  0
  -26.0167  -38.2847   24.1397 H   0  0  0  0  0  0
  -30.2696  -20.7721   22.0188 H   0  0  0  0  0  0
  -29.8722  -23.1925   22.1148 H   0  0  0  0  0  0
  -24.3522  -18.1666   20.3843 H   0  0  0  0  0  0
  -25.9975  -17.7225   19.9271 H   0  0  0  0  0  0
  -24.8233  -18.1688   18.6946 H   0  0  0  0  0  0
  -25.8917  -21.3207   21.4510 H   0  0  0  0  0  0
  -26.5903  -19.7588   21.7948 H   0  0  0  0  0  0
  -24.8460  -19.9765   21.8632 H   0  0  0  0  0  0
  -28.4157  -18.4860   21.5018 H   0  0  0  0  0  0
  -28.2383  -18.2392   19.8153 H   0  0  0  0  0  0
  -27.5110  -22.6164   17.4405 H   0  0  0  0  0  0
  -27.6929  -24.1441   18.1932 H   0  0  0  0  0  0
  -27.2197  -19.3217   18.4192 H   0  0  0  0  0  0
  -26.4371  -20.7552   18.0523 H   0  0  0  0  0  0
  -28.3402  -25.0550   21.8755 H   0  0  0  0  0  0
  -26.8981  -24.7950   20.9914 H   0  0  0  0  0  0
  -30.7891  -17.7467   21.4044 H   0  0  0  0  0  0
  -30.7766  -17.7493   19.6677 H   0  0  0  0  0  0
  -25.3003  -23.8587   19.1698 H   0  0  0  0  0  0
  -25.1305  -22.4174   18.2208 H   0  0  0  0  0  0
  -24.7579  -20.4413   19.4700 H   0  0  0  0  0  0
  -28.8501  -15.7998   20.7361 H   0  0  0  0  0  0
  -25.6150  -23.7403   16.2156 H   0  0  0  0  0  0
  -25.6152  -25.0822   17.1187 H   0  0  0  0  0  0
  -24.2625  -24.1959   16.9916 H   0  0  0  0  0  0
  1 25  1  0  0  0
  1 30  2  0  0  0
  1 86  1  0  0  0
  2  3  1  0  0  0
  2 25  1  0  0  0
  2 88  1  0  0  0
  2 89  1  0  0  0
  3  4  1  0  0  0
  3 90  1  0  0  0
  3 91  1  0  0  0
  4  5  1  0  0  0
  4 92  1  0  0  0
  4 93  1  0  0  0
  5  6  1  0  0  0
  5 26  1  0  0  0
  5 94  1  0  0  0
  6 25  1  0  0  0
  6 95  1  0  0  0
  6 96  1  0  0  0
  7  8  2  0  0  0
  7 26  1  0  0  0
  7 29  1  0  0  0
  8  9  1  0  0  0
  8 22  1  0  0  0
  9 10  1  0  0  0
  9 27  2  0  0  0
 10 11  2  0  0  0
 10 15  1  0  0  0
 11 12  1  0  0  0
 11 97  1  0  0  0
 12 13  2  0  0  0
 12 98  1  0  0  0
 13 14  1  0  0  0
 13 31  1  0  0  0
 14 15  2  0  0  0
 14 99  1  0  0  0
 15100  1  0  0  0
 16 17  2  0  0  0
 16 21  1  0  0  0
 16 31  1  0  0  0
 17 18  1  0  0  0
 17101  1  0  0  0
 18 19  2  0  0  0
 18102  1  0  0  0
 19 20  1  0  0  0
 19 24  1  0  0  0
 20 21  2  0  0  0
 20103  1  0  0  0
 21 23  1  0  0  0
 22 28  1  0  0  0
 22 32  2  0  0  0
 26 27  1  0  0  0
 28104  1  0  0  0
 28105  1  0  0  0
 29106  1  0  0  0
 29107  1  0  0  0
 33 34  1  0  0  0
 33 66  1  0  0  0
 33 70  2  0  0  0
 34 36  1  0  0  0
 34 59  1  0  0  0
 34108  1  0  0  0
 35 44  2  0  0  0
 35 45  1  0  0  0
 35 68  1  0  0  0
 36 56  1  0  0  0
 36109  1  0  0  0
 37 39  1  0  0  0
 37 47  1  0  0  0
 37 66  1  0  0  0
 37110  1  0  0  0
 38 43  2  0  0  0
 38 46  1  0  0  0
 38 47  1  0  0  0
 39 64  1  0  0  0
 39 67  2  0  0  0
 40 52  1  0  0  0
 40 53  2  0  0  0
 40 58  1  0  0  0
 41111  1  0  0  0
 41112  1  0  0  0
 41113  1  0  0  0
 41 48  1  0  0  0
 42 43  1  0  0  0
 42 66  1  0  0  0
 42114  1  0  0  0
 42115  1  0  0  0
 43 44  1  0  0  0
 44116  1  0  0  0
 45 46  2  0  0  0
 45117  1  0  0  0
 46118  1  0  0  0
 47119  1  0  0  0
 47120  1  0  0  0
 48 56  1  0  0  0
 48 65  1  0  0  0
 48121  1  0  0  0
 49 50  1  0  0  0
 49 53  1  0  0  0
 49 64  1  0  0  0
 49122  1  0  0  0
 50 51  1  0  0  0
 50123  1  0  0  0
 50124  1  0  0  0
 51 52  1  0  0  0
 51125  1  0  0  0
 51126  1  0  0  0
 52127  1  0  0  0
 52128  1  0  0  0
 53 54  1  0  0  0
 54 55  2  0  0  0
 54129  1  0  0  0
 55 57  1  0  0  0
 55130  1  0  0  0
 56 69  2  0  0  0
 57 58  2  0  0  0
 57131  1  0  0  0
 58132  1  0  0  0
 59 60  1  0  0  0
 59 61  1  0  0  0
 59 62  1  0  0  0
 60133  1  0  0  0
 60134  1  0  0  0
 60135  1  0  0  0
 61136  1  0  0  0
 61137  1  0  0  0
 61138  1  0  0  0
 62139  1  0  0  0
 62140  1  0  0  0
 62141  1  0  0  0
 63 65  1  0  0  0
 63142  1  0  0  0
 63143  1  0  0  0
 63144  1  0  0  0
 64145  1  0  0  0
 65146  1  0  0  0
 68 82  1  0  0  0
 71 72  2  0  0  0
 71 73  1  0  0  0
 71147  1  0  0  0
 72 74  1  0  0  0
 72148  1  0  0  0
 73 75  2  0  0  0
 73 79  1  0  0  0
 74 76  2  0  0  0
 74 82  1  0  0  0
 75 76  1  0  0  0
 75 81  1  0  0  0
 76 80  1  0  0  0
 77149  1  0  0  0
 77150  1  0  0  0
 77151  1  0  0  0
 77 85  1  0  0  0
 78 85  1  0  0  0
 78152  1  0  0  0
 78153  1  0  0  0
 78154  1  0  0  0
 79 83  1  0  0  0
 79155  1  0  0  0
 79156  1  0  0  0
 80 84  1  0  0  0
 80157  1  0  0  0
 80158  1  0  0  0
 81 85  1  0  0  0
 81159  1  0  0  0
 81160  1  0  0  0
 82161  1  0  0  0
 82162  1  0  0  0
 83 86  1  0  0  0
 83163  1  0  0  0
 83164  1  0  0  0
 84 87  1  0  0  0
 84165  1  0  0  0
 84166  1  0  0  0
 85167  1  0  0  0
 86168  1  0  0  0
 87169  1  0  0  0
 87170  1  0  0  0
 87171  1  0  0  0
M  CHG  1  87   1
M  ISO  4   1 100  68 101  82 101  86 100
M  END
> <chiral flag>
0

> <version>
0

> <s_m_source_file>
/data/baiqing/PycharmProjects/Reinvent-master-3.2/result/LINK_invent/BTK/process_docking_weight1_custom_sum_contain_oxygen_bond_distance_aromatic_linkinvent_7_9_3/rearranged_h_0136.sdf

> <i_m_source_file_index>
24

> <r_mmod_Potential_Energy-OPLS-2005>
218.114837646484

> <r_mmod_Stretch_Energy-OPLS-2005>
206.687133789062

> <r_mmod_Bend_Energy-OPLS-2005>
255.631790161133

> <r_mmod_Torsional_Energy-OPLS-2005>
288.928466796875

> <r_mmod_Improper_Torsional_Energy-OPLS-2005>
10.5330963134766

> <r_mmod_Van_der_Waal_Energy-OPLS-2005>
135.064376831055

> <r_mmod_Electrostatic_Energy-OPLS-2005>
-307.931762695312

> <r_mmod_Solvation_Energy-OPLS-2005>
-509.732513427734

> <b_mmod_Minimization_Converged-OPLS-2005>
0

> <r_mmod_RMS_Derivative-OPLS-2005>
8.1226282119751

$$$$
26
                    3D
 Structure written by MMmdl.
180188  0  0  1  0            999 V2000
  -30.6569  -14.4326   20.6656 C   0  0  0  0  0  0
  -30.4341  -12.3184   19.3982 C   0  0  0  0  0  0
  -29.4919  -12.5291   18.1964 C   0  0  0  0  0  0
  -28.0102  -12.3879   18.6077 C   0  0  0  0  0  0
  -27.6648  -13.1944   19.8883 C   0  0  2  0  0  0
  -28.6982  -12.8959   20.9927 C   0  0  0  0  0  0
  -25.2585  -13.8115   20.5583 C   0  0  0  0  0  0
  -24.1831  -13.0434   20.9124 C   0  0  0  0  0  0
  -24.6372  -11.6900   20.8750 C   0  0  0  0  0  0
  -23.9025  -10.4317   21.0434 C   0  0  0  0  0  0
  -24.3644   -9.4213   21.9142 C   0  0  0  0  0  0
  -23.6355   -8.2230   22.0703 C   0  0  0  0  0  0
  -22.4294   -8.0300   21.3551 C   0  0  0  0  0  0
  -21.9862   -9.0296   20.4705 C   0  0  0  0  0  0
  -22.7168  -10.2190   20.3145 C   0  0  0  0  0  0
  -21.6847   -6.0760   22.5299 C   0  0  0  0  0  0
  -21.4014   -6.5673   23.8225 C   0  0  0  0  0  0
  -21.3652   -5.6813   24.9190 C   0  0  0  0  0  0
  -21.6045   -4.3080   24.7216 C   0  0  0  0  0  0
  -21.8818   -3.8168   23.4337 C   0  0  0  0  0  0
  -21.9181   -4.7002   22.3399 C   0  0  0  0  0  0
  -22.7890  -13.5267   21.1859 C   0  0  0  0  0  0
  -22.1613   -4.2175   21.0972 F   0  0  0  0  0  0
  -21.5639   -3.4552   25.7716 F   0  0  0  0  0  0
  -30.0270  -13.2458   20.4642 N   0  0  0  0  0  0
  -26.3032  -12.9270   20.3410 N   0  0  0  0  0  0
  -25.9308  -11.6454   20.5825 N   0  0  0  0  0  0
  -22.0662  -12.8429   22.0655 N   0  0  0  0  0  0
  -25.4299  -15.1808   20.3896 N   0  0  0  0  0  0
  -31.7568  -14.7092   20.1761 O   0  0  0  0  0  0
  -21.6643   -6.8921   21.4265 O   0  0  0  0  0  0
  -22.3514  -14.5506   20.6615 O   0  0  0  0  0  0
  -24.6108  -31.8703   23.2085 C   0  0  0  0  0  0
  -25.9018  -32.4842   23.8361 C   0  0  1  0  0  0
  -27.2397  -27.4802   20.0594 C   0  0  0  0  0  0
  -25.5889  -33.8640   24.2329 N   0  0  0  0  0  0
  -23.3905  -30.4958   21.5512 C   0  0  2  0  0  0
  -24.8316  -28.9565   20.1223 C   0  0  0  0  0  0
  -22.7363  -29.4709   22.5044 C   0  0  0  0  0  0
  -18.0257  -28.1375   22.8499 C   0  0  0  0  0  0
  -24.1476  -36.7344   23.2637 C   0  0  0  0  0  0
  -25.9078  -30.8582   21.3333 C   0  0  0  0  0  0
  -25.9901  -29.4838   20.7028 C   0  0  0  0  0  0
  -27.1936  -28.7529   20.6694 C   0  0  0  0  0  0
  -26.0523  -26.9497   19.4942 C   0  0  0  0  0  0
  -24.8545  -27.6853   19.5236 C   0  0  0  0  0  0
  -23.5910  -29.8175   20.1695 C   0  0  0  0  0  0
  -25.4097  -36.3149   24.0349 C   0  0  1  0  0  0
  -20.5839  -28.3672   23.1352 C   0  0  2  0  0  0
  -20.6747  -26.9428   22.5426 C   0  0  0  0  0  0
  -19.5746  -26.6407   21.5192 C   0  0  0  0  0  0
  -18.1921  -26.7937   22.1591 C   0  0  0  0  0  0
  -19.1505  -28.8835   23.2914 C   0  0  0  0  0  0
  -18.9444  -30.1439   23.8936 C   0  0  0  0  0  0
  -17.6451  -30.6587   24.0594 C   0  0  0  0  0  0
  -25.9026  -34.9506   23.5133 C   0  0  0  0  0  0
  -16.5340  -29.9124   23.6303 C   0  0  0  0  0  0
  -16.7249  -28.6527   23.0339 C   0  0  0  0  0  0
  -26.4462  -31.6574   25.0639 C   0  0  0  0  0  0
  -25.3772  -31.3626   26.1415 C   0  0  0  0  0  0
  -27.0238  -30.3063   24.5846 C   0  0  0  0  0  0
  -27.6095  -32.4216   25.7376 C   0  0  0  0  0  0
  -27.5585  -37.1815   24.8469 C   0  0  0  0  0  0
  -21.4107  -29.3059   22.3796 N   0  0  0  0  0  0
  -26.4279  -37.3846   23.9437 N   0  0  0  0  0  0
  -24.6578  -31.0861   22.0926 N   0  0  0  0  0  0
  -23.4182  -28.8290   23.3088 O   0  0  0  0  0  0
  -28.4616  -26.8440   20.0184 O   0  0  0  0  0  0
  -26.5607  -34.8966   22.4708 O   0  0  0  0  0  0
  -23.5334  -32.1397   23.7542 O   0  0  0  0  0  0
  -26.6583  -20.7328   22.8269 C   0  0  0  0  0  0
  -27.7700  -20.9635   21.7885 C   0  0  1  0  0  0
  -28.2778  -22.4077   22.0575 C   0  0  2  0  0  0
  -27.4375  -22.9101   23.2671 C   0  0  2  0  0  0
  -25.8726  -16.0661   23.9776 C   0  0  0  0  0  0
  -27.4526  -23.6801   25.7175 C   0  0  0  0  0  0
  -28.7434  -21.5848   25.1229 C   0  0  0  0  0  0
  -26.9991  -17.0704   23.6987 C   0  0  0  0  0  0
  -30.2064  -16.7479   21.5718 C   0  0  0  0  0  0
  -28.3936  -18.5886   21.4553 C   0  0  0  0  0  0
  -28.1370  -24.6918   21.0017 C   0  0  0  0  0  0
  -28.5316  -25.4522   19.7300 C   0  0  0  0  0  0
  -28.2235  -22.9414   24.6096 C   0  0  0  0  0  0
  -29.0465  -17.4732   22.3254 C   0  0  1  0  0  0
  -26.2628  -22.0486   23.3064 N   0  0  0  0  0  0
  -29.9286  -15.3269   21.3565 N   0  0  0  0  0  0
  -28.8170  -19.9319   21.8761 N   0  0  0  0  0  0
  -28.0394  -16.5051   22.8213 N   0  0  0  0  0  0
  -28.1158  -23.2199   20.8271 N   0  3  0  0  0  0
  -31.4667  -12.4790   19.0913 H   0  0  0  0  0  0
  -30.3848  -11.2889   19.7547 H   0  0  0  0  0  0
  -29.7275  -11.8181   17.4024 H   0  0  0  0  0  0
  -29.6617  -13.5206   17.7725 H   0  0  0  0  0  0
  -27.8115  -11.3290   18.7745 H   0  0  0  0  0  0
  -27.3592  -12.6945   17.7878 H   0  0  0  0  0  0
  -27.7354  -14.2544   19.6389 H   0  0  0  0  0  0
  -28.6861  -11.8342   21.2443 H   0  0  0  0  0  0
  -28.4505  -13.4026   21.9267 H   0  0  0  0  0  0
  -25.2850   -9.5669   22.4636 H   0  0  0  0  0  0
  -24.0114   -7.4580   22.7333 H   0  0  0  0  0  0
  -21.0756   -8.8848   19.9049 H   0  0  0  0  0  0
  -22.3603  -10.9774   19.6311 H   0  0  0  0  0  0
  -21.2011   -7.6187   23.9728 H   0  0  0  0  0  0
  -21.1458   -6.0549   25.9078 H   0  0  0  0  0  0
  -22.0592   -2.7630   23.2833 H   0  0  0  0  0  0
  -22.4486  -12.0448   22.5528 H   0  0  0  0  0  0
  -21.1337  -13.1573   22.2918 H   0  0  0  0  0  0
  -24.6779  -15.8382   20.5631 H   0  0  0  0  0  0
  -26.3332  -15.6259   20.2887 H   0  0  0  0  0  0
  -26.7093  -32.5579   23.1141 H   0  0  0  0  0  0
  -25.0059  -33.9793   25.0494 H   0  0  0  0  0  0
  -22.6755  -31.3086   21.4097 H   0  0  0  0  0  0
  -23.3738  -35.9674   23.3288 H   0  0  0  0  0  0
  -24.3592  -36.8962   22.2054 H   0  0  0  0  0  0
  -23.7195  -37.6537   23.6647 H   0  0  0  0  0  0
  -25.9646  -31.6041   20.5383 H   0  0  0  0  0  0
  -26.8178  -30.9566   21.9117 H   0  0  0  0  0  0
  -28.0921  -29.1753   21.0965 H   0  0  0  0  0  0
  -26.0172  -25.9887   19.0047 H   0  0  0  0  0  0
  -23.9572  -27.2762   19.0763 H   0  0  0  0  0  0
  -23.6979  -30.5812   19.3995 H   0  0  0  0  0  0
  -22.7150  -29.2337   19.8825 H   0  0  0  0  0  0
  -25.1251  -36.2016   25.0838 H   0  0  0  0  0  0
  -20.9873  -28.3210   24.1493 H   0  0  0  0  0  0
  -20.5603  -26.2307   23.3618 H   0  0  0  0  0  0
  -21.6643  -26.7480   22.1258 H   0  0  0  0  0  0
  -19.6930  -25.6320   21.1228 H   0  0  0  0  0  0
  -19.6678  -27.3226   20.6732 H   0  0  0  0  0  0
  -17.4198  -26.6700   21.3984 H   0  0  0  0  0  0
  -18.0323  -26.0048   22.8954 H   0  0  0  0  0  0
  -19.7921  -30.7238   24.2332 H   0  0  0  0  0  0
  -17.5018  -31.6263   24.5220 H   0  0  0  0  0  0
  -15.5359  -30.3064   23.7565 H   0  0  0  0  0  0
  -15.8640  -28.0857   22.7034 H   0  0  0  0  0  0
  -24.5995  -30.6904   25.7763 H   0  0  0  0  0  0
  -24.8896  -32.2756   26.4840 H   0  0  0  0  0  0
  -25.8163  -30.8831   27.0178 H   0  0  0  0  0  0
  -26.2673  -29.6828   24.1062 H   0  0  0  0  0  0
  -27.4289  -29.7262   25.4143 H   0  0  0  0  0  0
  -27.8392  -30.4450   23.8741 H   0  0  0  0  0  0
  -27.2800  -33.3535   26.1980 H   0  0  0  0  0  0
  -28.3897  -32.6708   25.0168 H   0  0  0  0  0  0
  -28.0784  -31.8294   26.5242 H   0  0  0  0  0  0
  -28.2612  -38.0108   24.7553 H   0  0  0  0  0  0
  -28.1054  -36.2648   24.6213 H   0  0  0  0  0  0
  -27.2341  -37.1396   25.8882 H   0  0  0  0  0  0
  -20.9260  -29.8818   21.7057 H   0  0  0  0  0  0
  -26.0166  -38.2924   24.1459 H   0  0  0  0  0  0
  -27.0380  -20.1397   23.6579 H   0  0  0  0  0  0
  -25.8137  -20.1869   22.4069 H   0  0  0  0  0  0
  -27.3168  -20.9274   20.7947 H   0  0  0  0  0  0
  -29.3387  -22.4222   22.3104 H   0  0  0  0  0  0
  -27.0989  -23.9348   23.1264 H   0  0  0  0  0  0
  -25.2156  -16.4519   24.7599 H   0  0  0  0  0  0
  -26.2387  -15.0931   24.3043 H   0  0  0  0  0  0
  -25.2474  -15.9130   23.0978 H   0  0  0  0  0  0
  -27.2264  -24.7062   25.4246 H   0  0  0  0  0  0
  -28.0470  -23.7291   26.6311 H   0  0  0  0  0  0
  -26.5130  -23.1877   25.9654 H   0  0  0  0  0  0
  -29.2542  -21.0183   24.3453 H   0  0  0  0  0  0
  -27.9449  -20.9641   25.5260 H   0  0  0  0  0  0
  -29.4676  -21.7360   25.9225 H   0  0  0  0  0  0
  -27.4415  -17.3877   24.6444 H   0  0  0  0  0  0
  -26.5314  -17.9555   23.2699 H   0  0  0  0  0  0
  -31.1301  -16.8417   22.1443 H   0  0  0  0  0  0
  -30.4050  -17.2169   20.6077 H   0  0  0  0  0  0
  -27.3087  -18.5077   21.4746 H   0  0  0  0  0  0
  -28.6203  -18.4469   20.3969 H   0  0  0  0  0  0
  -27.1448  -25.0215   21.3130 H   0  0  0  0  0  0
  -28.8367  -24.9620   21.7929 H   0  0  0  0  0  0
  -27.9507  -25.1681   18.8525 H   0  0  0  0  0  0
  -29.5693  -25.2283   19.4838 H   0  0  0  0  0  0
  -29.1073  -23.5502   24.4153 H   0  0  0  0  0  0
  -29.4933  -17.9532   23.2013 H   0  0  0  0  0  0
  -25.9237  -21.9792   24.2656 H   0  0  0  0  0  0
  -29.0087  -15.0456   21.6663 H   0  0  0  0  0  0
  -29.6338  -20.2076   21.3313 H   0  0  0  0  0  0
  -28.5422  -15.8066   23.3684 H   0  0  0  0  0  0
  -27.2374  -22.9582   20.4103 H   0  0  0  0  0  0
  -28.8473  -22.9444   20.1916 H   0  0  0  0  0  0
  1 25  1  0  0  0
  1 30  2  0  0  0
  1 86  1  0  0  0
  2  3  1  0  0  0
  2 25  1  0  0  0
  2 90  1  0  0  0
  2 91  1  0  0  0
  3  4  1  0  0  0
  3 92  1  0  0  0
  3 93  1  0  0  0
  4  5  1  0  0  0
  4 94  1  0  0  0
  4 95  1  0  0  0
  5  6  1  0  0  0
  5 26  1  0  0  0
  5 96  1  0  0  0
  6 25  1  0  0  0
  6 97  1  0  0  0
  6 98  1  0  0  0
  7  8  2  0  0  0
  7 26  1  0  0  0
  7 29  1  0  0  0
  8  9  1  0  0  0
  8 22  1  0  0  0
  9 10  1  0  0  0
  9 27  2  0  0  0
 10 11  2  0  0  0
 10 15  1  0  0  0
 11 12  1  0  0  0
 11 99  1  0  0  0
 12 13  2  0  0  0
 12100  1  0  0  0
 13 14  1  0  0  0
 13 31  1  0  0  0
 14 15  2  0  0  0
 14101  1  0  0  0
 15102  1  0  0  0
 16 17  2  0  0  0
 16 21  1  0  0  0
 16 31  1  0  0  0
 17 18  1  0  0  0
 17103  1  0  0  0
 18 19  2  0  0  0
 18104  1  0  0  0
 19 20  1  0  0  0
 19 24  1  0  0  0
 20 21  2  0  0  0
 20105  1  0  0  0
 21 23  1  0  0  0
 22 28  1  0  0  0
 22 32  2  0  0  0
 26 27  1  0  0  0
 28106  1  0  0  0
 28107  1  0  0  0
 29108  1  0  0  0
 29109  1  0  0  0
 33 34  1  0  0  0
 33 66  1  0  0  0
 33 70  2  0  0  0
 34 36  1  0  0  0
 34 59  1  0  0  0
 34110  1  0  0  0
 35 44  2  0  0  0
 35 45  1  0  0  0
 35 68  1  0  0  0
 36 56  1  0  0  0
 36111  1  0  0  0
 37 39  1  0  0  0
 37 47  1  0  0  0
 37 66  1  0  0  0
 37112  1  0  0  0
 38 43  2  0  0  0
 38 46  1  0  0  0
 38 47  1  0  0  0
 39 64  1  0  0  0
 39 67  2  0  0  0
 40 52  1  0  0  0
 40 53  2  0  0  0
 40 58  1  0  0  0
 41113  1  0  0  0
 41114  1  0  0  0
 41115  1  0  0  0
 41 48  1  0  0  0
 42 43  1  0  0  0
 42 66  1  0  0  0
 42116  1  0  0  0
 42117  1  0  0  0
 43 44  1  0  0  0
 44118  1  0  0  0
 45 46  2  0  0  0
 45119  1  0  0  0
 46120  1  0  0  0
 47121  1  0  0  0
 47122  1  0  0  0
 48 56  1  0  0  0
 48 65  1  0  0  0
 48123  1  0  0  0
 49 50  1  0  0  0
 49 53  1  0  0  0
 49 64  1  0  0  0
 49124  1  0  0  0
 50 51  1  0  0  0
 50125  1  0  0  0
 50126  1  0  0  0
 51 52  1  0  0  0
 51127  1  0  0  0
 51128  1  0  0  0
 52129  1  0  0  0
 52130  1  0  0  0
 53 54  1  0  0  0
 54 55  2  0  0  0
 54131  1  0  0  0
 55 57  1  0  0  0
 55132  1  0  0  0
 56 69  2  0  0  0
 57 58  2  0  0  0
 57133  1  0  0  0
 58134  1  0  0  0
 59 60  1  0  0  0
 59 61  1  0  0  0
 59 62  1  0  0  0
 60135  1  0  0  0
 60136  1  0  0  0
 60137  1  0  0  0
 61138  1  0  0  0
 61139  1  0  0  0
 61140  1  0  0  0
 62141  1  0  0  0
 62142  1  0  0  0
 62143  1  0  0  0
 63 65  1  0  0  0
 63144  1  0  0  0
 63145  1  0  0  0
 63146  1  0  0  0
 64147  1  0  0  0
 65148  1  0  0  0
 68 82  1  0  0  0
 71 72  1  0  0  0
 71 85  1  0  0  0
 71149  1  0  0  0
 71150  1  0  0  0
 72 73  1  0  0  0
 72 87  1  0  0  0
 72151  1  0  0  0
 73 74  1  0  0  0
 73 89  1  0  0  0
 73152  1  0  0  0
 74 83  1  0  0  0
 74 85  1  0  0  0
 74153  1  0  0  0
 75 78  1  0  0  0
 75154  1  0  0  0
 75155  1  0  0  0
 75156  1  0  0  0
 76157  1  0  0  0
 76158  1  0  0  0
 76159  1  0  0  0
 76 83  1  0  0  0
 77 83  1  0  0  0
 77160  1  0  0  0
 77161  1  0  0  0
 77162  1  0  0  0
 78 88  1  0  0  0
 78163  1  0  0  0
 78164  1  0  0  0
 79 86  1  0  0  0
 79165  1  0  0  0
 79166  1  0  0  0
 79 84  1  0  0  0
 80 84  1  0  0  0
 80 87  1  0  0  0
 80167  1  0  0  0
 80168  1  0  0  0
 81 82  1  0  0  0
 81 89  1  0  0  0
 81169  1  0  0  0
 81170  1  0  0  0
 82171  1  0  0  0
 82172  1  0  0  0
 83173  1  0  0  0
 84 88  1  0  0  0
 84174  1  0  0  0
 85175  1  0  0  0
 86176  1  0  0  0
 87177  1  0  0  0
 88178  1  0  0  0
 89179  1  0  0  0
 89180  1  0  0  0
M  CHG  1  89   1
M  ISO  4   1 100  68 101  82 101  86 100
M  END
> <chiral flag>
0

> <version>
0

> <s_m_source_file>
/data/baiqing/PycharmProjects/Reinvent-master-3.2/result/LINK_invent/BTK/process_docking_weight1_custom_sum_contain_oxygen_bond_distance_aromatic_linkinvent_7_9_3/rearranged_h_0136.sdf

> <i_m_source_file_index>
25

> <r_mmod_Potential_Energy-OPLS-2005>
-162.091461181641

> <r_mmod_Stretch_Energy-OPLS-2005>
37.1707572937012

> <r_mmod_Bend_Energy-OPLS-2005>
130.3515625

> <r_mmod_Torsional_Energy-OPLS-2005>
346.726165771484

> <r_mmod_Improper_Torsional_Energy-OPLS-2005>
3.34770965576172

> <r_mmod_Van_der_Waal_Energy-OPLS-2005>
144.319396972656

> <r_mmod_Electrostatic_Energy-OPLS-2005>
-394.410675048828

> <r_mmod_Solvation_Energy-OPLS-2005>
-442.465087890625

> <b_mmod_Minimization_Converged-OPLS-2005>
0

> <r_mmod_RMS_Derivative-OPLS-2005>
4.54684448242188

$$$$
27
                    3D
 Structure written by MMmdl.
165174  0  0  1  0            999 V2000
  -30.8281  -14.3172   20.7266 C   0  0  0  0  0  0
  -30.4087  -12.2915   19.3868 C   0  0  0  0  0  0
  -29.4760  -12.5343   18.1893 C   0  0  0  0  0  0
  -28.0061  -12.3794   18.6138 C   0  0  0  0  0  0
  -27.6668  -13.2083   19.8793 C   0  0  2  0  0  0
  -28.7073  -12.9745   20.9986 C   0  0  0  0  0  0
  -25.2604  -13.8172   20.5685 C   0  0  0  0  0  0
  -24.1848  -13.0446   20.9165 C   0  0  0  0  0  0
  -24.6403  -11.6913   20.8727 C   0  0  0  0  0  0
  -23.9067  -10.4296   21.0398 C   0  0  0  0  0  0
  -24.3616   -9.4212   21.9179 C   0  0  0  0  0  0
  -23.6290   -8.2248   22.0753 C   0  0  0  0  0  0
  -22.4273   -8.0284   21.3543 C   0  0  0  0  0  0
  -21.9908   -9.0258   20.4645 C   0  0  0  0  0  0
  -22.7237  -10.2137   20.3050 C   0  0  0  0  0  0
  -21.6855   -6.0736   22.5279 C   0  0  0  0  0  0
  -21.4014   -6.5640   23.8212 C   0  0  0  0  0  0
  -21.3658   -5.6792   24.9174 C   0  0  0  0  0  0
  -21.6043   -4.3055   24.7224 C   0  0  0  0  0  0
  -21.8820   -3.8147   23.4346 C   0  0  0  0  0  0
  -21.9194   -4.6963   22.3401 C   0  0  0  0  0  0
  -22.7868  -13.5243   21.1833 C   0  0  0  0  0  0
  -22.1663   -4.2148   21.0979 F   0  0  0  0  0  0
  -21.5628   -3.4538   25.7737 F   0  0  0  0  0  0
  -30.0570  -13.2320   20.4613 N   0  0  0  0  0  0
  -26.3056  -12.9351   20.3398 N   0  0  0  0  0  0
  -25.9336  -11.6504   20.5773 N   0  0  0  0  0  0
  -22.0510  -12.8234   22.0391 N   0  0  0  0  0  0
  -25.4329  -15.1889   20.4095 N   0  0  0  0  0  0
  -31.7762  -14.6651   20.0168 O   0  0  0  0  0  0
  -21.6641   -6.8878   21.4240 O   0  0  0  0  0  0
  -22.3552  -14.5552   20.6692 O   0  0  0  0  0  0
  -24.6148  -31.8709   23.2155 C   0  0  0  0  0  0
  -25.9053  -32.4834   23.8431 C   0  0  1  0  0  0
  -27.2195  -27.4353   20.0817 C   0  0  0  0  0  0
  -25.5918  -33.8633   24.2357 N   0  0  0  0  0  0
  -23.4007  -30.5007   21.5568 C   0  0  2  0  0  0
  -24.8428  -28.9824   20.1081 C   0  0  0  0  0  0
  -22.7413  -29.4678   22.4995 C   0  0  0  0  0  0
  -18.0273  -28.1375   22.8492 C   0  0  0  0  0  0
  -24.1487  -36.7315   23.2635 C   0  0  0  0  0  0
  -25.9336  -30.8338   21.3743 C   0  0  0  0  0  0
  -26.0060  -29.4732   20.7138 C   0  0  0  0  0  0
  -27.1954  -28.7053   20.7052 C   0  0  0  0  0  0
  -26.0415  -26.9947   19.4249 C   0  0  0  0  0  0
  -24.8558  -27.7409   19.4608 C   0  0  0  0  0  0
  -23.6063  -29.8473   20.1666 C   0  0  0  0  0  0
  -25.4106  -36.3117   24.0341 C   0  0  1  0  0  0
  -20.5866  -28.3661   23.1315 C   0  0  2  0  0  0
  -20.6765  -26.9399   22.5411 C   0  0  0  0  0  0
  -19.5744  -26.6385   21.5209 C   0  0  0  0  0  0
  -18.1922  -26.7924   22.1619 C   0  0  0  0  0  0
  -19.1523  -28.8834   23.2903 C   0  0  0  0  0  0
  -18.9451  -30.1441   23.8911 C   0  0  0  0  0  0
  -17.6452  -30.6581   24.0564 C   0  0  0  0  0  0
  -25.9036  -34.9482   23.5140 C   0  0  0  0  0  0
  -16.5344  -29.9082   23.6328 C   0  0  0  0  0  0
  -16.7262  -28.6499   23.0348 C   0  0  0  0  0  0
  -26.4477  -31.6602   25.0750 C   0  0  0  0  0  0
  -25.3743  -31.3707   26.1498 C   0  0  0  0  0  0
  -27.0297  -30.3040   24.6125 C   0  0  0  0  0  0
  -27.6063  -32.4310   25.7505 C   0  0  0  0  0  0
  -27.5585  -37.1812   24.8463 C   0  0  0  0  0  0
  -21.4141  -29.3037   22.3730 N   0  0  0  0  0  0
  -26.4293  -37.3800   23.9412 N   0  0  0  0  0  0
  -24.6678  -31.0818   22.1063 N   0  0  0  0  0  0
  -23.4193  -28.8203   23.3016 O   0  0  0  0  0  0
  -28.3660  -26.6552   20.1448 O   0  0  0  0  0  0
  -26.5586  -34.8927   22.4693 O   0  0  0  0  0  0
  -23.5343  -32.1466   23.7550 O   0  0  0  0  0  0
  -30.3818  -21.2813   20.8886 C   0  0  0  0  0  0
  -30.7961  -20.0267   21.3873 C   0  0  0  0  0  0
  -28.0987  -20.7696   21.5498 C   0  0  0  0  0  0
  -29.0231  -21.6527   20.9519 C   0  0  0  0  0  0
  -28.5044  -19.5168   22.0486 C   0  0  0  0  0  0
  -29.8603  -19.1289   21.9580 C   0  0  0  0  0  0
  -28.8002  -23.1727   18.8508 C   0  0  0  0  0  0
  -28.5526  -24.6796   18.6308 C   0  0  0  0  0  0
  -28.8756  -24.2864   20.9964 C   0  0  0  0  0  0
  -28.4975  -22.9462   20.3391 C   0  0  2  0  0  0
  -28.1722  -25.2322   20.0146 C   0  0  1  0  0  0
  -27.4615  -18.5938   22.6612 C   0  0  0  0  0  0
  -31.4665  -17.2334   22.0317 C   0  0  0  0  0  0
  -31.5532  -15.7991   22.5784 C   0  0  0  0  0  0
  -30.2212  -17.8622   22.4405 N   0  0  0  0  0  0
  -30.6170  -14.8859   21.9198 N   0  0  0  0  0  0
  -31.4514  -12.3832   19.0767 H   0  0  0  0  0  0
  -30.3005  -11.2685   19.7504 H   0  0  0  0  0  0
  -29.7074  -11.8366   17.3833 H   0  0  0  0  0  0
  -29.6421  -13.5352   17.7877 H   0  0  0  0  0  0
  -27.8223  -11.3208   18.8020 H   0  0  0  0  0  0
  -27.3459  -12.6606   17.7926 H   0  0  0  0  0  0
  -27.7194  -14.2597   19.5956 H   0  0  0  0  0  0
  -28.6569  -11.9450   21.3559 H   0  0  0  0  0  0
  -28.4602  -13.5992   21.8572 H   0  0  0  0  0  0
  -25.2763   -9.5687   22.4750 H   0  0  0  0  0  0
  -24.0000   -7.4641   22.7472 H   0  0  0  0  0  0
  -21.0839   -8.8775   19.8951 H   0  0  0  0  0  0
  -22.3697  -10.9673   19.6155 H   0  0  0  0  0  0
  -21.2005   -7.6148   23.9713 H   0  0  0  0  0  0
  -21.1478   -6.0523   25.9075 H   0  0  0  0  0  0
  -22.0600   -2.7609   23.2847 H   0  0  0  0  0  0
  -22.4122  -11.9891   22.4772 H   0  0  0  0  0  0
  -21.1129  -13.1261   22.2602 H   0  0  0  0  0  0
  -24.6697  -15.8479   20.5172 H   0  0  0  0  0  0
  -26.2948  -15.6256   20.1069 H   0  0  0  0  0  0
  -26.7121  -32.5542   23.1192 H   0  0  0  0  0  0
  -25.0093  -33.9803   25.0518 H   0  0  0  0  0  0
  -22.6890  -31.3185   21.4259 H   0  0  0  0  0  0
  -23.3750  -35.9647   23.3298 H   0  0  0  0  0  0
  -24.3588  -36.8924   22.2049 H   0  0  0  0  0  0
  -23.7236  -37.6522   23.6641 H   0  0  0  0  0  0
  -26.0540  -31.6039   20.6110 H   0  0  0  0  0  0
  -26.8194  -30.8780   21.9959 H   0  0  0  0  0  0
  -28.0858  -29.0733   21.1958 H   0  0  0  0  0  0
  -26.0025  -26.0692   18.8707 H   0  0  0  0  0  0
  -23.9686  -27.3668   18.9683 H   0  0  0  0  0  0
  -23.7139  -30.6291   19.4139 H   0  0  0  0  0  0
  -22.7291  -29.2705   19.8674 H   0  0  0  0  0  0
  -25.1279  -36.1987   25.0834 H   0  0  0  0  0  0
  -20.9957  -28.3217   24.1435 H   0  0  0  0  0  0
  -20.5667  -26.2268   23.3595 H   0  0  0  0  0  0
  -21.6637  -26.7440   22.1203 H   0  0  0  0  0  0
  -19.6903  -25.6298   21.1231 H   0  0  0  0  0  0
  -19.6686  -27.3202   20.6744 H   0  0  0  0  0  0
  -17.4194  -26.6676   21.4018 H   0  0  0  0  0  0
  -18.0318  -26.0058   22.9007 H   0  0  0  0  0  0
  -19.7927  -30.7254   24.2286 H   0  0  0  0  0  0
  -17.5008  -31.6266   24.5159 H   0  0  0  0  0  0
  -15.5344  -30.2987   23.7648 H   0  0  0  0  0  0
  -15.8662  -28.0824   22.7054 H   0  0  0  0  0  0
  -24.5922  -30.7045   25.7839 H   0  0  0  0  0  0
  -24.8927  -32.2860   26.4950 H   0  0  0  0  0  0
  -25.8099  -30.8879   27.0255 H   0  0  0  0  0  0
  -26.2839  -29.6814   24.1167 H   0  0  0  0  0  0
  -27.4049  -29.7264   25.4582 H   0  0  0  0  0  0
  -27.8689  -30.4352   23.9290 H   0  0  0  0  0  0
  -27.2698  -33.3606   26.2110 H   0  0  0  0  0  0
  -28.3860  -32.6873   25.0319 H   0  0  0  0  0  0
  -28.0743  -31.8413   26.5397 H   0  0  0  0  0  0
  -28.2599  -38.0113   24.7520 H   0  0  0  0  0  0
  -28.1085  -36.2647   24.6269 H   0  0  0  0  0  0
  -27.2308  -37.1437   25.8867 H   0  0  0  0  0  0
  -20.9293  -29.8782   21.6978 H   0  0  0  0  0  0
  -26.0184  -38.2880   24.1416 H   0  0  0  0  0  0
  -31.1077  -21.9440   20.4385 H   0  0  0  0  0  0
  -31.8422  -19.7680   21.3126 H   0  0  0  0  0  0
  -27.0540  -21.0426   21.6073 H   0  0  0  0  0  0
  -29.8412  -22.9411   18.6229 H   0  0  0  0  0  0
  -28.1765  -22.5469   18.2113 H   0  0  0  0  0  0
  -27.7717  -24.8632   17.8929 H   0  0  0  0  0  0
  -29.4645  -25.1561   18.2689 H   0  0  0  0  0  0
  -29.9550  -24.4424   21.0076 H   0  0  0  0  0  0
  -28.4951  -24.3781   22.0143 H   0  0  0  0  0  0
  -27.4107  -22.8594   20.4068 H   0  0  0  0  0  0
  -27.1310  -24.9868   20.2185 H   0  0  0  0  0  0
  -26.4724  -19.0522   22.6677 H   0  0  0  0  0  0
  -27.7223  -18.3534   23.6923 H   0  0  0  0  0  0
  -27.3931  -17.6644   22.0951 H   0  0  0  0  0  0
  -31.5627  -17.2458   20.9446 H   0  0  0  0  0  0
  -32.3013  -17.8123   22.4305 H   0  0  0  0  0  0
  -31.3731  -15.7848   23.6543 H   0  0  0  0  0  0
  -32.5705  -15.4244   22.4460 H   0  0  0  0  0  0
  -29.4686  -17.2389   22.7133 H   0  0  0  0  0  0
  -29.8548  -14.5209   22.4711 H   0  0  0  0  0  0
  1 25  1  0  0  0
  1 30  2  0  0  0
  1 86  1  0  0  0
  2  3  1  0  0  0
  2 25  1  0  0  0
  2 87  1  0  0  0
  2 88  1  0  0  0
  3  4  1  0  0  0
  3 89  1  0  0  0
  3 90  1  0  0  0
  4  5  1  0  0  0
  4 91  1  0  0  0
  4 92  1  0  0  0
  5  6  1  0  0  0
  5 26  1  0  0  0
  5 93  1  0  0  0
  6 25  1  0  0  0
  6 94  1  0  0  0
  6 95  1  0  0  0
  7  8  2  0  0  0
  7 26  1  0  0  0
  7 29  1  0  0  0
  8  9  1  0  0  0
  8 22  1  0  0  0
  9 10  1  0  0  0
  9 27  2  0  0  0
 10 11  2  0  0  0
 10 15  1  0  0  0
 11 12  1  0  0  0
 11 96  1  0  0  0
 12 13  2  0  0  0
 12 97  1  0  0  0
 13 14  1  0  0  0
 13 31  1  0  0  0
 14 15  2  0  0  0
 14 98  1  0  0  0
 15 99  1  0  0  0
 16 17  2  0  0  0
 16 21  1  0  0  0
 16 31  1  0  0  0
 17 18  1  0  0  0
 17100  1  0  0  0
 18 19  2  0  0  0
 18101  1  0  0  0
 19 20  1  0  0  0
 19 24  1  0  0  0
 20 21  2  0  0  0
 20102  1  0  0  0
 21 23  1  0  0  0
 22 28  1  0  0  0
 22 32  2  0  0  0
 26 27  1  0  0  0
 28103  1  0  0  0
 28104  1  0  0  0
 29105  1  0  0  0
 29106  1  0  0  0
 33 34  1  0  0  0
 33 66  1  0  0  0
 33 70  2  0  0  0
 34 36  1  0  0  0
 34 59  1  0  0  0
 34107  1  0  0  0
 35 44  2  0  0  0
 35 45  1  0  0  0
 35 68  1  0  0  0
 36 56  1  0  0  0
 36108  1  0  0  0
 37 39  1  0  0  0
 37 47  1  0  0  0
 37 66  1  0  0  0
 37109  1  0  0  0
 38 43  2  0  0  0
 38 46  1  0  0  0
 38 47  1  0  0  0
 39 64  1  0  0  0
 39 67  2  0  0  0
 40 52  1  0  0  0
 40 53  2  0  0  0
 40 58  1  0  0  0
 41110  1  0  0  0
 41111  1  0  0  0
 41112  1  0  0  0
 41 48  1  0  0  0
 42 43  1  0  0  0
 42 66  1  0  0  0
 42113  1  0  0  0
 42114  1  0  0  0
 43 44  1  0  0  0
 44115  1  0  0  0
 45 46  2  0  0  0
 45116  1  0  0  0
 46117  1  0  0  0
 47118  1  0  0  0
 47119  1  0  0  0
 48 56  1  0  0  0
 48 65  1  0  0  0
 48120  1  0  0  0
 49 50  1  0  0  0
 49 53  1  0  0  0
 49 64  1  0  0  0
 49121  1  0  0  0
 50 51  1  0  0  0
 50122  1  0  0  0
 50123  1  0  0  0
 51 52  1  0  0  0
 51124  1  0  0  0
 51125  1  0  0  0
 52126  1  0  0  0
 52127  1  0  0  0
 53 54  1  0  0  0
 54 55  2  0  0  0
 54128  1  0  0  0
 55 57  1  0  0  0
 55129  1  0  0  0
 56 69  2  0  0  0
 57 58  2  0  0  0
 57130  1  0  0  0
 58131  1  0  0  0
 59 60  1  0  0  0
 59 61  1  0  0  0
 59 62  1  0  0  0
 60132  1  0  0  0
 60133  1  0  0  0
 60134  1  0  0  0
 61135  1  0  0  0
 61136  1  0  0  0
 61137  1  0  0  0
 62138  1  0  0  0
 62139  1  0  0  0
 62140  1  0  0  0
 63 65  1  0  0  0
 63141  1  0  0  0
 63142  1  0  0  0
 63143  1  0  0  0
 64144  1  0  0  0
 65145  1  0  0  0
 68 81  1  0  0  0
 71 72  2  0  0  0
 71 74  1  0  0  0
 71146  1  0  0  0
 72 76  1  0  0  0
 72147  1  0  0  0
 73 74  2  0  0  0
 73 75  1  0  0  0
 73148  1  0  0  0
 74 80  1  0  0  0
 75 76  2  0  0  0
 75 82  1  0  0  0
 76 85  1  0  0  0
 77 78  1  0  0  0
 77 80  1  0  0  0
 77149  1  0  0  0
 77150  1  0  0  0
 78 81  1  0  0  0
 78151  1  0  0  0
 78152  1  0  0  0
 79 80  1  0  0  0
 79 81  1  0  0  0
 79153  1  0  0  0
 79154  1  0  0  0
 80155  1  0  0  0
 81156  1  0  0  0
 82157  1  0  0  0
 82158  1  0  0  0
 82159  1  0  0  0
 83 84  1  0  0  0
 83 85  1  0  0  0
 83160  1  0  0  0
 83161  1  0  0  0
 84 86  1  0  0  0
 84162  1  0  0  0
 84163  1  0  0  0
 85164  1  0  0  0
 86165  1  0  0  0
M  ISO  4   1 100  68 101  81 101  86 100
M  END
> <chiral flag>
0

> <version>
0

> <s_m_source_file>
/data/baiqing/PycharmProjects/Reinvent-master-3.2/result/LINK_invent/BTK/process_docking_weight1_custom_sum_contain_oxygen_bond_distance_aromatic_linkinvent_7_9_3/rearranged_h_0136.sdf

> <i_m_source_file_index>
26

> <r_mmod_Potential_Energy-OPLS-2005>
-85.2438278198242

> <r_mmod_Stretch_Energy-OPLS-2005>
34.74755859375

> <r_mmod_Bend_Energy-OPLS-2005>
149.676467895508

> <r_mmod_Torsional_Energy-OPLS-2005>
244.089935302734

> <r_mmod_Improper_Torsional_Energy-OPLS-2005>
5.82537841796875

> <r_mmod_Van_der_Waal_Energy-OPLS-2005>
170.267349243164

> <r_mmod_Electrostatic_Energy-OPLS-2005>
-491.425506591797

> <r_mmod_Solvation_Energy-OPLS-2005>
-211.29150390625

> <b_mmod_Minimization_Converged-OPLS-2005>
0

> <r_mmod_RMS_Derivative-OPLS-2005>
0.271225094795227

$$$$
28
                    3D
 Structure written by MMmdl.
159167  0  0  1  0            999 V2000
  -30.6064  -14.6951   20.4945 C   0  0  0  0  0  0
  -30.4391  -12.4302   19.4547 C   0  0  0  0  0  0
  -29.5111  -12.5029   18.2226 C   0  0  0  0  0  0
  -28.0323  -12.3382   18.6332 C   0  0  0  0  0  0
  -27.6454  -13.2224   19.8504 C   0  0  2  0  0  0
  -28.6909  -13.1137   20.9802 C   0  0  0  0  0  0
  -25.2535  -13.8196   20.5666 C   0  0  0  0  0  0
  -24.1814  -13.0460   20.9207 C   0  0  0  0  0  0
  -24.6397  -11.6921   20.8742 C   0  0  0  0  0  0
  -23.9071  -10.4308   21.0399 C   0  0  0  0  0  0
  -24.3622   -9.4219   21.9164 C   0  0  0  0  0  0
  -23.6302   -8.2249   22.0738 C   0  0  0  0  0  0
  -22.4292   -8.0282   21.3536 C   0  0  0  0  0  0
  -21.9922   -9.0257   20.4635 C   0  0  0  0  0  0
  -22.7247  -10.2144   20.3037 C   0  0  0  0  0  0
  -21.6865   -6.0737   22.5277 C   0  0  0  0  0  0
  -21.4013   -6.5637   23.8208 C   0  0  0  0  0  0
  -21.3662   -5.6788   24.9174 C   0  0  0  0  0  0
  -21.6051   -4.3052   24.7220 C   0  0  0  0  0  0
  -21.8820   -3.8145   23.4338 C   0  0  0  0  0  0
  -21.9198   -4.6964   22.3400 C   0  0  0  0  0  0
  -22.7842  -13.5248   21.1870 C   0  0  0  0  0  0
  -22.1660   -4.2146   21.0977 F   0  0  0  0  0  0
  -21.5638   -3.4530   25.7724 F   0  0  0  0  0  0
  -29.9941  -13.4703   20.4035 N   0  0  0  0  0  0
  -26.2958  -12.9373   20.3257 N   0  0  0  0  0  0
  -25.9319  -11.6535   20.5727 N   0  0  0  0  0  0
  -22.0482  -12.8227   22.0411 N   0  0  0  0  0  0
  -25.4253  -15.1916   20.4079 N   0  0  0  0  0  0
  -31.7952  -14.8342   20.1932 O   0  0  0  0  0  0
  -21.6651   -6.8887   21.4239 O   0  0  0  0  0  0
  -22.3519  -14.5552   20.6713 O   0  0  0  0  0  0
  -24.6289  -31.8572   23.1983 C   0  0  0  0  0  0
  -25.9126  -32.4759   23.8326 C   0  0  1  0  0  0
  -27.2144  -27.2802   20.1361 C   0  0  0  0  0  0
  -25.5930  -33.8561   24.2246 N   0  0  0  0  0  0
  -23.4244  -30.4797   21.5417 C   0  0  2  0  0  0
  -24.8710  -28.9264   20.1117 C   0  0  0  0  0  0
  -22.7494  -29.4612   22.4910 C   0  0  0  0  0  0
  -18.0288  -28.1394   22.8483 C   0  0  0  0  0  0
  -24.1493  -36.7290   23.2636 C   0  0  0  0  0  0
  -25.9681  -30.7770   21.3738 C   0  0  0  0  0  0
  -26.0422  -29.4003   20.7179 C   0  0  0  0  0  0
  -27.2213  -28.5908   20.7159 C   0  0  0  0  0  0
  -26.0258  -26.8686   19.4990 C   0  0  0  0  0  0
  -24.8664  -27.6683   19.4893 C   0  0  0  0  0  0
  -23.6417  -29.8126   20.1578 C   0  0  0  0  0  0
  -25.4118  -36.3065   24.0320 C   0  0  1  0  0  0
  -20.5892  -28.3703   23.1276 C   0  0  2  0  0  0
  -20.6783  -26.9423   22.5412 C   0  0  0  0  0  0
  -19.5755  -26.6386   21.5220 C   0  0  0  0  0  0
  -18.1933  -26.7936   22.1629 C   0  0  0  0  0  0
  -19.1545  -28.8866   23.2873 C   0  0  0  0  0  0
  -18.9468  -30.1469   23.8890 C   0  0  0  0  0  0
  -17.6467  -30.6593   24.0563 C   0  0  0  0  0  0
  -25.9058  -34.9440   23.5081 C   0  0  0  0  0  0
  -16.5357  -29.9092   23.6333 C   0  0  0  0  0  0
  -16.7273  -28.6512   23.0348 C   0  0  0  0  0  0
  -26.4494  -31.6580   25.0712 C   0  0  0  0  0  0
  -25.3708  -31.3757   26.1428 C   0  0  0  0  0  0
  -27.0330  -30.2988   24.6200 C   0  0  0  0  0  0
  -27.6037  -32.4328   25.7497 C   0  0  0  0  0  0
  -27.5581  -37.1798   24.8457 C   0  0  0  0  0  0
  -21.4201  -29.3046   22.3659 N   0  0  0  0  0  0
  -26.4287  -37.3770   23.9408 N   0  0  0  0  0  0
  -24.6927  -31.0562   22.0941 N   0  0  0  0  0  0
  -23.4208  -28.8152   23.2998 O   0  0  0  0  0  0
  -28.3034  -26.3882   20.1634 O   0  0  0  0  0  0
  -26.5635  -34.8921   22.4651 O   0  0  0  0  0  0
  -23.5450  -32.1375   23.7302 O   0  0  0  0  0  0
  -30.3658  -21.8976   19.7680 C   0  0  0  0  0  0
  -28.1872  -22.2531   20.6077 C   0  0  0  0  0  0
  -30.1589  -23.4144   20.1030 C   0  0  2  0  0  0
  -28.6426  -23.6611   20.0213 C   0  0  2  0  0  0
  -30.9942  -24.3670   19.2334 C   0  0  0  0  0  0
  -28.0695  -25.0110   20.7055 C   0  0  0  0  0  0
  -29.5697  -18.4601   20.2291 C   0  0  0  0  0  0
  -30.1168  -17.2237   21.1126 C   0  0  0  0  0  0
  -29.2991  -19.8837   20.9536 C   0  0  0  0  0  0
  -29.7959  -15.7810   20.7501 N   0  0  0  0  0  0
  -29.1190  -21.1615   20.1110 N   0  3  2  0  0  0
  -31.4783  -12.5670   19.1519 H   0  0  0  0  0  0
  -30.3872  -11.4451   19.9206 H   0  0  0  0  0  0
  -29.7872  -11.7352   17.4985 H   0  0  0  0  0  0
  -29.6432  -13.4627   17.7203 H   0  0  0  0  0  0
  -27.8742  -11.2882   18.8785 H   0  0  0  0  0  0
  -27.3802  -12.5511   17.7854 H   0  0  0  0  0  0
  -27.6531  -14.2512   19.4896 H   0  0  0  0  0  0
  -28.7203  -12.1001   21.3826 H   0  0  0  0  0  0
  -28.4314  -13.7652   21.8157 H   0  0  0  0  0  0
  -25.2760   -9.5712   22.4753 H   0  0  0  0  0  0
  -24.0022   -7.4644   22.7456 H   0  0  0  0  0  0
  -21.0853   -8.8787   19.8947 H   0  0  0  0  0  0
  -22.3688  -10.9693   19.6158 H   0  0  0  0  0  0
  -21.1989   -7.6141   23.9715 H   0  0  0  0  0  0
  -21.1489   -6.0511   25.9083 H   0  0  0  0  0  0
  -22.0597   -2.7603   23.2838 H   0  0  0  0  0  0
  -22.4093  -11.9885   22.4809 H   0  0  0  0  0  0
  -21.1091  -13.1239   22.2614 H   0  0  0  0  0  0
  -24.6575  -15.8464   20.5101 H   0  0  0  0  0  0
  -26.2667  -15.6262   20.0507 H   0  0  0  0  0  0
  -26.7193  -32.5423   23.1075 H   0  0  0  0  0  0
  -25.0053  -33.9700   25.0374 H   0  0  0  0  0  0
  -22.7189  -31.3003   21.3964 H   0  0  0  0  0  0
  -23.3752  -35.9625   23.3282 H   0  0  0  0  0  0
  -24.3585  -36.8933   22.2054 H   0  0  0  0  0  0
  -23.7254  -37.6490   23.6675 H   0  0  0  0  0  0
  -26.1045  -31.5380   20.6040 H   0  0  0  0  0  0
  -26.8468  -30.8273   22.0046 H   0  0  0  0  0  0
  -28.1197  -28.9477   21.1997 H   0  0  0  0  0  0
  -25.9836  -25.9012   19.0192 H   0  0  0  0  0  0
  -23.9706  -27.3018   19.0069 H   0  0  0  0  0  0
  -23.7648  -30.5882   19.4010 H   0  0  0  0  0  0
  -22.7599  -29.2457   19.8534 H   0  0  0  0  0  0
  -25.1301  -36.1900   25.0812 H   0  0  0  0  0  0
  -20.9993  -28.3290   24.1396 H   0  0  0  0  0  0
  -20.5702  -26.2313   23.3615 H   0  0  0  0  0  0
  -21.6647  -26.7459   22.1195 H   0  0  0  0  0  0
  -19.6920  -25.6294   21.1251 H   0  0  0  0  0  0
  -19.6696  -27.3195   20.6748 H   0  0  0  0  0  0
  -17.4206  -26.6681   21.4026 H   0  0  0  0  0  0
  -18.0332  -26.0082   22.9032 H   0  0  0  0  0  0
  -19.7946  -30.7283   24.2257 H   0  0  0  0  0  0
  -17.5022  -31.6272   24.5172 H   0  0  0  0  0  0
  -15.5355  -30.2993   23.7664 H   0  0  0  0  0  0
  -15.8675  -28.0833   22.7058 H   0  0  0  0  0  0
  -24.5867  -30.7125   25.7760 H   0  0  0  0  0  0
  -24.8921  -32.2943   26.4832 H   0  0  0  0  0  0
  -25.8009  -30.8942   27.0216 H   0  0  0  0  0  0
  -26.2912  -29.6753   24.1194 H   0  0  0  0  0  0
  -27.3964  -29.7243   25.4731 H   0  0  0  0  0  0
  -27.8813  -30.4248   23.9466 H   0  0  0  0  0  0
  -27.2620  -33.3625   26.2068 H   0  0  0  0  0  0
  -28.3859  -32.6903   25.0340 H   0  0  0  0  0  0
  -28.0689  -31.8458   26.5428 H   0  0  0  0  0  0
  -28.2576  -38.0118   24.7518 H   0  0  0  0  0  0
  -28.1098  -36.2644   24.6254 H   0  0  0  0  0  0
  -27.2301  -37.1413   25.8861 H   0  0  0  0  0  0
  -20.9384  -29.8756   21.6853 H   0  0  0  0  0  0
  -26.0157  -38.2837   24.1421 H   0  0  0  0  0  0
  -31.2382  -21.4988   20.2889 H   0  0  0  0  0  0
  -30.5455  -21.7600   18.7008 H   0  0  0  0  0  0
  -27.1528  -22.0238   20.3489 H   0  0  0  0  0  0
  -28.2377  -22.2892   21.6964 H   0  0  0  0  0  0
  -30.4600  -23.5605   21.1416 H   0  0  0  0  0  0
  -28.3489  -23.6842   18.9714 H   0  0  0  0  0  0
  -30.7179  -24.2970   18.1810 H   0  0  0  0  0  0
  -32.0587  -24.1452   19.3196 H   0  0  0  0  0  0
  -30.8541  -25.4035   19.5435 H   0  0  0  0  0  0
  -28.4475  -25.0356   21.7276 H   0  0  0  0  0  0
  -26.9980  -24.8573   20.8338 H   0  0  0  0  0  0
  -28.6447  -18.1533   19.7402 H   0  0  0  0  0  0
  -30.2823  -18.6147   19.4183 H   0  0  0  0  0  0
  -29.7141  -17.3519   22.1177 H   0  0  0  0  0  0
  -31.1971  -17.3235   21.2342 H   0  0  0  0  0  0
  -30.0788  -20.0683   21.6931 H   0  0  0  0  0  0
  -28.3868  -19.7546   21.5376 H   0  0  0  0  0  0
  -28.8283  -15.5244   20.8772 H   0  0  0  0  0  0
  -28.7204  -20.8628   19.2326 H   0  0  0  0  0  0
  1 25  1  0  0  0
  1 30  2  0  0  0
  1 80  1  0  0  0
  2  3  1  0  0  0
  2 25  1  0  0  0
  2 82  1  0  0  0
  2 83  1  0  0  0
  3  4  1  0  0  0
  3 84  1  0  0  0
  3 85  1  0  0  0
  4  5  1  0  0  0
  4 86  1  0  0  0
  4 87  1  0  0  0
  5  6  1  0  0  0
  5 26  1  0  0  0
  5 88  1  0  0  0
  6 25  1  0  0  0
  6 89  1  0  0  0
  6 90  1  0  0  0
  7  8  2  0  0  0
  7 26  1  0  0  0
  7 29  1  0  0  0
  8  9  1  0  0  0
  8 22  1  0  0  0
  9 10  1  0  0  0
  9 27  2  0  0  0
 10 11  2  0  0  0
 10 15  1  0  0  0
 11 12  1  0  0  0
 11 91  1  0  0  0
 12 13  2  0  0  0
 12 92  1  0  0  0
 13 14  1  0  0  0
 13 31  1  0  0  0
 14 15  2  0  0  0
 14 93  1  0  0  0
 15 94  1  0  0  0
 16 17  2  0  0  0
 16 21  1  0  0  0
 16 31  1  0  0  0
 17 18  1  0  0  0
 17 95  1  0  0  0
 18 19  2  0  0  0
 18 96  1  0  0  0
 19 20  1  0  0  0
 19 24  1  0  0  0
 20 21  2  0  0  0
 20 97  1  0  0  0
 21 23  1  0  0  0
 22 28  1  0  0  0
 22 32  2  0  0  0
 26 27  1  0  0  0
 28 98  1  0  0  0
 28 99  1  0  0  0
 29100  1  0  0  0
 29101  1  0  0  0
 33 34  1  0  0  0
 33 66  1  0  0  0
 33 70  2  0  0  0
 34 36  1  0  0  0
 34 59  1  0  0  0
 34102  1  0  0  0
 35 44  2  0  0  0
 35 45  1  0  0  0
 35 68  1  0  0  0
 36 56  1  0  0  0
 36103  1  0  0  0
 37 39  1  0  0  0
 37 47  1  0  0  0
 37 66  1  0  0  0
 37104  1  0  0  0
 38 43  2  0  0  0
 38 46  1  0  0  0
 38 47  1  0  0  0
 39 64  1  0  0  0
 39 67  2  0  0  0
 40 52  1  0  0  0
 40 53  2  0  0  0
 40 58  1  0  0  0
 41105  1  0  0  0
 41106  1  0  0  0
 41107  1  0  0  0
 41 48  1  0  0  0
 42 43  1  0  0  0
 42 66  1  0  0  0
 42108  1  0  0  0
 42109  1  0  0  0
 43 44  1  0  0  0
 44110  1  0  0  0
 45 46  2  0  0  0
 45111  1  0  0  0
 46112  1  0  0  0
 47113  1  0  0  0
 47114  1  0  0  0
 48 56  1  0  0  0
 48 65  1  0  0  0
 48115  1  0  0  0
 49 50  1  0  0  0
 49 53  1  0  0  0
 49 64  1  0  0  0
 49116  1  0  0  0
 50 51  1  0  0  0
 50117  1  0  0  0
 50118  1  0  0  0
 51 52  1  0  0  0
 51119  1  0  0  0
 51120  1  0  0  0
 52121  1  0  0  0
 52122  1  0  0  0
 53 54  1  0  0  0
 54 55  2  0  0  0
 54123  1  0  0  0
 55 57  1  0  0  0
 55124  1  0  0  0
 56 69  2  0  0  0
 57 58  2  0  0  0
 57125  1  0  0  0
 58126  1  0  0  0
 59 60  1  0  0  0
 59 61  1  0  0  0
 59 62  1  0  0  0
 60127  1  0  0  0
 60128  1  0  0  0
 60129  1  0  0  0
 61130  1  0  0  0
 61131  1  0  0  0
 61132  1  0  0  0
 62133  1  0  0  0
 62134  1  0  0  0
 62135  1  0  0  0
 63 65  1  0  0  0
 63136  1  0  0  0
 63137  1  0  0  0
 63138  1  0  0  0
 64139  1  0  0  0
 65140  1  0  0  0
 68 76  1  0  0  0
 71 73  1  0  0  0
 71 81  1  0  0  0
 71141  1  0  0  0
 71142  1  0  0  0
 72 74  1  0  0  0
 72 81  1  0  0  0
 72143  1  0  0  0
 72144  1  0  0  0
 73 74  1  0  0  0
 73 75  1  0  0  0
 73145  1  0  0  0
 74 76  1  0  0  0
 74146  1  0  0  0
 75147  1  0  0  0
 75148  1  0  0  0
 75149  1  0  0  0
 76150  1  0  0  0
 76151  1  0  0  0
 77 78  1  0  0  0
 77 79  1  0  0  0
 77152  1  0  0  0
 77153  1  0  0  0
 78 80  1  0  0  0
 78154  1  0  0  0
 78155  1  0  0  0
 79156  1  0  0  0
 79157  1  0  0  0
 79 81  1  0  0  0
 80158  1  0  0  0
 81159  1  0  0  0
M  CHG  1  81   1
M  ISO  4   1 100  68 101  76 101  80 100
M  END
> <chiral flag>
0

> <version>
0

> <s_m_source_file>
/data/baiqing/PycharmProjects/Reinvent-master-3.2/result/LINK_invent/BTK/process_docking_weight1_custom_sum_contain_oxygen_bond_distance_aromatic_linkinvent_7_9_3/rearranged_h_0136.sdf

> <i_m_source_file_index>
27

> <r_mmod_Potential_Energy-OPLS-2005>
96.4673309326172

> <r_mmod_Stretch_Energy-OPLS-2005>
105.434135437012

> <r_mmod_Bend_Energy-OPLS-2005>
186.849807739258

> <r_mmod_Torsional_Energy-OPLS-2005>
292.951324462891

> <r_mmod_Improper_Torsional_Energy-OPLS-2005>
4.34616994857788

> <r_mmod_Van_der_Waal_Energy-OPLS-2005>
114.134994506836

> <r_mmod_Electrostatic_Energy-OPLS-2005>
-219.979217529297

> <r_mmod_Solvation_Energy-OPLS-2005>
-458.088104248047

> <b_mmod_Minimization_Converged-OPLS-2005>
0

> <r_mmod_RMS_Derivative-OPLS-2005>
2.08408832550049

$$$$
29
                    3D
 Structure written by MMmdl.
155164  0  0  1  0            999 V2000
  -30.6805  -14.6865   20.4985 C   0  0  0  0  0  0
  -30.4241  -12.4414   19.4398 C   0  0  0  0  0  0
  -29.4920  -12.5147   18.2128 C   0  0  0  0  0  0
  -28.0186  -12.3458   18.6339 C   0  0  0  0  0  0
  -27.6456  -13.2162   19.8643 C   0  0  2  0  0  0
  -28.7084  -13.0764   20.9809 C   0  0  0  0  0  0
  -25.2511  -13.8151   20.5706 C   0  0  0  0  0  0
  -24.1796  -13.0416   20.9228 C   0  0  0  0  0  0
  -24.6382  -11.6895   20.8778 C   0  0  0  0  0  0
  -23.9062  -10.4278   21.0419 C   0  0  0  0  0  0
  -24.3620   -9.4189   21.9190 C   0  0  0  0  0  0
  -23.6294   -8.2228   22.0751 C   0  0  0  0  0  0
  -22.4273   -8.0274   21.3542 C   0  0  0  0  0  0
  -21.9911   -9.0248   20.4644 C   0  0  0  0  0  0
  -22.7240  -10.2126   20.3057 C   0  0  0  0  0  0
  -21.6845   -6.0740   22.5283 C   0  0  0  0  0  0
  -21.4008   -6.5643   23.8217 C   0  0  0  0  0  0
  -21.3660   -5.6797   24.9180 C   0  0  0  0  0  0
  -21.6046   -4.3060   24.7228 C   0  0  0  0  0  0
  -21.8818   -3.8153   23.4349 C   0  0  0  0  0  0
  -21.9188   -4.6969   22.3405 C   0  0  0  0  0  0
  -22.7823  -13.5210   21.1867 C   0  0  0  0  0  0
  -22.1657   -4.2156   21.0980 F   0  0  0  0  0  0
  -21.5631   -3.4541   25.7741 F   0  0  0  0  0  0
  -29.9842  -13.4965   20.3867 N   0  0  0  0  0  0
  -26.2957  -12.9344   20.3391 N   0  0  0  0  0  0
  -25.9316  -11.6500   20.5831 N   0  0  0  0  0  0
  -22.0462  -12.8211   22.0425 N   0  0  0  0  0  0
  -25.4149  -15.1863   20.4035 N   0  0  0  0  0  0
  -31.8762  -14.6761   20.1863 O   0  0  0  0  0  0
  -21.6630   -6.8877   21.4243 O   0  0  0  0  0  0
  -22.3515  -14.5513   20.6702 O   0  0  0  0  0  0
  -24.6272  -31.8607   23.2046 C   0  0  0  0  0  0
  -25.9116  -32.4786   23.8372 C   0  0  1  0  0  0
  -27.2176  -27.3133   20.1114 C   0  0  0  0  0  0
  -25.5924  -33.8588   24.2291 N   0  0  0  0  0  0
  -23.4207  -30.4872   21.5476 C   0  0  2  0  0  0
  -24.8653  -28.9476   20.1109 C   0  0  0  0  0  0
  -22.7487  -29.4628   22.4937 C   0  0  0  0  0  0
  -18.0289  -28.1385   22.8488 C   0  0  0  0  0  0
  -24.1487  -36.7296   23.2640 C   0  0  0  0  0  0
  -25.9647  -30.7897   21.3779 C   0  0  0  0  0  0
  -26.0373  -29.4186   20.7165 C   0  0  0  0  0  0
  -27.2171  -28.6136   20.7075 C   0  0  0  0  0  0
  -26.0183  -26.9043   19.4785 C   0  0  0  0  0  0
  -24.8579  -27.6955   19.4843 C   0  0  0  0  0  0
  -23.6354  -29.8289   20.1611 C   0  0  0  0  0  0
  -25.4112  -36.3091   24.0331 C   0  0  1  0  0  0
  -20.5890  -28.3691   23.1281 C   0  0  2  0  0  0
  -20.6773  -26.9412   22.5411 C   0  0  0  0  0  0
  -19.5747  -26.6381   21.5217 C   0  0  0  0  0  0
  -18.1930  -26.7927   22.1632 C   0  0  0  0  0  0
  -19.1543  -28.8856   23.2879 C   0  0  0  0  0  0
  -18.9464  -30.1458   23.8895 C   0  0  0  0  0  0
  -17.6463  -30.6587   24.0565 C   0  0  0  0  0  0
  -25.9051  -34.9458   23.5115 C   0  0  0  0  0  0
  -16.5354  -29.9086   23.6329 C   0  0  0  0  0  0
  -16.7277  -28.6505   23.0349 C   0  0  0  0  0  0
  -26.4493  -31.6594   25.0742 C   0  0  0  0  0  0
  -25.3721  -31.3729   26.1465 C   0  0  0  0  0  0
  -27.0337  -30.3017   24.6199 C   0  0  0  0  0  0
  -27.6052  -32.4331   25.7510 C   0  0  0  0  0  0
  -27.5581  -37.1804   24.8463 C   0  0  0  0  0  0
  -21.4198  -29.3044   22.3677 N   0  0  0  0  0  0
  -26.4291  -37.3786   23.9410 N   0  0  0  0  0  0
  -24.6898  -31.0618   22.0998 N   0  0  0  0  0  0
  -23.4214  -28.8159   23.3009 O   0  0  0  0  0  0
  -28.3224  -26.4411   20.1673 O   0  0  0  0  0  0
  -26.5627  -34.8924   22.4686 O   0  0  0  0  0  0
  -23.5432  -32.1406   23.7365 O   0  0  0  0  0  0
  -31.0620  -19.7747   20.2832 C   0  0  0  0  0  0
  -30.4901  -21.0821   20.2807 C   0  0  0  0  0  0
  -28.3122  -20.0856   20.5402 C   0  0  0  0  0  0
  -30.2728  -18.5997   20.4155 C   0  0  0  0  0  0
  -28.8871  -18.7753   20.5517 C   0  0  0  0  0  0
  -29.0901  -21.2741   20.4014 C   0  0  0  0  0  0
  -28.0406  -17.5202   20.6798 C   0  0  0  0  0  0
  -30.9068  -17.1721   20.3899 C   0  0  0  0  0  0
  -28.7860  -16.2954   21.2904 C   0  0  0  0  0  0
  -28.0418  -24.9905   20.0000 C   0  0  0  0  0  0
  -29.0828  -23.8318   20.3336 C   0  0  0  0  0  0
  -30.0634  -15.9396   20.6265 N   0  0  0  0  0  0
  -28.4249  -22.5178   20.3724 O   0  0  0  0  0  0
  -31.4605  -12.5556   19.1188 H   0  0  0  0  0  0
  -30.3754  -11.4545   19.9037 H   0  0  0  0  0  0
  -29.7634  -11.7505   17.4836 H   0  0  0  0  0  0
  -29.6220  -13.4756   17.7118 H   0  0  0  0  0  0
  -27.8602  -11.2917   18.8647 H   0  0  0  0  0  0
  -27.3578  -12.5743   17.7965 H   0  0  0  0  0  0
  -27.6532  -14.2447   19.5060 H   0  0  0  0  0  0
  -28.7642  -12.0355   21.3025 H   0  0  0  0  0  0
  -28.4737  -13.6129   21.8978 H   0  0  0  0  0  0
  -25.2764   -9.5666   22.4769 H   0  0  0  0  0  0
  -23.9999   -7.4617   22.7472 H   0  0  0  0  0  0
  -21.0838   -8.8774   19.8954 H   0  0  0  0  0  0
  -22.3701  -10.9672   19.6173 H   0  0  0  0  0  0
  -21.1996   -7.6151   23.9728 H   0  0  0  0  0  0
  -21.1482   -6.0523   25.9084 H   0  0  0  0  0  0
  -22.0595   -2.7615   23.2847 H   0  0  0  0  0  0
  -22.4071  -11.9863   22.4807 H   0  0  0  0  0  0
  -21.1084  -13.1241   22.2635 H   0  0  0  0  0  0
  -24.6434  -15.8357   20.5107 H   0  0  0  0  0  0
  -26.2562  -15.6219   20.0527 H   0  0  0  0  0  0
  -26.7186  -32.5454   23.1121 H   0  0  0  0  0  0
  -25.0049  -33.9733   25.0420 H   0  0  0  0  0  0
  -22.7149  -31.3085   21.4076 H   0  0  0  0  0  0
  -23.3754  -35.9622   23.3298 H   0  0  0  0  0  0
  -24.3581  -36.8921   22.2056 H   0  0  0  0  0  0
  -23.7233  -37.6493   23.6666 H   0  0  0  0  0  0
  -26.1007  -31.5550   20.6124 H   0  0  0  0  0  0
  -26.8438  -30.8341   22.0093 H   0  0  0  0  0  0
  -28.1141  -28.9692   21.1948 H   0  0  0  0  0  0
  -25.9337  -25.9521   18.9786 H   0  0  0  0  0  0
  -23.9596  -27.3294   19.0060 H   0  0  0  0  0  0
  -23.7592  -30.6089   19.4089 H   0  0  0  0  0  0
  -22.7543  -29.2624   19.8544 H   0  0  0  0  0  0
  -25.1292  -36.1945   25.0825 H   0  0  0  0  0  0
  -20.9987  -28.3260   24.1400 H   0  0  0  0  0  0
  -20.5675  -26.2301   23.3613 H   0  0  0  0  0  0
  -21.6639  -26.7438   22.1200 H   0  0  0  0  0  0
  -19.6902  -25.6293   21.1241 H   0  0  0  0  0  0
  -19.6676  -27.3196   20.6751 H   0  0  0  0  0  0
  -17.4198  -26.6683   21.4034 H   0  0  0  0  0  0
  -18.0324  -26.0068   22.9029 H   0  0  0  0  0  0
  -19.7941  -30.7277   24.2261 H   0  0  0  0  0  0
  -17.5018  -31.6268   24.5168 H   0  0  0  0  0  0
  -15.5354  -30.2990   23.7650 H   0  0  0  0  0  0
  -15.8677  -28.0828   22.7057 H   0  0  0  0  0  0
  -24.5884  -30.7097   25.7784 H   0  0  0  0  0  0
  -24.8925  -32.2895   26.4912 H   0  0  0  0  0  0
  -25.8035  -30.8881   27.0230 H   0  0  0  0  0  0
  -26.2914  -29.6772   24.1212 H   0  0  0  0  0  0
  -27.4020  -29.7273   25.4710 H   0  0  0  0  0  0
  -27.8794  -30.4310   23.9440 H   0  0  0  0  0  0
  -27.2660  -33.3628   26.2094 H   0  0  0  0  0  0
  -28.3854  -32.6898   25.0330 H   0  0  0  0  0  0
  -28.0728  -31.8452   26.5419 H   0  0  0  0  0  0
  -28.2593  -38.0108   24.7528 H   0  0  0  0  0  0
  -28.1085  -36.2643   24.6268 H   0  0  0  0  0  0
  -27.2305  -37.1426   25.8867 H   0  0  0  0  0  0
  -20.9377  -29.8790   21.6907 H   0  0  0  0  0  0
  -26.0172  -38.2859   24.1420 H   0  0  0  0  0  0
  -32.1333  -19.6785   20.1714 H   0  0  0  0  0  0
  -31.1469  -21.9328   20.1691 H   0  0  0  0  0  0
  -27.2396  -20.1832   20.6337 H   0  0  0  0  0  0
  -27.6736  -17.2668   19.6843 H   0  0  0  0  0  0
  -27.1597  -17.7455   21.2830 H   0  0  0  0  0  0
  -31.7127  -17.1706   21.1264 H   0  0  0  0  0  0
  -31.3913  -17.0737   19.4165 H   0  0  0  0  0  0
  -28.0598  -15.5002   21.2903 H   0  0  0  0  0  0
  -29.0084  -16.4944   22.3400 H   0  0  0  0  0  0
  -27.1639  -24.7697   20.6100 H   0  0  0  0  0  0
  -27.7476  -24.8265   18.9631 H   0  0  0  0  0  0
  -29.5379  -24.0157   21.3071 H   0  0  0  0  0  0
  -29.8864  -23.8369   19.5970 H   0  0  0  0  0  0
  1 25  1  0  0  0
  1 30  2  0  0  0
  1 82  1  0  0  0
  2  3  1  0  0  0
  2 25  1  0  0  0
  2 84  1  0  0  0
  2 85  1  0  0  0
  3  4  1  0  0  0
  3 86  1  0  0  0
  3 87  1  0  0  0
  4  5  1  0  0  0
  4 88  1  0  0  0
  4 89  1  0  0  0
  5  6  1  0  0  0
  5 26  1  0  0  0
  5 90  1  0  0  0
  6 25  1  0  0  0
  6 91  1  0  0  0
  6 92  1  0  0  0
  7  8  2  0  0  0
  7 26  1  0  0  0
  7 29  1  0  0  0
  8  9  1  0  0  0
  8 22  1  0  0  0
  9 10  1  0  0  0
  9 27  2  0  0  0
 10 11  2  0  0  0
 10 15  1  0  0  0
 11 12  1  0  0  0
 11 93  1  0  0  0
 12 13  2  0  0  0
 12 94  1  0  0  0
 13 14  1  0  0  0
 13 31  1  0  0  0
 14 15  2  0  0  0
 14 95  1  0  0  0
 15 96  1  0  0  0
 16 17  2  0  0  0
 16 21  1  0  0  0
 16 31  1  0  0  0
 17 18  1  0  0  0
 17 97  1  0  0  0
 18 19  2  0  0  0
 18 98  1  0  0  0
 19 20  1  0  0  0
 19 24  1  0  0  0
 20 21  2  0  0  0
 20 99  1  0  0  0
 21 23  1  0  0  0
 22 28  1  0  0  0
 22 32  2  0  0  0
 26 27  1  0  0  0
 28100  1  0  0  0
 28101  1  0  0  0
 29102  1  0  0  0
 29103  1  0  0  0
 33 34  1  0  0  0
 33 66  1  0  0  0
 33 70  2  0  0  0
 34 36  1  0  0  0
 34 59  1  0  0  0
 34104  1  0  0  0
 35 44  2  0  0  0
 35 45  1  0  0  0
 35 68  1  0  0  0
 36 56  1  0  0  0
 36105  1  0  0  0
 37 39  1  0  0  0
 37 47  1  0  0  0
 37 66  1  0  0  0
 37106  1  0  0  0
 38 43  2  0  0  0
 38 46  1  0  0  0
 38 47  1  0  0  0
 39 64  1  0  0  0
 39 67  2  0  0  0
 40 52  1  0  0  0
 40 53  2  0  0  0
 40 58  1  0  0  0
 41107  1  0  0  0
 41108  1  0  0  0
 41109  1  0  0  0
 41 48  1  0  0  0
 42 43  1  0  0  0
 42 66  1  0  0  0
 42110  1  0  0  0
 42111  1  0  0  0
 43 44  1  0  0  0
 44112  1  0  0  0
 45 46  2  0  0  0
 45113  1  0  0  0
 46114  1  0  0  0
 47115  1  0  0  0
 47116  1  0  0  0
 48 56  1  0  0  0
 48 65  1  0  0  0
 48117  1  0  0  0
 49 50  1  0  0  0
 49 53  1  0  0  0
 49 64  1  0  0  0
 49118  1  0  0  0
 50 51  1  0  0  0
 50119  1  0  0  0
 50120  1  0  0  0
 51 52  1  0  0  0
 51121  1  0  0  0
 51122  1  0  0  0
 52123  1  0  0  0
 52124  1  0  0  0
 53 54  1  0  0  0
 54 55  2  0  0  0
 54125  1  0  0  0
 55 57  1  0  0  0
 55126  1  0  0  0
 56 69  2  0  0  0
 57 58  2  0  0  0
 57127  1  0  0  0
 58128  1  0  0  0
 59 60  1  0  0  0
 59 61  1  0  0  0
 59 62  1  0  0  0
 60129  1  0  0  0
 60130  1  0  0  0
 60131  1  0  0  0
 61132  1  0  0  0
 61133  1  0  0  0
 61134  1  0  0  0
 62135  1  0  0  0
 62136  1  0  0  0
 62137  1  0  0  0
 63 65  1  0  0  0
 63138  1  0  0  0
 63139  1  0  0  0
 63140  1  0  0  0
 64141  1  0  0  0
 65142  1  0  0  0
 68 80  1  0  0  0
 71 72  2  0  0  0
 71 74  1  0  0  0
 71143  1  0  0  0
 72 76  1  0  0  0
 72144  1  0  0  0
 73 75  1  0  0  0
 73 76  2  0  0  0
 73145  1  0  0  0
 74 75  2  0  0  0
 74 78  1  0  0  0
 75 77  1  0  0  0
 76 83  1  0  0  0
 77 79  1  0  0  0
 77146  1  0  0  0
 77147  1  0  0  0
 78 82  1  0  0  0
 78148  1  0  0  0
 78149  1  0  0  0
 79 82  1  0  0  0
 79150  1  0  0  0
 79151  1  0  0  0
 80 81  1  0  0  0
 80152  1  0  0  0
 80153  1  0  0  0
 81 83  1  0  0  0
 81154  1  0  0  0
 81155  1  0  0  0
M  ISO  4   1 100  68 101  80 101  82 100
M  END
> <chiral flag>
0

> <version>
0

> <s_m_source_file>
/data/baiqing/PycharmProjects/Reinvent-master-3.2/result/LINK_invent/BTK/process_docking_weight1_custom_sum_contain_oxygen_bond_distance_aromatic_linkinvent_7_9_3/rearranged_h_0136.sdf

> <i_m_source_file_index>
28

> <r_mmod_Potential_Energy-OPLS-2005>
240.442153930664

> <r_mmod_Stretch_Energy-OPLS-2005>
90.415168762207

> <r_mmod_Bend_Energy-OPLS-2005>
181.996826171875

> <r_mmod_Torsional_Energy-OPLS-2005>
258.251342773438

> <r_mmod_Improper_Torsional_Energy-OPLS-2005>
8.83030891418457

> <r_mmod_Van_der_Waal_Energy-OPLS-2005>
163.998657226562

> <r_mmod_Electrostatic_Energy-OPLS-2005>
-315.422149658203

> <r_mmod_Solvation_Energy-OPLS-2005>
-207.370483398438

> <b_mmod_Minimization_Converged-OPLS-2005>
0

> <r_mmod_RMS_Derivative-OPLS-2005>
0.844039499759674

$$$$
30
                    3D
 Structure written by MMmdl.
172181  0  0  1  0            999 V2000
  -30.7409  -14.3846   20.6166 C   0  0  0  0  0  0
  -30.4132  -12.2702   19.4020 C   0  0  0  0  0  0
  -29.4850  -12.5125   18.1956 C   0  0  0  0  0  0
  -28.0069  -12.3787   18.6104 C   0  0  0  0  0  0
  -27.6641  -13.2023   19.8804 C   0  0  2  0  0  0
  -28.7043  -12.9512   20.9957 C   0  0  0  0  0  0
  -25.2593  -13.8149   20.5679 C   0  0  0  0  0  0
  -24.1834  -13.0432   20.9174 C   0  0  0  0  0  0
  -24.6389  -11.6899   20.8736 C   0  0  0  0  0  0
  -23.9057  -10.4287   21.0406 C   0  0  0  0  0  0
  -24.3611   -9.4200   21.9183 C   0  0  0  0  0  0
  -23.6287   -8.2235   22.0747 C   0  0  0  0  0  0
  -22.4269   -8.0279   21.3537 C   0  0  0  0  0  0
  -21.9905   -9.0252   20.4637 C   0  0  0  0  0  0
  -22.7236  -10.2130   20.3048 C   0  0  0  0  0  0
  -21.6842   -6.0743   22.5283 C   0  0  0  0  0  0
  -21.4012   -6.5645   23.8218 C   0  0  0  0  0  0
  -21.3651   -5.6795   24.9176 C   0  0  0  0  0  0
  -21.6040   -4.3058   24.7225 C   0  0  0  0  0  0
  -21.8816   -3.8152   23.4343 C   0  0  0  0  0  0
  -21.9184   -4.6971   22.3403 C   0  0  0  0  0  0
  -22.7855  -13.5231   21.1846 C   0  0  0  0  0  0
  -22.1649   -4.2155   21.0982 F   0  0  0  0  0  0
  -21.5631   -3.4544   25.7738 F   0  0  0  0  0  0
  -30.0426  -13.2333   20.4467 N   0  0  0  0  0  0
  -26.3035  -12.9314   20.3394 N   0  0  0  0  0  0
  -25.9312  -11.6476   20.5763 N   0  0  0  0  0  0
  -22.0492  -12.8224   22.0405 N   0  0  0  0  0  0
  -25.4327  -15.1864   20.4066 N   0  0  0  0  0  0
  -31.8431  -14.6007   20.1005 O   0  0  0  0  0  0
  -21.6625   -6.8883   21.4240 O   0  0  0  0  0  0
  -22.3538  -14.5545   20.6710 O   0  0  0  0  0  0
  -24.6091  -31.8711   23.2133 C   0  0  0  0  0  0
  -25.9005  -32.4839   23.8415 C   0  0  1  0  0  0
  -27.2422  -27.4874   20.0824 C   0  0  0  0  0  0
  -25.5881  -33.8640   24.2348 N   0  0  0  0  0  0
  -23.3958  -30.4928   21.5525 C   0  0  2  0  0  0
  -24.8448  -28.9595   20.1198 C   0  0  0  0  0  0
  -22.7382  -29.4667   22.5017 C   0  0  0  0  0  0
  -18.0264  -28.1373   22.8497 C   0  0  0  0  0  0
  -24.1484  -36.7324   23.2638 C   0  0  0  0  0  0
  -25.9186  -30.8493   21.3602 C   0  0  0  0  0  0
  -25.9998  -29.4841   20.7154 C   0  0  0  0  0  0
  -27.2023  -28.7500   20.7043 C   0  0  0  0  0  0
  -26.0755  -26.9550   19.4985 C   0  0  0  0  0  0
  -24.8735  -27.6894   19.5140 C   0  0  0  0  0  0
  -23.6034  -29.8206   20.1680 C   0  0  0  0  0  0
  -25.4101  -36.3126   24.0345 C   0  0  1  0  0  0
  -20.5850  -28.3650   23.1337 C   0  0  2  0  0  0
  -20.6755  -26.9392   22.5422 C   0  0  0  0  0  0
  -19.5736  -26.6386   21.5215 C   0  0  0  0  0  0
  -18.1915  -26.7922   22.1625 C   0  0  0  0  0  0
  -19.1513  -28.8828   23.2915 C   0  0  0  0  0  0
  -18.9445  -30.1438   23.8920 C   0  0  0  0  0  0
  -17.6446  -30.6583   24.0567 C   0  0  0  0  0  0
  -25.9026  -34.9487   23.5143 C   0  0  0  0  0  0
  -16.5335  -29.9086   23.6323 C   0  0  0  0  0  0
  -16.7254  -28.6501   23.0346 C   0  0  0  0  0  0
  -26.4457  -31.6604   25.0722 C   0  0  0  0  0  0
  -25.3743  -31.3697   26.1486 C   0  0  0  0  0  0
  -27.0273  -30.3055   24.6057 C   0  0  0  0  0  0
  -27.6050  -32.4308   25.7471 C   0  0  0  0  0  0
  -27.5582  -37.1811   24.8463 C   0  0  0  0  0  0
  -21.4115  -29.3022   22.3752 N   0  0  0  0  0  0
  -26.4292  -37.3804   23.9413 N   0  0  0  0  0  0
  -24.6591  -31.0845   22.1014 N   0  0  0  0  0  0
  -23.4173  -28.8217   23.3051 O   0  0  0  0  0  0
  -28.4107  -26.7804   20.0279 O   0  0  0  0  0  0
  -26.5584  -34.8932   22.4702 O   0  0  0  0  0  0
  -23.5295  -32.1446   23.7554 O   0  0  0  0  0  0
  -30.5379  -22.9411   18.0793 C   0  0  0  0  0  0
  -28.1742  -22.4916   18.4039 C   0  0  0  0  0  0
  -30.8377  -21.5733   18.2525 C   0  0  0  0  0  0
  -29.7892  -20.6525   18.5383 C   0  0  0  0  0  0
  -28.4515  -21.1238   18.5887 C   0  0  0  0  0  0
  -29.2107  -23.4131   18.1783 C   0  0  0  0  0  0
  -30.6213  -17.5049   22.2798 C   0  0  0  0  0  0
  -30.6976  -15.9804   22.4588 C   0  0  0  0  0  0
  -29.5743  -16.4658   20.4387 C   0  0  0  0  0  0
  -30.4794  -17.6510   20.7724 C   0  0  1  0  0  0
  -33.0019  -21.0236   19.4849 C   0  0  0  0  0  0
  -32.3013  -21.1596   18.1273 C   0  0  0  0  0  0
  -30.0763  -19.1850   18.8569 C   0  0  0  0  0  0
  -29.1361  -26.9915   18.8204 C   0  0  0  0  0  0
  -29.8547  -25.6934   18.4515 C   0  0  0  0  0  0
  -30.0868  -15.3681   21.2649 N   0  0  0  0  0  0
  -27.3851  -20.2643   18.8659 N   0  0  0  0  0  0
  -29.9723  -18.9606   20.3131 N   0  3  0  0  0  0
  -28.8692  -24.7395   18.0679 O   0  0  0  0  0  0
  -31.4593  -12.3563   19.1015 H   0  0  0  0  0  0
  -30.2950  -11.2517   19.7761 H   0  0  0  0  0  0
  -29.7112  -11.8063   17.3961 H   0  0  0  0  0  0
  -29.6646  -13.5071   17.7833 H   0  0  0  0  0  0
  -27.8093  -11.3217   18.7920 H   0  0  0  0  0  0
  -27.3558  -12.6708   17.7859 H   0  0  0  0  0  0
  -27.7180  -14.2544   19.6019 H   0  0  0  0  0  0
  -28.6607  -11.9124   21.3270 H   0  0  0  0  0  0
  -28.4732  -13.5466   21.8801 H   0  0  0  0  0  0
  -25.2752   -9.5680   22.4763 H   0  0  0  0  0  0
  -23.9986   -7.4627   22.7467 H   0  0  0  0  0  0
  -21.0830   -8.8777   19.8953 H   0  0  0  0  0  0
  -22.3693  -10.9672   19.6161 H   0  0  0  0  0  0
  -21.2011   -7.6157   23.9732 H   0  0  0  0  0  0
  -21.1474   -6.0522   25.9081 H   0  0  0  0  0  0
  -22.0605   -2.7616   23.2840 H   0  0  0  0  0  0
  -22.4076  -11.9853   22.4763 H   0  0  0  0  0  0
  -21.1124  -13.1269   22.2650 H   0  0  0  0  0  0
  -24.6679  -15.8437   20.5113 H   0  0  0  0  0  0
  -26.2897  -15.6232   20.0932 H   0  0  0  0  0  0
  -26.7082  -32.5575   23.1193 H   0  0  0  0  0  0
  -25.0042  -33.9811   25.0499 H   0  0  0  0  0  0
  -22.6826  -31.3081   21.4128 H   0  0  0  0  0  0
  -23.3744  -35.9657   23.3309 H   0  0  0  0  0  0
  -24.3584  -36.8922   22.2050 H   0  0  0  0  0  0
  -23.7232  -37.6535   23.6636 H   0  0  0  0  0  0
  -26.0206  -31.6132   20.5879 H   0  0  0  0  0  0
  -26.8105  -30.9093   21.9719 H   0  0  0  0  0  0
  -28.0987  -29.1539   21.1547 H   0  0  0  0  0  0
  -26.1055  -25.9837   19.0246 H   0  0  0  0  0  0
  -23.9848  -27.2779   19.0551 H   0  0  0  0  0  0
  -23.7058  -30.5932   19.4053 H   0  0  0  0  0  0
  -22.7301  -29.2343   19.8760 H   0  0  0  0  0  0
  -25.1274  -36.1997   25.0838 H   0  0  0  0  0  0
  -20.9941  -28.3202   24.1458 H   0  0  0  0  0  0
  -20.5658  -26.2254   23.3601 H   0  0  0  0  0  0
  -21.6624  -26.7446   22.1204 H   0  0  0  0  0  0
  -19.6897  -25.6304   21.1227 H   0  0  0  0  0  0
  -19.6682  -27.3213   20.6760 H   0  0  0  0  0  0
  -17.4189  -26.6677   21.4022 H   0  0  0  0  0  0
  -18.0315  -26.0053   22.9009 H   0  0  0  0  0  0
  -19.7925  -30.7245   24.2296 H   0  0  0  0  0  0
  -17.5006  -31.6265   24.5162 H   0  0  0  0  0  0
  -15.5337  -30.2997   23.7639 H   0  0  0  0  0  0
  -15.8652  -28.0829   22.7046 H   0  0  0  0  0  0
  -24.5898  -30.7064   25.7824 H   0  0  0  0  0  0
  -24.8956  -32.2849   26.4979 H   0  0  0  0  0  0
  -25.8108  -30.8830   27.0217 H   0  0  0  0  0  0
  -26.2793  -29.6825   24.1135 H   0  0  0  0  0  0
  -27.4090  -29.7277   25.4485 H   0  0  0  0  0  0
  -27.8609  -30.4388   23.9157 H   0  0  0  0  0  0
  -27.2688  -33.3602   26.2077 H   0  0  0  0  0  0
  -28.3842  -32.6870   25.0280 H   0  0  0  0  0  0
  -28.0734  -31.8408   26.5359 H   0  0  0  0  0  0
  -28.2601  -38.0109   24.7523 H   0  0  0  0  0  0
  -28.1079  -36.2646   24.6269 H   0  0  0  0  0  0
  -27.2307  -37.1437   25.8867 H   0  0  0  0  0  0
  -20.9272  -29.8742   21.6976 H   0  0  0  0  0  0
  -26.0188  -38.2885   24.1422 H   0  0  0  0  0  0
  -31.3456  -23.6290   17.8736 H   0  0  0  0  0  0
  -27.1587  -22.8562   18.4655 H   0  0  0  0  0  0
  -31.4978  -18.0174   22.6783 H   0  0  0  0  0  0
  -29.7394  -17.8936   22.7925 H   0  0  0  0  0  0
  -30.1744  -15.6635   23.3613 H   0  0  0  0  0  0
  -31.7408  -15.6743   22.5724 H   0  0  0  0  0  0
  -29.5762  -16.2423   19.3690 H   0  0  0  0  0  0
  -28.5400  -16.6603   20.7254 H   0  0  0  0  0  0
  -31.4638  -17.4893   20.3268 H   0  0  0  0  0  0
  -34.0516  -20.7598   19.3512 H   0  0  0  0  0  0
  -32.5507  -20.2523   20.1058 H   0  0  0  0  0  0
  -32.9685  -21.9623   20.0391 H   0  0  0  0  0  0
  -32.8318  -21.9104   17.5391 H   0  0  0  0  0  0
  -32.3992  -20.2468   17.5405 H   0  0  0  0  0  0
  -31.0550  -18.8747   18.5009 H   0  0  0  0  0  0
  -29.3661  -18.5471   18.3299 H   0  0  0  0  0  0
  -28.5003  -27.3102   17.9915 H   0  0  0  0  0  0
  -29.8641  -27.7857   18.9882 H   0  0  0  0  0  0
  -30.4428  -25.3534   19.3062 H   0  0  0  0  0  0
  -30.5400  -25.8675   17.6213 H   0  0  0  0  0  0
  -26.4606  -20.6812   18.8019 H   0  0  0  0  0  0
  -27.3778  -19.3671   18.3919 H   0  0  0  0  0  0
  -30.5079  -19.6849   20.7620 H   0  0  0  0  0  0
  -29.0089  -19.0931   20.5808 H   0  0  0  0  0  0
  1 25  1  0  0  0
  1 30  2  0  0  0
  1 86  1  0  0  0
  2  3  1  0  0  0
  2 25  1  0  0  0
  2 90  1  0  0  0
  2 91  1  0  0  0
  3  4  1  0  0  0
  3 92  1  0  0  0
  3 93  1  0  0  0
  4  5  1  0  0  0
  4 94  1  0  0  0
  4 95  1  0  0  0
  5  6  1  0  0  0
  5 26  1  0  0  0
  5 96  1  0  0  0
  6 25  1  0  0  0
  6 97  1  0  0  0
  6 98  1  0  0  0
  7  8  2  0  0  0
  7 26  1  0  0  0
  7 29  1  0  0  0
  8  9  1  0  0  0
  8 22  1  0  0  0
  9 10  1  0  0  0
  9 27  2  0  0  0
 10 11  2  0  0  0
 10 15  1  0  0  0
 11 12  1  0  0  0
 11 99  1  0  0  0
 12 13  2  0  0  0
 12100  1  0  0  0
 13 14  1  0  0  0
 13 31  1  0  0  0
 14 15  2  0  0  0
 14101  1  0  0  0
 15102  1  0  0  0
 16 17  2  0  0  0
 16 21  1  0  0  0
 16 31  1  0  0  0
 17 18  1  0  0  0
 17103  1  0  0  0
 18 19  2  0  0  0
 18104  1  0  0  0
 19 20  1  0  0  0
 19 24  1  0  0  0
 20 21  2  0  0  0
 20105  1  0  0  0
 21 23  1  0  0  0
 22 28  1  0  0  0
 22 32  2  0  0  0
 26 27  1  0  0  0
 28106  1  0  0  0
 28107  1  0  0  0
 29108  1  0  0  0
 29109  1  0  0  0
 33 34  1  0  0  0
 33 66  1  0  0  0
 33 70  2  0  0  0
 34 36  1  0  0  0
 34 59  1  0  0  0
 34110  1  0  0  0
 35 44  2  0  0  0
 35 45  1  0  0  0
 35 68  1  0  0  0
 36 56  1  0  0  0
 36111  1  0  0  0
 37 39  1  0  0  0
 37 47  1  0  0  0
 37 66  1  0  0  0
 37112  1  0  0  0
 38 43  2  0  0  0
 38 46  1  0  0  0
 38 47  1  0  0  0
 39 64  1  0  0  0
 39 67  2  0  0  0
 40 52  1  0  0  0
 40 53  2  0  0  0
 40 58  1  0  0  0
 41113  1  0  0  0
 41114  1  0  0  0
 41115  1  0  0  0
 41 48  1  0  0  0
 42 43  1  0  0  0
 42 66  1  0  0  0
 42116  1  0  0  0
 42117  1  0  0  0
 43 44  1  0  0  0
 44118  1  0  0  0
 45 46  2  0  0  0
 45119  1  0  0  0
 46120  1  0  0  0
 47121  1  0  0  0
 47122  1  0  0  0
 48 56  1  0  0  0
 48 65  1  0  0  0
 48123  1  0  0  0
 49 50  1  0  0  0
 49 53  1  0  0  0
 49 64  1  0  0  0
 49124  1  0  0  0
 50 51  1  0  0  0
 50125  1  0  0  0
 50126  1  0  0  0
 51 52  1  0  0  0
 51127  1  0  0  0
 51128  1  0  0  0
 52129  1  0  0  0
 52130  1  0  0  0
 53 54  1  0  0  0
 54 55  2  0  0  0
 54131  1  0  0  0
 55 57  1  0  0  0
 55132  1  0  0  0
 56 69  2  0  0  0
 57 58  2  0  0  0
 57133  1  0  0  0
 58134  1  0  0  0
 59 60  1  0  0  0
 59 61  1  0  0  0
 59 62  1  0  0  0
 60135  1  0  0  0
 60136  1  0  0  0
 60137  1  0  0  0
 61138  1  0  0  0
 61139  1  0  0  0
 61140  1  0  0  0
 62141  1  0  0  0
 62142  1  0  0  0
 62143  1  0  0  0
 63 65  1  0  0  0
 63144  1  0  0  0
 63145  1  0  0  0
 63146  1  0  0  0
 64147  1  0  0  0
 65148  1  0  0  0
 68 84  1  0  0  0
 71 73  2  0  0  0
 71 76  1  0  0  0
 71149  1  0  0  0
 72 75  1  0  0  0
 72 76  2  0  0  0
 72150  1  0  0  0
 73 74  1  0  0  0
 73 82  1  0  0  0
 74 75  2  0  0  0
 74 83  1  0  0  0
 75 87  1  0  0  0
 76 89  1  0  0  0
 77 78  1  0  0  0
 77 80  1  0  0  0
 77151  1  0  0  0
 77152  1  0  0  0
 78 86  1  0  0  0
 78153  1  0  0  0
 78154  1  0  0  0
 79 80  1  0  0  0
 79 86  1  0  0  0
 79155  1  0  0  0
 79156  1  0  0  0
 80 88  1  0  0  0
 80157  1  0  0  0
 81 82  1  0  0  0
 81158  1  0  0  0
 81159  1  0  0  0
 81160  1  0  0  0
 82161  1  0  0  0
 82162  1  0  0  0
 83 88  1  0  0  0
 83163  1  0  0  0
 83164  1  0  0  0
 84 85  1  0  0  0
 84165  1  0  0  0
 84166  1  0  0  0
 85 89  1  0  0  0
 85167  1  0  0  0
 85168  1  0  0  0
 87169  1  0  0  0
 87170  1  0  0  0
 88171  1  0  0  0
 88172  1  0  0  0
M  CHG  1  88   1
M  ISO  4   1 100  68 101  84 101  86 100
M  END
> <chiral flag>
0

> <version>
0

> <s_m_source_file>
/data/baiqing/PycharmProjects/Reinvent-master-3.2/result/LINK_invent/BTK/process_docking_weight1_custom_sum_contain_oxygen_bond_distance_aromatic_linkinvent_7_9_3/rearranged_h_0136.sdf

> <i_m_source_file_index>
29

> <r_mmod_Potential_Energy-OPLS-2005>
-20.4526805877686

> <r_mmod_Stretch_Energy-OPLS-2005>
34.1249923706055

> <r_mmod_Bend_Energy-OPLS-2005>
126.081489562988

> <r_mmod_Torsional_Energy-OPLS-2005>
358.917419433594

> <r_mmod_Improper_Torsional_Energy-OPLS-2005>
13.0470275878906

> <r_mmod_Van_der_Waal_Energy-OPLS-2005>
151.596633911133

> <r_mmod_Electrostatic_Energy-OPLS-2005>
-274.874755859375

> <r_mmod_Solvation_Energy-OPLS-2005>
-436.666076660156

> <b_mmod_Minimization_Converged-OPLS-2005>
0

> <r_mmod_RMS_Derivative-OPLS-2005>
0.978119015693665

$$$$
31
                    3D
 Structure written by MMmdl.
161169  0  0  1  0            999 V2000
  -30.7391  -14.4814   20.5726 C   0  0  0  0  0  0
  -30.4163  -12.3169   19.4324 C   0  0  0  0  0  0
  -29.4933  -12.5015   18.2116 C   0  0  0  0  0  0
  -28.0174  -12.3595   18.6270 C   0  0  0  0  0  0
  -27.6600  -13.2129   19.8734 C   0  0  2  0  0  0
  -28.7044  -13.0333   20.9998 C   0  0  0  0  0  0
  -25.2576  -13.8159   20.5683 C   0  0  0  0  0  0
  -24.1838  -13.0438   20.9195 C   0  0  0  0  0  0
  -24.6401  -11.6909   20.8743 C   0  0  0  0  0  0
  -23.9064  -10.4297   21.0407 C   0  0  0  0  0  0
  -24.3614   -9.4210   21.9184 C   0  0  0  0  0  0
  -23.6288   -8.2246   22.0755 C   0  0  0  0  0  0
  -22.4271   -8.0281   21.3541 C   0  0  0  0  0  0
  -21.9909   -9.0258   20.4641 C   0  0  0  0  0  0
  -22.7238  -10.2136   20.3057 C   0  0  0  0  0  0
  -21.6853   -6.0731   22.5275 C   0  0  0  0  0  0
  -21.4015   -6.5635   23.8209 C   0  0  0  0  0  0
  -21.3658   -5.6786   24.9170 C   0  0  0  0  0  0
  -21.6046   -4.3052   24.7222 C   0  0  0  0  0  0
  -21.8820   -3.8144   23.4346 C   0  0  0  0  0  0
  -21.9192   -4.6957   22.3401 C   0  0  0  0  0  0
  -22.7859  -13.5234   21.1845 C   0  0  0  0  0  0
  -22.1663   -4.2146   21.0975 F   0  0  0  0  0  0
  -21.5633   -3.4539   25.7739 F   0  0  0  0  0  0
  -30.0339  -13.3227   20.4384 N   0  0  0  0  0  0
  -26.3020  -12.9342   20.3369 N   0  0  0  0  0  0
  -25.9333  -11.6497   20.5783 N   0  0  0  0  0  0
  -22.0493  -12.8232   22.0392 N   0  0  0  0  0  0
  -25.4297  -15.1870   20.4041 N   0  0  0  0  0  0
  -31.8600  -14.6313   20.0823 O   0  0  0  0  0  0
  -21.6638   -6.8876   21.4238 O   0  0  0  0  0  0
  -22.3560  -14.5546   20.6692 O   0  0  0  0  0  0
  -24.6169  -31.8669   23.2107 C   0  0  0  0  0  0
  -25.9060  -32.4819   23.8404 C   0  0  1  0  0  0
  -27.2250  -27.4014   20.1015 C   0  0  0  0  0  0
  -25.5906  -33.8618   24.2322 N   0  0  0  0  0  0
  -23.4061  -30.4931   21.5525 C   0  0  2  0  0  0
  -24.8509  -28.9644   20.1110 C   0  0  0  0  0  0
  -22.7423  -29.4649   22.4981 C   0  0  0  0  0  0
  -18.0274  -28.1379   22.8482 C   0  0  0  0  0  0
  -24.1482  -36.7312   23.2635 C   0  0  0  0  0  0
  -25.9397  -30.8242   21.3704 C   0  0  0  0  0  0
  -26.0164  -29.4596   20.7100 C   0  0  0  0  0  0
  -27.2072  -28.6886   20.6977 C   0  0  0  0  0  0
  -26.0363  -26.9429   19.4811 C   0  0  0  0  0  0
  -24.8578  -27.7070   19.4908 C   0  0  0  0  0  0
  -23.6152  -29.8342   20.1652 C   0  0  0  0  0  0
  -25.4107  -36.3111   24.0335 C   0  0  1  0  0  0
  -20.5865  -28.3671   23.1308 C   0  0  2  0  0  0
  -20.6763  -26.9410   22.5414 C   0  0  0  0  0  0
  -19.5748  -26.6390   21.5203 C   0  0  0  0  0  0
  -18.1921  -26.7922   22.1619 C   0  0  0  0  0  0
  -19.1526  -28.8839   23.2887 C   0  0  0  0  0  0
  -18.9455  -30.1436   23.8915 C   0  0  0  0  0  0
  -17.6462  -30.6586   24.0559 C   0  0  0  0  0  0
  -25.9042  -34.9475   23.5128 C   0  0  0  0  0  0
  -16.5351  -29.9092   23.6328 C   0  0  0  0  0  0
  -16.7266  -28.6507   23.0354 C   0  0  0  0  0  0
  -26.4484  -31.6600   25.0732 C   0  0  0  0  0  0
  -25.3744  -31.3701   26.1472 C   0  0  0  0  0  0
  -27.0309  -30.3034   24.6126 C   0  0  0  0  0  0
  -27.6056  -32.4314   25.7508 C   0  0  0  0  0  0
  -27.5580  -37.1804   24.8464 C   0  0  0  0  0  0
  -21.4153  -29.3031   22.3713 N   0  0  0  0  0  0
  -26.4292  -37.3800   23.9409 N   0  0  0  0  0  0
  -24.6728  -31.0745   22.1034 N   0  0  0  0  0  0
  -23.4179  -28.8192   23.3039 O   0  0  0  0  0  0
  -28.3669  -26.6084   20.1522 O   0  0  0  0  0  0
  -26.5606  -34.8928   22.4685 O   0  0  0  0  0  0
  -23.5359  -32.1449   23.7480 O   0  0  0  0  0  0
  -28.6421  -19.6885   20.0853 C   0  0  0  0  0  0
  -30.4552  -19.4452   21.6575 C   0  0  2  0  0  0
  -29.3530  -20.4442   21.2347 C   0  0  1  0  0  0
  -29.7844  -18.0659   21.4337 C   0  0  2  0  0  0
  -30.9677  -19.6650   23.0894 C   0  0  0  0  0  0
  -30.7515  -16.8450   21.3867 C   0  0  0  0  0  0
  -29.2957  -24.2381   20.5239 C   0  0  0  0  0  0
  -28.8282  -22.7496   20.5744 C   0  0  0  0  0  0
  -28.1399  -25.1772   20.0789 C   0  0  0  0  0  0
  -30.1171  -15.5224   21.1647 N   0  0  0  0  0  0
  -29.8905  -21.7744   20.8748 N   0  0  0  0  0  0
  -29.0139  -18.2577   20.1928 N   0  3  0  0  0  0
  -31.4619  -12.3967   19.1300 H   0  0  0  0  0  0
  -30.3060  -11.3138   19.8467 H   0  0  0  0  0  0
  -29.7341  -11.7674   17.4413 H   0  0  0  0  0  0
  -29.6595  -13.4821   17.7634 H   0  0  0  0  0  0
  -27.8354  -11.3046   18.8365 H   0  0  0  0  0  0
  -27.3644  -12.6194   17.7935 H   0  0  0  0  0  0
  -27.6957  -14.2553   19.5574 H   0  0  0  0  0  0
  -28.6821  -12.0113   21.3819 H   0  0  0  0  0  0
  -28.4675  -13.6716   21.8513 H   0  0  0  0  0  0
  -25.2755   -9.5686   22.4764 H   0  0  0  0  0  0
  -23.9992   -7.4638   22.7481 H   0  0  0  0  0  0
  -21.0840   -8.8777   19.8949 H   0  0  0  0  0  0
  -22.3693  -10.9678   19.6171 H   0  0  0  0  0  0
  -21.2006   -7.6142   23.9709 H   0  0  0  0  0  0
  -21.1481   -6.0518   25.9069 H   0  0  0  0  0  0
  -22.0598   -2.7606   23.2845 H   0  0  0  0  0  0
  -22.4099  -11.9885   22.4767 H   0  0  0  0  0  0
  -21.1113  -13.1260   22.2598 H   0  0  0  0  0  0
  -24.6534  -15.8354   20.4793 H   0  0  0  0  0  0
  -26.2568  -15.6003   19.9967 H   0  0  0  0  0  0
  -26.7126  -32.5542   23.1166 H   0  0  0  0  0  0
  -25.0028  -33.9797   25.0445 H   0  0  0  0  0  0
  -22.6965  -31.3117   21.4159 H   0  0  0  0  0  0
  -23.3749  -35.9640   23.3303 H   0  0  0  0  0  0
  -24.3574  -36.8943   22.2053 H   0  0  0  0  0  0
  -23.7237  -37.6514   23.6653 H   0  0  0  0  0  0
  -26.0554  -31.5952   20.6078 H   0  0  0  0  0  0
  -26.8240  -30.8736   21.9940 H   0  0  0  0  0  0
  -28.1033  -29.0620   21.1728 H   0  0  0  0  0  0
  -25.9856  -25.9851   18.9855 H   0  0  0  0  0  0
  -23.9633  -27.3222   19.0201 H   0  0  0  0  0  0
  -23.7280  -30.6154   19.4126 H   0  0  0  0  0  0
  -22.7367  -29.2612   19.8642 H   0  0  0  0  0  0
  -25.1279  -36.1968   25.0829 H   0  0  0  0  0  0
  -20.9952  -28.3251   24.1435 H   0  0  0  0  0  0
  -20.5666  -26.2294   23.3610 H   0  0  0  0  0  0
  -21.6634  -26.7458   22.1208 H   0  0  0  0  0  0
  -19.6920  -25.6302   21.1236 H   0  0  0  0  0  0
  -19.6684  -27.3199   20.6726 H   0  0  0  0  0  0
  -17.4186  -26.6663   21.4024 H   0  0  0  0  0  0
  -18.0325  -26.0057   22.9016 H   0  0  0  0  0  0
  -19.7933  -30.7217   24.2330 H   0  0  0  0  0  0
  -17.5026  -31.6281   24.5134 H   0  0  0  0  0  0
  -15.5353  -30.2997   23.7645 H   0  0  0  0  0  0
  -15.8668  -28.0825   22.7075 H   0  0  0  0  0  0
  -24.5931  -30.7039   25.7797 H   0  0  0  0  0  0
  -24.8918  -32.2853   26.4914 H   0  0  0  0  0  0
  -25.8095  -30.8875   27.0236 H   0  0  0  0  0  0
  -26.2852  -29.6808   24.1166 H   0  0  0  0  0  0
  -27.4045  -29.7268   25.4599 H   0  0  0  0  0  0
  -27.8715  -30.4333   23.9304 H   0  0  0  0  0  0
  -27.2671  -33.3609   26.2103 H   0  0  0  0  0  0
  -28.3873  -32.6887   25.0342 H   0  0  0  0  0  0
  -28.0712  -31.8420   26.5425 H   0  0  0  0  0  0
  -28.2586  -38.0112   24.7524 H   0  0  0  0  0  0
  -28.1090  -36.2644   24.6261 H   0  0  0  0  0  0
  -27.2297  -37.1440   25.8868 H   0  0  0  0  0  0
  -20.9313  -29.8777   21.6958 H   0  0  0  0  0  0
  -26.0184  -38.2875   24.1425 H   0  0  0  0  0  0
  -28.9520  -20.0525   19.1048 H   0  0  0  0  0  0
  -27.5598  -19.8084   20.1531 H   0  0  0  0  0  0
  -31.2990  -19.5347   20.9698 H   0  0  0  0  0  0
  -28.6525  -20.5517   22.0663 H   0  0  0  0  0  0
  -29.0628  -17.9046   22.2366 H   0  0  0  0  0  0
  -30.1777  -19.5219   23.8269 H   0  0  0  0  0  0
  -31.3559  -20.6761   23.2135 H   0  0  0  0  0  0
  -31.7781  -18.9749   23.3265 H   0  0  0  0  0  0
  -31.2970  -16.7877   22.3294 H   0  0  0  0  0  0
  -31.5075  -17.0397   20.6239 H   0  0  0  0  0  0
  -30.1376  -24.3534   19.8411 H   0  0  0  0  0  0
  -29.6491  -24.5398   21.5101 H   0  0  0  0  0  0
  -28.3670  -22.4874   19.6209 H   0  0  0  0  0  0
  -28.0414  -22.6666   21.3268 H   0  0  0  0  0  0
  -27.2761  -24.9292   20.7003 H   0  0  0  0  0  0
  -27.8811  -24.9134   19.0523 H   0  0  0  0  0  0
  -29.2064  -15.3473   21.5641 H   0  0  0  0  0  0
  -30.5348  -21.7018   20.0903 H   0  0  0  0  0  0
  -29.5917  -18.0224   19.4029 H   0  0  0  0  0  0
  -28.1956  -17.6725   20.1759 H   0  0  0  0  0  0
  1 25  1  0  0  0
  1 30  2  0  0  0
  1 80  1  0  0  0
  2  3  1  0  0  0
  2 25  1  0  0  0
  2 83  1  0  0  0
  2 84  1  0  0  0
  3  4  1  0  0  0
  3 85  1  0  0  0
  3 86  1  0  0  0
  4  5  1  0  0  0
  4 87  1  0  0  0
  4 88  1  0  0  0
  5  6  1  0  0  0
  5 26  1  0  0  0
  5 89  1  0  0  0
  6 25  1  0  0  0
  6 90  1  0  0  0
  6 91  1  0  0  0
  7  8  2  0  0  0
  7 26  1  0  0  0
  7 29  1  0  0  0
  8  9  1  0  0  0
  8 22  1  0  0  0
  9 10  1  0  0  0
  9 27  2  0  0  0
 10 11  2  0  0  0
 10 15  1  0  0  0
 11 12  1  0  0  0
 11 92  1  0  0  0
 12 13  2  0  0  0
 12 93  1  0  0  0
 13 14  1  0  0  0
 13 31  1  0  0  0
 14 15  2  0  0  0
 14 94  1  0  0  0
 15 95  1  0  0  0
 16 17  2  0  0  0
 16 21  1  0  0  0
 16 31  1  0  0  0
 17 18  1  0  0  0
 17 96  1  0  0  0
 18 19  2  0  0  0
 18 97  1  0  0  0
 19 20  1  0  0  0
 19 24  1  0  0  0
 20 21  2  0  0  0
 20 98  1  0  0  0
 21 23  1  0  0  0
 22 28  1  0  0  0
 22 32  2  0  0  0
 26 27  1  0  0  0
 28 99  1  0  0  0
 28100  1  0  0  0
 29101  1  0  0  0
 29102  1  0  0  0
 33 34  1  0  0  0
 33 66  1  0  0  0
 33 70  2  0  0  0
 34 36  1  0  0  0
 34 59  1  0  0  0
 34103  1  0  0  0
 35 44  2  0  0  0
 35 45  1  0  0  0
 35 68  1  0  0  0
 36 56  1  0  0  0
 36104  1  0  0  0
 37 39  1  0  0  0
 37 47  1  0  0  0
 37 66  1  0  0  0
 37105  1  0  0  0
 38 43  2  0  0  0
 38 46  1  0  0  0
 38 47  1  0  0  0
 39 64  1  0  0  0
 39 67  2  0  0  0
 40 52  1  0  0  0
 40 53  2  0  0  0
 40 58  1  0  0  0
 41106  1  0  0  0
 41107  1  0  0  0
 41108  1  0  0  0
 41 48  1  0  0  0
 42 43  1  0  0  0
 42 66  1  0  0  0
 42109  1  0  0  0
 42110  1  0  0  0
 43 44  1  0  0  0
 44111  1  0  0  0
 45 46  2  0  0  0
 45112  1  0  0  0
 46113  1  0  0  0
 47114  1  0  0  0
 47115  1  0  0  0
 48 56  1  0  0  0
 48 65  1  0  0  0
 48116  1  0  0  0
 49 50  1  0  0  0
 49 53  1  0  0  0
 49 64  1  0  0  0
 49117  1  0  0  0
 50 51  1  0  0  0
 50118  1  0  0  0
 50119  1  0  0  0
 51 52  1  0  0  0
 51120  1  0  0  0
 51121  1  0  0  0
 52122  1  0  0  0
 52123  1  0  0  0
 53 54  1  0  0  0
 54 55  2  0  0  0
 54124  1  0  0  0
 55 57  1  0  0  0
 55125  1  0  0  0
 56 69  2  0  0  0
 57 58  2  0  0  0
 57126  1  0  0  0
 58127  1  0  0  0
 59 60  1  0  0  0
 59 61  1  0  0  0
 59 62  1  0  0  0
 60128  1  0  0  0
 60129  1  0  0  0
 60130  1  0  0  0
 61131  1  0  0  0
 61132  1  0  0  0
 61133  1  0  0  0
 62134  1  0  0  0
 62135  1  0  0  0
 62136  1  0  0  0
 63 65  1  0  0  0
 63137  1  0  0  0
 63138  1  0  0  0
 63139  1  0  0  0
 64140  1  0  0  0
 65141  1  0  0  0
 68 79  1  0  0  0
 71 73  1  0  0  0
 71 82  1  0  0  0
 71142  1  0  0  0
 71143  1  0  0  0
 72 73  1  0  0  0
 72 74  1  0  0  0
 72 75  1  0  0  0
 72144  1  0  0  0
 73 81  1  0  0  0
 73145  1  0  0  0
 74 76  1  0  0  0
 74 82  1  0  0  0
 74146  1  0  0  0
 75147  1  0  0  0
 75148  1  0  0  0
 75149  1  0  0  0
 76 80  1  0  0  0
 76150  1  0  0  0
 76151  1  0  0  0
 77 78  1  0  0  0
 77 79  1  0  0  0
 77152  1  0  0  0
 77153  1  0  0  0
 78 81  1  0  0  0
 78154  1  0  0  0
 78155  1  0  0  0
 79156  1  0  0  0
 79157  1  0  0  0
 80158  1  0  0  0
 81159  1  0  0  0
 82160  1  0  0  0
 82161  1  0  0  0
M  CHG  1  82   1
M  ISO  4   1 100  68 101  79 101  80 100
M  END
> <chiral flag>
0

> <version>
0

> <s_m_source_file>
/data/baiqing/PycharmProjects/Reinvent-master-3.2/result/LINK_invent/BTK/process_docking_weight1_custom_sum_contain_oxygen_bond_distance_aromatic_linkinvent_7_9_3/rearranged_h_0136.sdf

> <i_m_source_file_index>
30

> <r_mmod_Potential_Energy-OPLS-2005>
-159.562957763672

> <r_mmod_Stretch_Energy-OPLS-2005>
43.0637321472168

> <r_mmod_Bend_Energy-OPLS-2005>
127.420433044434

> <r_mmod_Torsional_Energy-OPLS-2005>
293.339141845703

> <r_mmod_Improper_Torsional_Energy-OPLS-2005>
3.19993424415588

> <r_mmod_Van_der_Waal_Energy-OPLS-2005>
134.749725341797

> <r_mmod_Electrostatic_Energy-OPLS-2005>
-280.103607177734

> <r_mmod_Solvation_Energy-OPLS-2005>
-499.894989013672

> <b_mmod_Minimization_Converged-OPLS-2005>
0

> <r_mmod_RMS_Derivative-OPLS-2005>
1.42819690704346

$$$$
32
                    3D
 Structure written by MMmdl.
161170  0  0  1  0            999 V2000
  -30.5729  -14.6456   20.5232 C   0  0  0  0  0  0
  -30.4403  -12.4035   19.4529 C   0  0  0  0  0  0
  -29.5066  -12.5015   18.2260 C   0  0  0  0  0  0
  -28.0318  -12.3230   18.6423 C   0  0  0  0  0  0
  -27.6496  -13.1998   19.8626 C   0  0  2  0  0  0
  -28.6865  -13.0454   20.9937 C   0  0  0  0  0  0
  -25.2562  -13.8142   20.5639 C   0  0  0  0  0  0
  -24.1831  -13.0419   20.9195 C   0  0  0  0  0  0
  -24.6391  -11.6877   20.8746 C   0  0  0  0  0  0
  -23.9064  -10.4276   21.0423 C   0  0  0  0  0  0
  -24.3634   -9.4180   21.9184 C   0  0  0  0  0  0
  -23.6304   -8.2219   22.0756 C   0  0  0  0  0  0
  -22.4273   -8.0277   21.3551 C   0  0  0  0  0  0
  -21.9918   -9.0248   20.4637 C   0  0  0  0  0  0
  -22.7260  -10.2115   20.3043 C   0  0  0  0  0  0
  -21.6846   -6.0745   22.5274 C   0  0  0  0  0  0
  -21.4026   -6.5643   23.8212 C   0  0  0  0  0  0
  -21.3646   -5.6786   24.9169 C   0  0  0  0  0  0
  -21.6038   -4.3052   24.7204 C   0  0  0  0  0  0
  -21.8826   -3.8156   23.4322 C   0  0  0  0  0  0
  -21.9203   -4.6984   22.3388 C   0  0  0  0  0  0
  -22.7855  -13.5209   21.1834 C   0  0  0  0  0  0
  -22.1667   -4.2173   21.0970 F   0  0  0  0  0  0
  -21.5608   -3.4528   25.7711 F   0  0  0  0  0  0
  -29.9926  -13.4108   20.4324 N   0  0  0  0  0  0
  -26.2954  -12.9260   20.3275 N   0  0  0  0  0  0
  -25.9299  -11.6431   20.5757 N   0  0  0  0  0  0
  -22.0516  -12.8200   22.0393 N   0  0  0  0  0  0
  -25.4293  -15.1871   20.4014 N   0  0  0  0  0  0
  -31.7385  -14.8349   20.1590 O   0  0  0  0  0  0
  -21.6629   -6.8885   21.4235 O   0  0  0  0  0  0
  -22.3528  -14.5525   20.6701 O   0  0  0  0  0  0
  -24.6259  -31.8606   23.1948 C   0  0  0  0  0  0
  -25.9132  -32.4790   23.8286 C   0  0  1  0  0  0
  -27.2212  -27.3079   20.1383 C   0  0  0  0  0  0
  -25.5976  -33.8576   24.2233 N   0  0  0  0  0  0
  -23.4154  -30.4817   21.5363 C   0  0  2  0  0  0
  -24.8627  -28.9174   20.1168 C   0  0  0  0  0  0
  -22.7469  -29.4664   22.4922 C   0  0  0  0  0  0
  -18.0322  -28.1387   22.8510 C   0  0  0  0  0  0
  -24.1492  -36.7248   23.2630 C   0  0  0  0  0  0
  -25.9516  -30.7883   21.3612 C   0  0  0  0  0  0
  -26.0278  -29.4031   20.7253 C   0  0  0  0  0  0
  -27.2072  -28.6100   20.7277 C   0  0  0  0  0  0
  -26.0357  -26.8623   19.5121 C   0  0  0  0  0  0
  -24.8712  -27.6502   19.5044 C   0  0  0  0  0  0
  -23.6330  -29.8006   20.1567 C   0  0  0  0  0  0
  -25.4128  -36.3088   24.0325 C   0  0  1  0  0  0
  -20.5924  -28.3690   23.1295 C   0  0  2  0  0  0
  -20.6819  -26.9422   22.5383 C   0  0  0  0  0  0
  -19.5766  -26.6424   21.5203 C   0  0  0  0  0  0
  -18.1951  -26.7952   22.1634 C   0  0  0  0  0  0
  -19.1573  -28.8853   23.2909 C   0  0  0  0  0  0
  -18.9492  -30.1476   23.8893 C   0  0  0  0  0  0
  -17.6479  -30.6590   24.0567 C   0  0  0  0  0  0
  -25.9058  -34.9463   23.5059 C   0  0  0  0  0  0
  -16.5362  -29.9091   23.6338 C   0  0  0  0  0  0
  -16.7312  -28.6513   23.0370 C   0  0  0  0  0  0
  -26.4513  -31.6601   25.0633 C   0  0  0  0  0  0
  -25.3748  -31.3746   26.1367 C   0  0  0  0  0  0
  -27.0337  -30.3054   24.5996 C   0  0  0  0  0  0
  -27.6083  -32.4312   25.7411 C   0  0  0  0  0  0
  -27.5587  -37.1774   24.8454 C   0  0  0  0  0  0
  -21.4200  -29.3059   22.3660 N   0  0  0  0  0  0
  -26.4265  -37.3836   23.9450 N   0  0  0  0  0  0
  -24.6841  -31.0647   22.0877 N   0  0  0  0  0  0
  -23.4215  -28.8276   23.3029 O   0  0  0  0  0  0
  -28.3662  -26.5063   20.1322 O   0  0  0  0  0  0
  -26.5589  -34.8938   22.4600 O   0  0  0  0  0  0
  -23.5451  -32.1336   23.7353 O   0  0  0  0  0  0
  -28.7044  -22.8732   19.1329 C   0  0  0  0  0  0
  -28.4256  -24.2727   19.0531 C   0  0  0  0  0  0
  -28.5287  -24.3996   21.4414 C   0  0  0  0  0  0
  -28.7998  -22.9887   21.5376 C   0  0  0  0  0  0
  -28.9274  -22.1788   20.3567 C   0  0  0  0  0  0
  -28.3660  -25.0925   20.2091 C   0  0  0  0  0  0
  -29.0925  -22.4755   22.9035 C   0  0  0  0  0  0
  -27.9050  -21.7420   25.0915 C   0  0  0  0  0  0
  -28.4175  -23.1394   25.3383 C   0  0  0  0  0  0
  -28.0125  -22.7186   23.9334 C   0  0  0  0  0  0
  -28.8292  -18.1734   20.6297 C   0  0  0  0  0  0
  -28.8388  -19.6882   21.1849 C   0  0  0  0  0  0
  -29.9881  -17.1495   21.0517 C   0  0  0  0  0  0
  -29.3269  -20.7873   20.2810 N   0  0  0  0  0  0
  -29.7315  -15.6730   20.8734 N   0  0  0  0  0  0
  -30.1476  -21.8989   23.2047 O   0  0  0  0  0  0
  -31.4778  -12.5507   19.1501 H   0  0  0  0  0  0
  -30.3943  -11.4068   19.8929 H   0  0  0  0  0  0
  -29.7797  -11.7545   17.4790 H   0  0  0  0  0  0
  -29.6316  -13.4734   17.7442 H   0  0  0  0  0  0
  -27.8827  -11.2698   18.8868 H   0  0  0  0  0  0
  -27.3688  -12.5293   17.8014 H   0  0  0  0  0  0
  -27.6715  -14.2335   19.5163 H   0  0  0  0  0  0
  -28.7090  -12.0183   21.3573 H   0  0  0  0  0  0
  -28.4232  -13.6554   21.8572 H   0  0  0  0  0  0
  -25.2791   -9.5636   22.4733 H   0  0  0  0  0  0
  -24.0015   -7.4597   22.7461 H   0  0  0  0  0  0
  -21.0852   -8.8766   19.8932 H   0  0  0  0  0  0
  -22.3749  -10.9650   19.6127 H   0  0  0  0  0  0
  -21.2039   -7.6150   23.9730 H   0  0  0  0  0  0
  -21.1447   -6.0506   25.9074 H   0  0  0  0  0  0
  -22.0627   -2.7624   23.2804 H   0  0  0  0  0  0
  -22.4166  -11.9847   22.4728 H   0  0  0  0  0  0
  -21.1132  -13.1188   22.2628 H   0  0  0  0  0  0
  -24.6532  -15.8344   20.4844 H   0  0  0  0  0  0
  -26.2644  -15.6142   20.0213 H   0  0  0  0  0  0
  -26.7189  -32.5494   23.1022 H   0  0  0  0  0  0
  -25.0316  -33.9719   25.0518 H   0  0  0  0  0  0
  -22.7072  -31.2997   21.3922 H   0  0  0  0  0  0
  -23.3800  -35.9537   23.3256 H   0  0  0  0  0  0
  -24.3598  -36.8870   22.2049 H   0  0  0  0  0  0
  -23.7192  -37.6426   23.6635 H   0  0  0  0  0  0
  -26.0696  -31.5339   20.5764 H   0  0  0  0  0  0
  -26.8383  -30.8529   21.9803 H   0  0  0  0  0  0
  -28.1047  -28.9836   21.2047 H   0  0  0  0  0  0
  -26.0053  -25.8902   19.0370 H   0  0  0  0  0  0
  -23.9778  -27.2791   19.0157 H   0  0  0  0  0  0
  -23.7583  -30.5617   19.3864 H   0  0  0  0  0  0
  -22.7507  -29.2281   19.8623 H   0  0  0  0  0  0
  -25.1327  -36.1856   25.0817 H   0  0  0  0  0  0
  -21.0034  -28.3263   24.1422 H   0  0  0  0  0  0
  -20.5761  -26.2306   23.3595 H   0  0  0  0  0  0
  -21.6699  -26.7493   22.1160 H   0  0  0  0  0  0
  -19.6873  -25.6348   21.1223 H   0  0  0  0  0  0
  -19.6674  -27.3254   20.6739 H   0  0  0  0  0  0
  -17.4244  -26.6793   21.3994 H   0  0  0  0  0  0
  -18.0290  -26.0065   22.8993 H   0  0  0  0  0  0
  -19.7952  -30.7327   24.2244 H   0  0  0  0  0  0
  -17.5022  -31.6269   24.5189 H   0  0  0  0  0  0
  -15.5354  -30.2987   23.7636 H   0  0  0  0  0  0
  -15.8749  -28.0803   22.7077 H   0  0  0  0  0  0
  -24.5934  -30.7062   25.7694 H   0  0  0  0  0  0
  -24.8929  -32.2930   26.4734 H   0  0  0  0  0  0
  -25.8107  -30.8973   27.0153 H   0  0  0  0  0  0
  -26.2826  -29.6841   24.1084 H   0  0  0  0  0  0
  -27.4156  -29.7265   25.4419 H   0  0  0  0  0  0
  -27.8680  -30.4431   23.9105 H   0  0  0  0  0  0
  -27.2725  -33.3642   26.1957 H   0  0  0  0  0  0
  -28.3946  -32.6798   25.0262 H   0  0  0  0  0  0
  -28.0702  -31.8436   26.5359 H   0  0  0  0  0  0
  -28.2569  -38.0122   24.7681 H   0  0  0  0  0  0
  -28.1131  -36.2670   24.6082 H   0  0  0  0  0  0
  -27.2323  -37.1163   25.8856 H   0  0  0  0  0  0
  -20.9362  -29.8760   21.6866 H   0  0  0  0  0  0
  -26.0096  -38.2869   24.1577 H   0  0  0  0  0  0
  -28.7841  -22.3325   18.1998 H   0  0  0  0  0  0
  -28.3184  -24.7233   18.0770 H   0  0  0  0  0  0
  -28.5260  -24.9863   22.3434 H   0  0  0  0  0  0
  -26.9111  -21.4914   25.4634 H   0  0  0  0  0  0
  -28.6278  -20.9323   25.1399 H   0  0  0  0  0  0
  -29.4797  -23.2545   25.5550 H   0  0  0  0  0  0
  -27.7658  -23.8369   25.8615 H   0  0  0  0  0  0
  -27.0830  -23.1359   23.5465 H   0  0  0  0  0  0
  -28.7057  -18.1692   19.5442 H   0  0  0  0  0  0
  -27.8923  -17.7351   20.9912 H   0  0  0  0  0  0
  -29.3734  -19.7092   22.1407 H   0  0  0  0  0  0
  -27.8031  -19.9390   21.4432 H   0  0  0  0  0  0
  -30.1845  -17.2855   22.1156 H   0  0  0  0  0  0
  -30.9157  -17.4142   20.5454 H   0  0  0  0  0  0
  -30.2995  -20.6758   19.9739 H   0  0  0  0  0  0
  -28.8028  -15.3626   21.1210 H   0  0  0  0  0  0
  1 25  1  0  0  0
  1 30  2  0  0  0
  1 85  1  0  0  0
  2  3  1  0  0  0
  2 25  1  0  0  0
  2 87  1  0  0  0
  2 88  1  0  0  0
  3  4  1  0  0  0
  3 89  1  0  0  0
  3 90  1  0  0  0
  4  5  1  0  0  0
  4 91  1  0  0  0
  4 92  1  0  0  0
  5  6  1  0  0  0
  5 26  1  0  0  0
  5 93  1  0  0  0
  6 25  1  0  0  0
  6 94  1  0  0  0
  6 95  1  0  0  0
  7  8  2  0  0  0
  7 26  1  0  0  0
  7 29  1  0  0  0
  8  9  1  0  0  0
  8 22  1  0  0  0
  9 10  1  0  0  0
  9 27  2  0  0  0
 10 11  2  0  0  0
 10 15  1  0  0  0
 11 12  1  0  0  0
 11 96  1  0  0  0
 12 13  2  0  0  0
 12 97  1  0  0  0
 13 14  1  0  0  0
 13 31  1  0  0  0
 14 15  2  0  0  0
 14 98  1  0  0  0
 15 99  1  0  0  0
 16 17  2  0  0  0
 16 21  1  0  0  0
 16 31  1  0  0  0
 17 18  1  0  0  0
 17100  1  0  0  0
 18 19  2  0  0  0
 18101  1  0  0  0
 19 20  1  0  0  0
 19 24  1  0  0  0
 20 21  2  0  0  0
 20102  1  0  0  0
 21 23  1  0  0  0
 22 28  1  0  0  0
 22 32  2  0  0  0
 26 27  1  0  0  0
 28103  1  0  0  0
 28104  1  0  0  0
 29105  1  0  0  0
 29106  1  0  0  0
 33 34  1  0  0  0
 33 66  1  0  0  0
 33 70  2  0  0  0
 34 36  1  0  0  0
 34 59  1  0  0  0
 34107  1  0  0  0
 35 44  2  0  0  0
 35 45  1  0  0  0
 35 68  1  0  0  0
 36 56  1  0  0  0
 36108  1  0  0  0
 37 39  1  0  0  0
 37 47  1  0  0  0
 37 66  1  0  0  0
 37109  1  0  0  0
 38 43  2  0  0  0
 38 46  1  0  0  0
 38 47  1  0  0  0
 39 64  1  0  0  0
 39 67  2  0  0  0
 40 52  1  0  0  0
 40 53  2  0  0  0
 40 58  1  0  0  0
 41110  1  0  0  0
 41111  1  0  0  0
 41112  1  0  0  0
 41 48  1  0  0  0
 42 43  1  0  0  0
 42 66  1  0  0  0
 42113  1  0  0  0
 42114  1  0  0  0
 43 44  1  0  0  0
 44115  1  0  0  0
 45 46  2  0  0  0
 45116  1  0  0  0
 46117  1  0  0  0
 47118  1  0  0  0
 47119  1  0  0  0
 48 56  1  0  0  0
 48 65  1  0  0  0
 48120  1  0  0  0
 49 50  1  0  0  0
 49 53  1  0  0  0
 49 64  1  0  0  0
 49121  1  0  0  0
 50 51  1  0  0  0
 50122  1  0  0  0
 50123  1  0  0  0
 51 52  1  0  0  0
 51124  1  0  0  0
 51125  1  0  0  0
 52126  1  0  0  0
 52127  1  0  0  0
 53 54  1  0  0  0
 54 55  2  0  0  0
 54128  1  0  0  0
 55 57  1  0  0  0
 55129  1  0  0  0
 56 69  2  0  0  0
 57 58  2  0  0  0
 57130  1  0  0  0
 58131  1  0  0  0
 59 60  1  0  0  0
 59 61  1  0  0  0
 59 62  1  0  0  0
 60132  1  0  0  0
 60133  1  0  0  0
 60134  1  0  0  0
 61135  1  0  0  0
 61136  1  0  0  0
 61137  1  0  0  0
 62138  1  0  0  0
 62139  1  0  0  0
 62140  1  0  0  0
 63 65  1  0  0  0
 63141  1  0  0  0
 63142  1  0  0  0
 63143  1  0  0  0
 64144  1  0  0  0
 65145  1  0  0  0
 68 76  1  0  0  0
 71 72  2  0  0  0
 71 75  1  0  0  0
 71146  1  0  0  0
 72 76  1  0  0  0
 72147  1  0  0  0
 73 74  1  0  0  0
 73 76  2  0  0  0
 73148  1  0  0  0
 74 75  2  0  0  0
 74 77  1  0  0  0
 75 84  1  0  0  0
 77 86  2  0  0  0
 77 80  1  0  0  0
 78 79  1  0  0  0
 78 80  1  0  0  0
 78149  1  0  0  0
 78150  1  0  0  0
 79 80  1  0  0  0
 79151  1  0  0  0
 79152  1  0  0  0
 80153  1  0  0  0
 81 82  1  0  0  0
 81 83  1  0  0  0
 81154  1  0  0  0
 81155  1  0  0  0
 82 84  1  0  0  0
 82156  1  0  0  0
 82157  1  0  0  0
 83 85  1  0  0  0
 83158  1  0  0  0
 83159  1  0  0  0
 84160  1  0  0  0
 85161  1  0  0  0
M  ISO  4   1 100  68 101  76 101  85 100
M  END
> <chiral flag>
0

> <version>
0

> <s_m_source_file>
/data/baiqing/PycharmProjects/Reinvent-master-3.2/result/LINK_invent/BTK/process_docking_weight1_custom_sum_contain_oxygen_bond_distance_aromatic_linkinvent_7_9_3/rearranged_h_0136.sdf

> <i_m_source_file_index>
31

> <r_mmod_Potential_Energy-OPLS-2005>
186.905319213867

> <r_mmod_Stretch_Energy-OPLS-2005>
86.5651168823242

> <r_mmod_Bend_Energy-OPLS-2005>
149.284042358398

> <r_mmod_Torsional_Energy-OPLS-2005>
301.396057128906

> <r_mmod_Improper_Torsional_Energy-OPLS-2005>
8.4376335144043

> <r_mmod_Van_der_Waal_Energy-OPLS-2005>
137.370346069336

> <r_mmod_Electrostatic_Energy-OPLS-2005>
-320.323608398438

> <r_mmod_Solvation_Energy-OPLS-2005>
-226.508911132812

> <b_mmod_Minimization_Converged-OPLS-2005>
0

> <r_mmod_RMS_Derivative-OPLS-2005>
7.6592059135437

$$$$
33
                    3D
 Structure written by MMmdl.
156164  0  0  1  0            999 V2000
  -30.6472  -14.5873   20.5447 C   0  0  0  0  0  0
  -30.4236  -12.3649   19.4679 C   0  0  0  0  0  0
  -29.5090  -12.5279   18.2346 C   0  0  0  0  0  0
  -28.0271  -12.3726   18.6338 C   0  0  0  0  0  0
  -27.6558  -13.2201   19.8810 C   0  0  2  0  0  0
  -28.6919  -13.0431   21.0134 C   0  0  0  0  0  0
  -25.2530  -13.8171   20.5667 C   0  0  0  0  0  0
  -24.1807  -13.0432   20.9178 C   0  0  0  0  0  0
  -24.6374  -11.6912   20.8732 C   0  0  0  0  0  0
  -23.9048  -10.4293   21.0413 C   0  0  0  0  0  0
  -24.3611   -9.4207   21.9179 C   0  0  0  0  0  0
  -23.6294   -8.2239   22.0749 C   0  0  0  0  0  0
  -22.4266   -8.0280   21.3544 C   0  0  0  0  0  0
  -21.9900   -9.0250   20.4638 C   0  0  0  0  0  0
  -22.7231  -10.2130   20.3052 C   0  0  0  0  0  0
  -21.6853   -6.0731   22.5281 C   0  0  0  0  0  0
  -21.4014   -6.5637   23.8212 C   0  0  0  0  0  0
  -21.3667   -5.6790   24.9172 C   0  0  0  0  0  0
  -21.6038   -4.3053   24.7223 C   0  0  0  0  0  0
  -21.8826   -3.8145   23.4347 C   0  0  0  0  0  0
  -21.9187   -4.6960   22.3400 C   0  0  0  0  0  0
  -22.7819  -13.5232   21.1840 C   0  0  0  0  0  0
  -22.1657   -4.2148   21.0974 F   0  0  0  0  0  0
  -21.5626   -3.4536   25.7739 F   0  0  0  0  0  0
  -30.0150  -13.3742   20.4659 N   0  0  0  0  0  0
  -26.2980  -12.9368   20.3374 N   0  0  0  0  0  0
  -25.9306  -11.6511   20.5766 N   0  0  0  0  0  0
  -22.0477  -12.8216   22.0408 N   0  0  0  0  0  0
  -25.4218  -15.1896   20.4052 N   0  0  0  0  0  0
  -31.7858  -14.7453   20.0935 O   0  0  0  0  0  0
  -21.6634   -6.8879   21.4240 O   0  0  0  0  0  0
  -22.3503  -14.5543   20.6710 O   0  0  0  0  0  0
  -24.6207  -31.8601   23.1976 C   0  0  0  0  0  0
  -25.9067  -32.4765   23.8301 C   0  0  1  0  0  0
  -27.2248  -27.3366   20.1181 C   0  0  0  0  0  0
  -25.5898  -33.8562   24.2245 N   0  0  0  0  0  0
  -23.4136  -30.4814   21.5380 C   0  0  2  0  0  0
  -24.8598  -28.9321   20.1016 C   0  0  0  0  0  0
  -22.7467  -29.4607   22.4892 C   0  0  0  0  0  0
  -18.0303  -28.1367   22.8475 C   0  0  0  0  0  0
  -24.1482  -36.7274   23.2656 C   0  0  0  0  0  0
  -25.9482  -30.7980   21.3595 C   0  0  0  0  0  0
  -26.0217  -29.4241   20.7090 C   0  0  0  0  0  0
  -27.2003  -28.6311   20.7134 C   0  0  0  0  0  0
  -26.0464  -26.8896   19.4807 C   0  0  0  0  0  0
  -24.8736  -27.6740   19.4766 C   0  0  0  0  0  0
  -23.6251  -29.8078   20.1547 C   0  0  0  0  0  0
  -25.4096  -36.3065   24.0351 C   0  0  1  0  0  0
  -20.5903  -28.3641   23.1278 C   0  0  2  0  0  0
  -20.6773  -26.9354   22.5420 C   0  0  0  0  0  0
  -19.5758  -26.6360   21.5215 C   0  0  0  0  0  0
  -18.1940  -26.7929   22.1622 C   0  0  0  0  0  0
  -19.1564  -28.8826   23.2884 C   0  0  0  0  0  0
  -18.9497  -30.1448   23.8856 C   0  0  0  0  0  0
  -17.6500  -30.6557   24.0548 C   0  0  0  0  0  0
  -25.9046  -34.9442   23.5109 C   0  0  0  0  0  0
  -16.5392  -29.9047   23.6320 C   0  0  0  0  0  0
  -16.7306  -28.6498   23.0293 C   0  0  0  0  0  0
  -26.4475  -31.6582   25.0677 C   0  0  0  0  0  0
  -25.3718  -31.3713   26.1426 C   0  0  0  0  0  0
  -27.0324  -30.3029   24.6070 C   0  0  0  0  0  0
  -27.6031  -32.4323   25.7444 C   0  0  0  0  0  0
  -27.5568  -37.1776   24.8470 C   0  0  0  0  0  0
  -21.4194  -29.3008   22.3671 N   0  0  0  0  0  0
  -26.4276  -37.3750   23.9435 N   0  0  0  0  0  0
  -24.6795  -31.0653   22.0885 N   0  0  0  0  0  0
  -23.4221  -28.8160   23.2975 O   0  0  0  0  0  0
  -28.3722  -26.5493   20.2296 O   0  0  0  0  0  0
  -26.5626  -34.8919   22.4672 O   0  0  0  0  0  0
  -23.5391  -32.1383   23.7334 O   0  0  0  0  0  0
  -28.3417  -22.2621   23.2381 C   0  0  0  0  0  0
  -27.9276  -23.2887   22.3766 C   0  0  0  0  0  0
  -28.6183  -21.9248   20.4901 C   0  0  0  0  0  0
  -28.9269  -21.0691   22.7547 C   0  0  0  0  0  0
  -29.0187  -20.8315   21.3501 C   0  0  0  0  0  0
  -28.0918  -23.1693   20.9888 C   0  0  0  0  0  0
  -29.5045  -20.1361   23.8048 C   0  0  0  0  0  0
  -29.5161  -18.2396   21.4031 C   0  0  0  0  0  0
  -30.1023  -17.0791   20.5017 C   0  0  0  0  0  0
  -28.4585  -25.2167   19.6932 C   0  0  0  0  0  0
  -29.5150  -19.6049   20.7806 N   0  0  0  0  0  0
  -29.8975  -15.6584   20.9414 N   0  0  0  0  0  0
  -27.5815  -24.2189   20.2125 O   0  0  0  0  0  0
  -31.4706  -12.4610   19.1783 H   0  0  0  0  0  0
  -30.3216  -11.3613   19.8851 H   0  0  0  0  0  0
  -29.7746  -11.7983   17.4669 H   0  0  0  0  0  0
  -29.6647  -13.5131   17.7891 H   0  0  0  0  0  0
  -27.8459  -11.3162   18.8327 H   0  0  0  0  0  0
  -27.3828  -12.6385   17.7938 H   0  0  0  0  0  0
  -27.6848  -14.2646   19.5715 H   0  0  0  0  0  0
  -28.6821  -12.0130   21.3740 H   0  0  0  0  0  0
  -28.4395  -13.6627   21.8745 H   0  0  0  0  0  0
  -25.2761   -9.5677   22.4750 H   0  0  0  0  0  0
  -24.0004   -7.4624   22.7466 H   0  0  0  0  0  0
  -21.0833   -8.8775   19.8938 H   0  0  0  0  0  0
  -22.3703  -10.9669   19.6161 H   0  0  0  0  0  0
  -21.2021   -7.6150   23.9719 H   0  0  0  0  0  0
  -21.1475   -6.0518   25.9078 H   0  0  0  0  0  0
  -22.0599   -2.7606   23.2844 H   0  0  0  0  0  0
  -22.4106  -11.9888   22.4806 H   0  0  0  0  0  0
  -21.1087  -13.1227   22.2629 H   0  0  0  0  0  0
  -24.6481  -15.8408   20.4897 H   0  0  0  0  0  0
  -26.2725  -15.6259   20.0719 H   0  0  0  0  0  0
  -26.7127  -32.5451   23.1046 H   0  0  0  0  0  0
  -25.0037  -33.9694   25.0389 H   0  0  0  0  0  0
  -22.7076  -31.3001   21.3896 H   0  0  0  0  0  0
  -23.3750  -35.9616   23.3331 H   0  0  0  0  0  0
  -24.3604  -36.8891   22.2090 H   0  0  0  0  0  0
  -23.7242  -37.6490   23.6665 H   0  0  0  0  0  0
  -26.0787  -31.5552   20.5830 H   0  0  0  0  0  0
  -26.8306  -30.8524   21.9846 H   0  0  0  0  0  0
  -28.0882  -28.9957   21.2071 H   0  0  0  0  0  0
  -26.0095  -25.9204   19.0057 H   0  0  0  0  0  0
  -23.9822  -27.2952   18.9966 H   0  0  0  0  0  0
  -23.7363  -30.5790   19.3919 H   0  0  0  0  0  0
  -22.7458  -29.2321   19.8585 H   0  0  0  0  0  0
  -25.1262  -36.1923   25.0840 H   0  0  0  0  0  0
  -21.0032  -28.3247   24.1386 H   0  0  0  0  0  0
  -20.5640  -26.2238   23.3620 H   0  0  0  0  0  0
  -21.6621  -26.7327   22.1217 H   0  0  0  0  0  0
  -19.6886  -25.6281   21.1220 H   0  0  0  0  0  0
  -19.6718  -27.3178   20.6764 H   0  0  0  0  0  0
  -17.4200  -26.6708   21.4041 H   0  0  0  0  0  0
  -18.0302  -26.0075   22.9016 H   0  0  0  0  0  0
  -19.7989  -30.7277   24.2167 H   0  0  0  0  0  0
  -17.5061  -31.6221   24.5168 H   0  0  0  0  0  0
  -15.5382  -30.2913   23.7668 H   0  0  0  0  0  0
  -15.8740  -28.0821   22.6916 H   0  0  0  0  0  0
  -24.5902  -30.7029   25.7782 H   0  0  0  0  0  0
  -24.8868  -32.2874   26.4836 H   0  0  0  0  0  0
  -25.8068  -30.8945   27.0215 H   0  0  0  0  0  0
  -26.2888  -29.6777   24.1130 H   0  0  0  0  0  0
  -27.4145  -29.7281   25.4520 H   0  0  0  0  0  0
  -27.8667  -30.4368   23.9173 H   0  0  0  0  0  0
  -27.2637  -33.3638   26.1960 H   0  0  0  0  0  0
  -28.3833  -32.6868   25.0258 H   0  0  0  0  0  0
  -28.0661  -31.8482   26.5404 H   0  0  0  0  0  0
  -28.2540  -38.0107   24.7507 H   0  0  0  0  0  0
  -28.1101  -36.2647   24.6267 H   0  0  0  0  0  0
  -27.2315  -37.1366   25.8877 H   0  0  0  0  0  0
  -20.9362  -29.8772   21.6924 H   0  0  0  0  0  0
  -26.0184  -38.2836   24.1452 H   0  0  0  0  0  0
  -28.2284  -22.4180   24.3021 H   0  0  0  0  0  0
  -27.4830  -24.1853   22.7888 H   0  0  0  0  0  0
  -28.7018  -21.8080   19.4195 H   0  0  0  0  0  0
  -29.5366  -20.6149   24.7846 H   0  0  0  0  0  0
  -30.5365  -19.8900   23.5520 H   0  0  0  0  0  0
  -28.9152  -19.2248   23.9051 H   0  0  0  0  0  0
  -30.1210  -18.2304   22.3072 H   0  0  0  0  0  0
  -28.4941  -18.0025   21.7030 H   0  0  0  0  0  0
  -31.1702  -17.2618   20.3484 H   0  0  0  0  0  0
  -29.6437  -17.1473   19.5150 H   0  0  0  0  0  0
  -28.3144  -25.2658   18.6127 H   0  0  0  0  0  0
  -29.4883  -24.8915   19.8554 H   0  0  0  0  0  0
  -29.5959  -19.5966   19.7666 H   0  0  0  0  0  0
  -29.0058  -15.4348   21.3597 H   0  0  0  0  0  0
  1 25  1  0  0  0
  1 30  2  0  0  0
  1 82  1  0  0  0
  2  3  1  0  0  0
  2 25  1  0  0  0
  2 84  1  0  0  0
  2 85  1  0  0  0
  3  4  1  0  0  0
  3 86  1  0  0  0
  3 87  1  0  0  0
  4  5  1  0  0  0
  4 88  1  0  0  0
  4 89  1  0  0  0
  5  6  1  0  0  0
  5 26  1  0  0  0
  5 90  1  0  0  0
  6 25  1  0  0  0
  6 91  1  0  0  0
  6 92  1  0  0  0
  7  8  2  0  0  0
  7 26  1  0  0  0
  7 29  1  0  0  0
  8  9  1  0  0  0
  8 22  1  0  0  0
  9 10  1  0  0  0
  9 27  2  0  0  0
 10 11  2  0  0  0
 10 15  1  0  0  0
 11 12  1  0  0  0
 11 93  1  0  0  0
 12 13  2  0  0  0
 12 94  1  0  0  0
 13 14  1  0  0  0
 13 31  1  0  0  0
 14 15  2  0  0  0
 14 95  1  0  0  0
 15 96  1  0  0  0
 16 17  2  0  0  0
 16 21  1  0  0  0
 16 31  1  0  0  0
 17 18  1  0  0  0
 17 97  1  0  0  0
 18 19  2  0  0  0
 18 98  1  0  0  0
 19 20  1  0  0  0
 19 24  1  0  0  0
 20 21  2  0  0  0
 20 99  1  0  0  0
 21 23  1  0  0  0
 22 28  1  0  0  0
 22 32  2  0  0  0
 26 27  1  0  0  0
 28100  1  0  0  0
 28101  1  0  0  0
 29102  1  0  0  0
 29103  1  0  0  0
 33 34  1  0  0  0
 33 66  1  0  0  0
 33 70  2  0  0  0
 34 36  1  0  0  0
 34 59  1  0  0  0
 34104  1  0  0  0
 35 44  2  0  0  0
 35 45  1  0  0  0
 35 68  1  0  0  0
 36 56  1  0  0  0
 36105  1  0  0  0
 37 39  1  0  0  0
 37 47  1  0  0  0
 37 66  1  0  0  0
 37106  1  0  0  0
 38 43  2  0  0  0
 38 46  1  0  0  0
 38 47  1  0  0  0
 39 64  1  0  0  0
 39 67  2  0  0  0
 40 52  1  0  0  0
 40 53  2  0  0  0
 40 58  1  0  0  0
 41107  1  0  0  0
 41108  1  0  0  0
 41109  1  0  0  0
 41 48  1  0  0  0
 42 43  1  0  0  0
 42 66  1  0  0  0
 42110  1  0  0  0
 42111  1  0  0  0
 43 44  1  0  0  0
 44112  1  0  0  0
 45 46  2  0  0  0
 45113  1  0  0  0
 46114  1  0  0  0
 47115  1  0  0  0
 47116  1  0  0  0
 48 56  1  0  0  0
 48 65  1  0  0  0
 48117  1  0  0  0
 49 50  1  0  0  0
 49 53  1  0  0  0
 49 64  1  0  0  0
 49118  1  0  0  0
 50 51  1  0  0  0
 50119  1  0  0  0
 50120  1  0  0  0
 51 52  1  0  0  0
 51121  1  0  0  0
 51122  1  0  0  0
 52123  1  0  0  0
 52124  1  0  0  0
 53 54  1  0  0  0
 54 55  2  0  0  0
 54125  1  0  0  0
 55 57  1  0  0  0
 55126  1  0  0  0
 56 69  2  0  0  0
 57 58  2  0  0  0
 57127  1  0  0  0
 58128  1  0  0  0
 59 60  1  0  0  0
 59 61  1  0  0  0
 59 62  1  0  0  0
 60129  1  0  0  0
 60130  1  0  0  0
 60131  1  0  0  0
 61132  1  0  0  0
 61133  1  0  0  0
 61134  1  0  0  0
 62135  1  0  0  0
 62136  1  0  0  0
 62137  1  0  0  0
 63 65  1  0  0  0
 63138  1  0  0  0
 63139  1  0  0  0
 63140  1  0  0  0
 64141  1  0  0  0
 65142  1  0  0  0
 68 80  1  0  0  0
 71 72  2  0  0  0
 71 74  1  0  0  0
 71143  1  0  0  0
 72 76  1  0  0  0
 72144  1  0  0  0
 73 75  1  0  0  0
 73 76  2  0  0  0
 73145  1  0  0  0
 74 75  2  0  0  0
 74 77  1  0  0  0
 75 81  1  0  0  0
 76 83  1  0  0  0
 77146  1  0  0  0
 77147  1  0  0  0
 77148  1  0  0  0
 78 79  1  0  0  0
 78 81  1  0  0  0
 78149  1  0  0  0
 78150  1  0  0  0
 79 82  1  0  0  0
 79151  1  0  0  0
 79152  1  0  0  0
 80 83  1  0  0  0
 80153  1  0  0  0
 80154  1  0  0  0
 81155  1  0  0  0
 82156  1  0  0  0
M  ISO  4   1 100  68 101  80 101  82 100
M  END
> <chiral flag>
0

> <version>
0

> <s_m_source_file>
/data/baiqing/PycharmProjects/Reinvent-master-3.2/result/LINK_invent/BTK/process_docking_weight1_custom_sum_contain_oxygen_bond_distance_aromatic_linkinvent_7_9_3/rearranged_h_0136.sdf

> <i_m_source_file_index>
32

> <r_mmod_Potential_Energy-OPLS-2005>
-21.0001277923584

> <r_mmod_Stretch_Energy-OPLS-2005>
72.9815521240234

> <r_mmod_Bend_Energy-OPLS-2005>
153.127319335938

> <r_mmod_Torsional_Energy-OPLS-2005>
223.815475463867

> <r_mmod_Improper_Torsional_Energy-OPLS-2005>
7.5761890411377

> <r_mmod_Van_der_Waal_Energy-OPLS-2005>
148.135604858398

> <r_mmod_Electrostatic_Energy-OPLS-2005>
-431.879730224609

> <r_mmod_Solvation_Energy-OPLS-2005>
-231.550064086914

> <b_mmod_Minimization_Converged-OPLS-2005>
0

> <r_mmod_RMS_Derivative-OPLS-2005>
4.10130310058594

$$$$
34
                    3D
 Structure written by MMmdl.
163172  0  0  1  0            999 V2000
  -30.7125  -14.5937   20.5119 C   0  0  0  0  0  0
  -30.4111  -12.3732   19.4528 C   0  0  0  0  0  0
  -29.4938  -12.4953   18.2198 C   0  0  0  0  0  0
  -28.0200  -12.3402   18.6365 C   0  0  0  0  0  0
  -27.6465  -13.2273   19.8550 C   0  0  2  0  0  0
  -28.6925  -13.1249   20.9876 C   0  0  0  0  0  0
  -25.2522  -13.8201   20.5698 C   0  0  0  0  0  0
  -24.1801  -13.0450   20.9191 C   0  0  0  0  0  0
  -24.6389  -11.6927   20.8740 C   0  0  0  0  0  0
  -23.9065  -10.4298   21.0405 C   0  0  0  0  0  0
  -24.3618   -9.4213   21.9179 C   0  0  0  0  0  0
  -23.6295   -8.2248   22.0753 C   0  0  0  0  0  0
  -22.4277   -8.0279   21.3543 C   0  0  0  0  0  0
  -21.9919   -9.0248   20.4642 C   0  0  0  0  0  0
  -22.7244  -10.2129   20.3049 C   0  0  0  0  0  0
  -21.6854   -6.0735   22.5280 C   0  0  0  0  0  0
  -21.4014   -6.5638   23.8211 C   0  0  0  0  0  0
  -21.3659   -5.6792   24.9173 C   0  0  0  0  0  0
  -21.6047   -4.3056   24.7226 C   0  0  0  0  0  0
  -21.8813   -3.8145   23.4347 C   0  0  0  0  0  0
  -21.9192   -4.6963   22.3404 C   0  0  0  0  0  0
  -22.7822  -13.5230   21.1865 C   0  0  0  0  0  0
  -22.1658   -4.2147   21.0984 F   0  0  0  0  0  0
  -21.5634   -3.4544   25.7740 F   0  0  0  0  0  0
  -30.0079  -13.4253   20.4087 N   0  0  0  0  0  0
  -26.2958  -12.9409   20.3319 N   0  0  0  0  0  0
  -25.9325  -11.6550   20.5773 N   0  0  0  0  0  0
  -22.0475  -12.8202   22.0415 N   0  0  0  0  0  0
  -25.4230  -15.1926   20.4122 N   0  0  0  0  0  0
  -31.8858  -14.6554   20.1413 O   0  0  0  0  0  0
  -21.6644   -6.8875   21.4239 O   0  0  0  0  0  0
  -22.3502  -14.5540   20.6723 O   0  0  0  0  0  0
  -24.6261  -31.8628   23.2085 C   0  0  0  0  0  0
  -25.9111  -32.4807   23.8383 C   0  0  1  0  0  0
  -27.2100  -27.3248   20.1000 C   0  0  0  0  0  0
  -25.5938  -33.8606   24.2305 N   0  0  0  0  0  0
  -23.4172  -30.4932   21.5518 C   0  0  2  0  0  0
  -24.8602  -28.9640   20.1092 C   0  0  0  0  0  0
  -22.7473  -29.4639   22.4943 C   0  0  0  0  0  0
  -18.0278  -28.1380   22.8495 C   0  0  0  0  0  0
  -24.1488  -36.7281   23.2639 C   0  0  0  0  0  0
  -25.9623  -30.7952   21.3814 C   0  0  0  0  0  0
  -26.0334  -29.4264   20.7191 C   0  0  0  0  0  0
  -27.2100  -28.6163   20.7139 C   0  0  0  0  0  0
  -26.0107  -26.9398   19.4442 C   0  0  0  0  0  0
  -24.8508  -27.7241   19.4660 C   0  0  0  0  0  0
  -23.6291  -29.8402   20.1638 C   0  0  0  0  0  0
  -25.4116  -36.3089   24.0330 C   0  0  1  0  0  0
  -20.5886  -28.3672   23.1289 C   0  0  2  0  0  0
  -20.6779  -26.9397   22.5400 C   0  0  0  0  0  0
  -19.5744  -26.6367   21.5217 C   0  0  0  0  0  0
  -18.1918  -26.7921   22.1629 C   0  0  0  0  0  0
  -19.1540  -28.8841   23.2886 C   0  0  0  0  0  0
  -18.9469  -30.1456   23.8888 C   0  0  0  0  0  0
  -17.6470  -30.6590   24.0562 C   0  0  0  0  0  0
  -25.9055  -34.9462   23.5109 C   0  0  0  0  0  0
  -16.5357  -29.9084   23.6350 C   0  0  0  0  0  0
  -16.7267  -28.6505   23.0362 C   0  0  0  0  0  0
  -26.4504  -31.6620   25.0746 C   0  0  0  0  0  0
  -25.3738  -31.3734   26.1471 C   0  0  0  0  0  0
  -27.0379  -30.3065   24.6174 C   0  0  0  0  0  0
  -27.6044  -32.4372   25.7524 C   0  0  0  0  0  0
  -27.5570  -37.1805   24.8471 C   0  0  0  0  0  0
  -21.4184  -29.3056   22.3704 N   0  0  0  0  0  0
  -26.4291  -37.3783   23.9409 N   0  0  0  0  0  0
  -24.6880  -31.0646   22.1044 N   0  0  0  0  0  0
  -23.4214  -28.8143   23.2978 O   0  0  0  0  0  0
  -28.3010  -26.4336   20.1700 O   0  0  0  0  0  0
  -26.5603  -34.8921   22.4661 O   0  0  0  0  0  0
  -23.5426  -32.1411   23.7417 O   0  0  0  0  0  0
  -29.9558  -21.7042   19.3435 C   0  0  0  0  0  0
  -29.5004  -21.9719   21.6898 C   0  0  0  0  0  0
  -29.3984  -22.9881   19.0939 C   0  0  0  0  0  0
  -28.9364  -23.2576   21.4385 C   0  0  0  0  0  0
  -30.0456  -21.1588   20.6532 C   0  0  0  0  0  0
  -28.8780  -23.8022   20.1321 C   0  0  0  0  0  0
  -32.0886  -19.7433   20.0059 C   0  0  0  0  0  0
  -33.2730  -19.2233   20.8394 C   0  0  0  0  0  0
  -31.5576  -19.9398   22.3168 C   0  0  0  0  0  0
  -30.8500  -19.8241   20.9390 C   0  0  1  0  0  0
  -27.9967  -25.0408   19.7789 C   0  0  0  0  0  0
  -29.9880  -18.4657   20.8383 C   0  0  0  0  0  0
  -30.7616  -17.0769   21.0017 C   0  0  0  0  0  0
  -30.0650  -15.7479   20.8668 N   0  0  0  0  0  0
  -32.8225  -19.1932   22.2393 N   0  3  0  0  0  0
  -31.4573  -12.4500   19.1525 H   0  0  0  0  0  0
  -30.3089  -11.3883   19.9104 H   0  0  0  0  0  0
  -29.7538  -11.7391   17.4780 H   0  0  0  0  0  0
  -29.6433  -13.4628   17.7382 H   0  0  0  0  0  0
  -27.8584  -11.2898   18.8799 H   0  0  0  0  0  0
  -27.3628  -12.5592   17.7942 H   0  0  0  0  0  0
  -27.6555  -14.2566   19.4949 H   0  0  0  0  0  0
  -28.6950  -12.1249   21.4231 H   0  0  0  0  0  0
  -28.4494  -13.8105   21.8010 H   0  0  0  0  0  0
  -25.2764   -9.5692   22.4756 H   0  0  0  0  0  0
  -24.0006   -7.4642   22.7478 H   0  0  0  0  0  0
  -21.0853   -8.8754   19.8945 H   0  0  0  0  0  0
  -22.3698  -10.9660   19.6151 H   0  0  0  0  0  0
  -21.1998   -7.6144   23.9711 H   0  0  0  0  0  0
  -21.1492   -6.0526   25.9075 H   0  0  0  0  0  0
  -22.0594   -2.7609   23.2850 H   0  0  0  0  0  0
  -22.4095  -11.9844   22.4759 H   0  0  0  0  0  0
  -21.1099  -13.1215   22.2660 H   0  0  0  0  0  0
  -24.6557  -15.8480   20.5167 H   0  0  0  0  0  0
  -26.2779  -15.6336   20.0965 H   0  0  0  0  0  0
  -26.7163  -32.5481   23.1115 H   0  0  0  0  0  0
  -25.0160  -33.9771   25.0498 H   0  0  0  0  0  0
  -22.7104  -31.3149   21.4150 H   0  0  0  0  0  0
  -23.3764  -35.9600   23.3308 H   0  0  0  0  0  0
  -24.3568  -36.8891   22.2049 H   0  0  0  0  0  0
  -23.7231  -37.6480   23.6658 H   0  0  0  0  0  0
  -26.0934  -31.5621   20.6167 H   0  0  0  0  0  0
  -26.8450  -30.8412   22.0080 H   0  0  0  0  0  0
  -28.1036  -28.9622   21.2138 H   0  0  0  0  0  0
  -25.9081  -26.0087   18.9084 H   0  0  0  0  0  0
  -23.9543  -27.3680   18.9774 H   0  0  0  0  0  0
  -23.7431  -30.6215   19.4116 H   0  0  0  0  0  0
  -22.7504  -29.2680   19.8606 H   0  0  0  0  0  0
  -25.1301  -36.1942   25.0824 H   0  0  0  0  0  0
  -20.9981  -28.3221   24.1410 H   0  0  0  0  0  0
  -20.5707  -26.2262   23.3585 H   0  0  0  0  0  0
  -21.6638  -26.7438   22.1165 H   0  0  0  0  0  0
  -19.6899  -25.6276   21.1245 H   0  0  0  0  0  0
  -19.6687  -27.3185   20.6755 H   0  0  0  0  0  0
  -17.4191  -26.6688   21.4022 H   0  0  0  0  0  0
  -18.0302  -26.0054   22.9013 H   0  0  0  0  0  0
  -19.7951  -30.7285   24.2223 H   0  0  0  0  0  0
  -17.5029  -31.6280   24.5146 H   0  0  0  0  0  0
  -15.5360  -30.2994   23.7685 H   0  0  0  0  0  0
  -15.8657  -28.0836   22.7080 H   0  0  0  0  0  0
  -24.5908  -30.7098   25.7784 H   0  0  0  0  0  0
  -24.8943  -32.2903   26.4918 H   0  0  0  0  0  0
  -25.8066  -30.8888   27.0232 H   0  0  0  0  0  0
  -26.2976  -29.6803   24.1188 H   0  0  0  0  0  0
  -27.4116  -29.7326   25.4662 H   0  0  0  0  0  0
  -27.8804  -30.4403   23.9384 H   0  0  0  0  0  0
  -27.2644  -33.3683   26.2068 H   0  0  0  0  0  0
  -28.3877  -32.6923   25.0375 H   0  0  0  0  0  0
  -28.0679  -31.8522   26.5478 H   0  0  0  0  0  0
  -28.2594  -38.0099   24.7528 H   0  0  0  0  0  0
  -28.1070  -36.2631   24.6312 H   0  0  0  0  0  0
  -27.2271  -37.1445   25.8870 H   0  0  0  0  0  0
  -20.9331  -29.8834   21.6986 H   0  0  0  0  0  0
  -26.0170  -38.2852   24.1434 H   0  0  0  0  0  0
  -30.3397  -21.1450   18.5007 H   0  0  0  0  0  0
  -29.5182  -21.6243   22.7132 H   0  0  0  0  0  0
  -29.3306  -23.3292   18.0697 H   0  0  0  0  0  0
  -28.4994  -23.8112   22.2591 H   0  0  0  0  0  0
  -31.9087  -19.1482   19.1101 H   0  0  0  0  0  0
  -32.3791  -20.7357   19.6589 H   0  0  0  0  0  0
  -34.1309  -19.8902   20.7379 H   0  0  0  0  0  0
  -33.5970  -18.2305   20.5248 H   0  0  0  0  0  0
  -30.9361  -19.6235   23.1552 H   0  0  0  0  0  0
  -31.8495  -20.9736   22.5084 H   0  0  0  0  0  0
  -27.0417  -24.7555   20.2228 H   0  0  0  0  0  0
  -27.8590  -25.0315   18.6960 H   0  0  0  0  0  0
  -29.4873  -18.4600   19.8695 H   0  0  0  0  0  0
  -29.1869  -18.5109   21.5766 H   0  0  0  0  0  0
  -31.2304  -17.0509   21.9839 H   0  0  0  0  0  0
  -31.5739  -17.0847   20.2775 H   0  0  0  0  0  0
  -29.0856  -15.6869   21.1019 H   0  0  0  0  0  0
  -33.5134  -19.5991   22.8505 H   0  0  0  0  0  0
  -32.6771  -18.2401   22.5276 H   0  0  0  0  0  0
  1 25  1  0  0  0
  1 30  2  0  0  0
  1 84  1  0  0  0
  2  3  1  0  0  0
  2 25  1  0  0  0
  2 86  1  0  0  0
  2 87  1  0  0  0
  3  4  1  0  0  0
  3 88  1  0  0  0
  3 89  1  0  0  0
  4  5  1  0  0  0
  4 90  1  0  0  0
  4 91  1  0  0  0
  5  6  1  0  0  0
  5 26  1  0  0  0
  5 92  1  0  0  0
  6 25  1  0  0  0
  6 93  1  0  0  0
  6 94  1  0  0  0
  7  8  2  0  0  0
  7 26  1  0  0  0
  7 29  1  0  0  0
  8  9  1  0  0  0
  8 22  1  0  0  0
  9 10  1  0  0  0
  9 27  2  0  0  0
 10 11  2  0  0  0
 10 15  1  0  0  0
 11 12  1  0  0  0
 11 95  1  0  0  0
 12 13  2  0  0  0
 12 96  1  0  0  0
 13 14  1  0  0  0
 13 31  1  0  0  0
 14 15  2  0  0  0
 14 97  1  0  0  0
 15 98  1  0  0  0
 16 17  2  0  0  0
 16 21  1  0  0  0
 16 31  1  0  0  0
 17 18  1  0  0  0
 17 99  1  0  0  0
 18 19  2  0  0  0
 18100  1  0  0  0
 19 20  1  0  0  0
 19 24  1  0  0  0
 20 21  2  0  0  0
 20101  1  0  0  0
 21 23  1  0  0  0
 22 28  1  0  0  0
 22 32  2  0  0  0
 26 27  1  0  0  0
 28102  1  0  0  0
 28103  1  0  0  0
 29104  1  0  0  0
 29105  1  0  0  0
 33 34  1  0  0  0
 33 66  1  0  0  0
 33 70  2  0  0  0
 34 36  1  0  0  0
 34 59  1  0  0  0
 34106  1  0  0  0
 35 44  2  0  0  0
 35 45  1  0  0  0
 35 68  1  0  0  0
 36 56  1  0  0  0
 36107  1  0  0  0
 37 39  1  0  0  0
 37 47  1  0  0  0
 37 66  1  0  0  0
 37108  1  0  0  0
 38 43  2  0  0  0
 38 46  1  0  0  0
 38 47  1  0  0  0
 39 64  1  0  0  0
 39 67  2  0  0  0
 40 52  1  0  0  0
 40 53  2  0  0  0
 40 58  1  0  0  0
 41109  1  0  0  0
 41110  1  0  0  0
 41111  1  0  0  0
 41 48  1  0  0  0
 42 43  1  0  0  0
 42 66  1  0  0  0
 42112  1  0  0  0
 42113  1  0  0  0
 43 44  1  0  0  0
 44114  1  0  0  0
 45 46  2  0  0  0
 45115  1  0  0  0
 46116  1  0  0  0
 47117  1  0  0  0
 47118  1  0  0  0
 48 56  1  0  0  0
 48 65  1  0  0  0
 48119  1  0  0  0
 49 50  1  0  0  0
 49 53  1  0  0  0
 49 64  1  0  0  0
 49120  1  0  0  0
 50 51  1  0  0  0
 50121  1  0  0  0
 50122  1  0  0  0
 51 52  1  0  0  0
 51123  1  0  0  0
 51124  1  0  0  0
 52125  1  0  0  0
 52126  1  0  0  0
 53 54  1  0  0  0
 54 55  2  0  0  0
 54127  1  0  0  0
 55 57  1  0  0  0
 55128  1  0  0  0
 56 69  2  0  0  0
 57 58  2  0  0  0
 57129  1  0  0  0
 58130  1  0  0  0
 59 60  1  0  0  0
 59 61  1  0  0  0
 59 62  1  0  0  0
 60131  1  0  0  0
 60132  1  0  0  0
 60133  1  0  0  0
 61134  1  0  0  0
 61135  1  0  0  0
 61136  1  0  0  0
 62137  1  0  0  0
 62138  1  0  0  0
 62139  1  0  0  0
 63 65  1  0  0  0
 63140  1  0  0  0
 63141  1  0  0  0
 63142  1  0  0  0
 64143  1  0  0  0
 65144  1  0  0  0
 68 81  1  0  0  0
 71 73  2  0  0  0
 71 75  1  0  0  0
 71145  1  0  0  0
 72 74  1  0  0  0
 72 75  2  0  0  0
 72146  1  0  0  0
 73 76  1  0  0  0
 73147  1  0  0  0
 74 76  2  0  0  0
 74148  1  0  0  0
 75 80  1  0  0  0
 76 81  1  0  0  0
 77 78  1  0  0  0
 77 80  1  0  0  0
 77149  1  0  0  0
 77150  1  0  0  0
 78 85  1  0  0  0
 78151  1  0  0  0
 78152  1  0  0  0
 79 80  1  0  0  0
 79 85  1  0  0  0
 79153  1  0  0  0
 79154  1  0  0  0
 80 82  1  0  0  0
 81155  1  0  0  0
 81156  1  0  0  0
 82 83  1  0  0  0
 82157  1  0  0  0
 82158  1  0  0  0
 83 84  1  0  0  0
 83159  1  0  0  0
 83160  1  0  0  0
 84161  1  0  0  0
 85162  1  0  0  0
 85163  1  0  0  0
M  CHG  1  85   1
M  ISO  4   1 100  68 101  81 101  84 100
M  END
> <chiral flag>
0

> <version>
0

> <s_m_source_file>
/data/baiqing/PycharmProjects/Reinvent-master-3.2/result/LINK_invent/BTK/process_docking_weight1_custom_sum_contain_oxygen_bond_distance_aromatic_linkinvent_7_9_3/rearranged_h_0136.sdf

> <i_m_source_file_index>
33

> <r_mmod_Potential_Energy-OPLS-2005>
11.5225734710693

> <r_mmod_Stretch_Energy-OPLS-2005>
82.4345550537109

> <r_mmod_Bend_Energy-OPLS-2005>
163.431655883789

> <r_mmod_Torsional_Energy-OPLS-2005>
304.466461181641

> <r_mmod_Improper_Torsional_Energy-OPLS-2005>
6.38398933410645

> <r_mmod_Van_der_Waal_Energy-OPLS-2005>
166.228164672852

> <r_mmod_Electrostatic_Energy-OPLS-2005>
-288.544982910156

> <r_mmod_Solvation_Energy-OPLS-2005>
-471.667419433594

> <b_mmod_Minimization_Converged-OPLS-2005>
0

> <r_mmod_RMS_Derivative-OPLS-2005>
1.36367249488831

$$$$
35
                    3D
 Structure written by MMmdl.
152160  0  0  1  0            999 V2000
  -30.6331  -14.6493   20.4935 C   0  0  0  0  0  0
  -30.4232  -12.3942   19.4619 C   0  0  0  0  0  0
  -29.4994  -12.4987   18.2287 C   0  0  0  0  0  0
  -28.0226  -12.3406   18.6412 C   0  0  0  0  0  0
  -27.6451  -13.2229   19.8614 C   0  0  2  0  0  0
  -28.6876  -13.1040   20.9936 C   0  0  0  0  0  0
  -25.2518  -13.8173   20.5698 C   0  0  0  0  0  0
  -24.1800  -13.0427   20.9184 C   0  0  0  0  0  0
  -24.6381  -11.6903   20.8755 C   0  0  0  0  0  0
  -23.9062  -10.4283   21.0425 C   0  0  0  0  0  0
  -24.3616   -9.4199   21.9199 C   0  0  0  0  0  0
  -23.6292   -8.2235   22.0756 C   0  0  0  0  0  0
  -22.4285   -8.0267   21.3544 C   0  0  0  0  0  0
  -21.9915   -9.0246   20.4648 C   0  0  0  0  0  0
  -22.7240  -10.2121   20.3065 C   0  0  0  0  0  0
  -21.6847   -6.0737   22.5275 C   0  0  0  0  0  0
  -21.4019   -6.5640   23.8213 C   0  0  0  0  0  0
  -21.3658   -5.6791   24.9174 C   0  0  0  0  0  0
  -21.6049   -4.3059   24.7222 C   0  0  0  0  0  0
  -21.8814   -3.8155   23.4339 C   0  0  0  0  0  0
  -21.9190   -4.6966   22.3396 C   0  0  0  0  0  0
  -22.7834  -13.5207   21.1871 C   0  0  0  0  0  0
  -22.1662   -4.2151   21.0969 F   0  0  0  0  0  0
  -21.5622   -3.4547   25.7736 F   0  0  0  0  0  0
  -29.9973  -13.4376   20.4183 N   0  0  0  0  0  0
  -26.2943  -12.9370   20.3333 N   0  0  0  0  0  0
  -25.9313  -11.6518   20.5777 N   0  0  0  0  0  0
  -22.0511  -12.8166   22.0436 N   0  0  0  0  0  0
  -25.4219  -15.1899   20.4113 N   0  0  0  0  0  0
  -31.8099  -14.7710   20.1452 O   0  0  0  0  0  0
  -21.6634   -6.8878   21.4239 O   0  0  0  0  0  0
  -22.3504  -14.5524   20.6750 O   0  0  0  0  0  0
  -24.6287  -31.8557   23.2000 C   0  0  0  0  0  0
  -25.9124  -32.4752   23.8337 C   0  0  1  0  0  0
  -27.2181  -27.3018   20.0952 C   0  0  0  0  0  0
  -25.5925  -33.8550   24.2241 N   0  0  0  0  0  0
  -23.4246  -30.4801   21.5424 C   0  0  2  0  0  0
  -24.8687  -28.9386   20.1041 C   0  0  0  0  0  0
  -22.7494  -29.4570   22.4892 C   0  0  0  0  0  0
  -18.0275  -28.1381   22.8489 C   0  0  0  0  0  0
  -24.1471  -36.7301   23.2633 C   0  0  0  0  0  0
  -25.9677  -30.7775   21.3771 C   0  0  0  0  0  0
  -26.0380  -29.4052   20.7152 C   0  0  0  0  0  0
  -27.2133  -28.5956   20.7048 C   0  0  0  0  0  0
  -26.0128  -26.8798   19.4875 C   0  0  0  0  0  0
  -24.8595  -27.6840   19.4796 C   0  0  0  0  0  0
  -23.6407  -29.8237   20.1544 C   0  0  0  0  0  0
  -25.4092  -36.3052   24.0309 C   0  0  1  0  0  0
  -20.5876  -28.3668   23.1286 C   0  0  2  0  0  0
  -20.6750  -26.9378   22.5401 C   0  0  0  0  0  0
  -19.5717  -26.6363   21.5224 C   0  0  0  0  0  0
  -18.1900  -26.7926   22.1628 C   0  0  0  0  0  0
  -19.1535  -28.8851   23.2881 C   0  0  0  0  0  0
  -18.9475  -30.1461   23.8887 C   0  0  0  0  0  0
  -17.6474  -30.6584   24.0568 C   0  0  0  0  0  0
  -25.9041  -34.9431   23.5079 C   0  0  0  0  0  0
  -16.5364  -29.9084   23.6349 C   0  0  0  0  0  0
  -16.7270  -28.6502   23.0359 C   0  0  0  0  0  0
  -26.4510  -31.6598   25.0746 C   0  0  0  0  0  0
  -25.3734  -31.3758   26.1491 C   0  0  0  0  0  0
  -27.0382  -30.3011   24.6240 C   0  0  0  0  0  0
  -27.6049  -32.4382   25.7524 C   0  0  0  0  0  0
  -27.5579  -37.1754   24.8419 C   0  0  0  0  0  0
  -21.4196  -29.3040   22.3709 N   0  0  0  0  0  0
  -26.4230  -37.3787   23.9449 N   0  0  0  0  0  0
  -24.6932  -31.0541   22.0970 N   0  0  0  0  0  0
  -23.4218  -28.8063   23.2932 O   0  0  0  0  0  0
  -28.3415  -26.4575   20.1529 O   0  0  0  0  0  0
  -26.5599  -34.8912   22.4636 O   0  0  0  0  0  0
  -23.5444  -32.1377   23.7283 O   0  0  0  0  0  0
  -28.3483  -22.6859   19.0070 C   0  0  0  0  0  0
  -29.2556  -23.4929   21.0761 C   0  0  0  0  0  0
  -28.6625  -21.3374   19.3656 C   0  0  0  0  0  0
  -29.5728  -22.1445   21.4363 C   0  0  0  0  0  0
  -28.6504  -23.8081   19.8341 C   0  0  0  0  0  0
  -29.3082  -21.0281   20.5887 C   0  0  0  0  0  0
  -28.4764  -25.2740   19.2741 C   0  0  0  0  0  0
  -29.4345  -18.3817   20.3712 C   0  0  0  0  0  0
  -30.3298  -17.1854   20.9436 C   0  0  0  0  0  0
  -29.7344  -19.7141   20.9885 N   0  0  0  0  0  0
  -29.8739  -15.7547   20.7910 N   0  0  0  0  0  0
  -31.4683  -12.5030   19.1670 H   0  0  0  0  0  0
  -30.3404  -11.4079   19.9208 H   0  0  0  0  0  0
  -29.7634  -11.7369   17.4940 H   0  0  0  0  0  0
  -29.6441  -13.4632   17.7383 H   0  0  0  0  0  0
  -27.8604  -11.2895   18.8840 H   0  0  0  0  0  0
  -27.3667  -12.5642   17.7989 H   0  0  0  0  0  0
  -27.6555  -14.2539   19.5084 H   0  0  0  0  0  0
  -28.6995  -12.0908   21.3999 H   0  0  0  0  0  0
  -28.4362  -13.7600   21.8292 H   0  0  0  0  0  0
  -25.2766   -9.5660   22.4782 H   0  0  0  0  0  0
  -23.9997   -7.4617   22.7487 H   0  0  0  0  0  0
  -21.0847   -8.8780   19.8958 H   0  0  0  0  0  0
  -22.3727  -10.9667   19.6177 H   0  0  0  0  0  0
  -21.2028   -7.6154   23.9709 H   0  0  0  0  0  0
  -21.1483   -6.0534   25.9069 H   0  0  0  0  0  0
  -22.0597   -2.7619   23.2843 H   0  0  0  0  0  0
  -22.4143  -11.9773   22.4711 H   0  0  0  0  0  0
  -21.1168  -13.1203   22.2765 H   0  0  0  0  0  0
  -24.6548  -15.8443   20.5186 H   0  0  0  0  0  0
  -26.2685  -15.6273   20.0704 H   0  0  0  0  0  0
  -26.7191  -32.5393   23.1074 H   0  0  0  0  0  0
  -25.0135  -33.9704   25.0426 H   0  0  0  0  0  0
  -22.7207  -31.3028   21.4011 H   0  0  0  0  0  0
  -23.3743  -35.9617   23.3191 H   0  0  0  0  0  0
  -24.3582  -36.9053   22.2074 H   0  0  0  0  0  0
  -23.7214  -37.6454   23.6754 H   0  0  0  0  0  0
  -26.1015  -31.5383   20.6081 H   0  0  0  0  0  0
  -26.8466  -30.8239   22.0099 H   0  0  0  0  0  0
  -28.1152  -28.9444   21.1889 H   0  0  0  0  0  0
  -25.9065  -25.9038   19.0416 H   0  0  0  0  0  0
  -23.9604  -27.3239   19.0010 H   0  0  0  0  0  0
  -23.7669  -30.6090   19.4075 H   0  0  0  0  0  0
  -22.7579  -29.2623   19.8426 H   0  0  0  0  0  0
  -25.1243  -36.1863   25.0788 H   0  0  0  0  0  0
  -20.9978  -28.3217   24.1399 H   0  0  0  0  0  0
  -20.5667  -26.2243   23.3588 H   0  0  0  0  0  0
  -21.6612  -26.7379   22.1193 H   0  0  0  0  0  0
  -19.6859  -25.6267   21.1257 H   0  0  0  0  0  0
  -19.6673  -27.3173   20.6749 H   0  0  0  0  0  0
  -17.4160  -26.6703   21.4034 H   0  0  0  0  0  0
  -18.0287  -26.0052   22.9016 H   0  0  0  0  0  0
  -19.7948  -30.7301   24.2215 H   0  0  0  0  0  0
  -17.5017  -31.6271   24.5165 H   0  0  0  0  0  0
  -15.5365  -30.2988   23.7664 H   0  0  0  0  0  0
  -15.8661  -28.0838   22.7055 H   0  0  0  0  0  0
  -24.5923  -30.7059   25.7856 H   0  0  0  0  0  0
  -24.8912  -32.2948   26.4871 H   0  0  0  0  0  0
  -25.8089  -30.9014   27.0304 H   0  0  0  0  0  0
  -26.2989  -29.6742   24.1263 H   0  0  0  0  0  0
  -27.4067  -29.7297   25.4760 H   0  0  0  0  0  0
  -27.8833  -30.4274   23.9477 H   0  0  0  0  0  0
  -27.2655  -33.3753   26.1963 H   0  0  0  0  0  0
  -28.3953  -32.6848   25.0415 H   0  0  0  0  0  0
  -28.0611  -31.8605   26.5575 H   0  0  0  0  0  0
  -28.2424  -38.0206   24.7688 H   0  0  0  0  0  0
  -28.1254  -36.2762   24.5966 H   0  0  0  0  0  0
  -27.2348  -37.1064   25.8816 H   0  0  0  0  0  0
  -20.9342  -29.8884   21.7045 H   0  0  0  0  0  0
  -26.0084  -38.2808   24.1636 H   0  0  0  0  0  0
  -27.8990  -22.8593   18.0390 H   0  0  0  0  0  0
  -29.5187  -24.2947   21.7510 H   0  0  0  0  0  0
  -28.4389  -20.5466   18.6618 H   0  0  0  0  0  0
  -30.0599  -21.9842   22.3874 H   0  0  0  0  0  0
  -27.7532  -25.2574   18.4602 H   0  0  0  0  0  0
  -29.4074  -25.4607   18.7390 H   0  0  0  0  0  0
  -28.3804  -18.1576   20.5439 H   0  0  0  0  0  0
  -29.5594  -18.4421   19.2891 H   0  0  0  0  0  0
  -30.4240  -17.3306   22.0217 H   0  0  0  0  0  0
  -31.3419  -17.2909   20.5491 H   0  0  0  0  0  0
  -30.3079  -19.6726   21.8283 H   0  0  0  0  0  0
  -28.9110  -15.5685   21.0252 H   0  0  0  0  0  0
  1 25  1  0  0  0
  1 30  2  0  0  0
  1 81  1  0  0  0
  2  3  1  0  0  0
  2 25  1  0  0  0
  2 82  1  0  0  0
  2 83  1  0  0  0
  3  4  1  0  0  0
  3 84  1  0  0  0
  3 85  1  0  0  0
  4  5  1  0  0  0
  4 86  1  0  0  0
  4 87  1  0  0  0
  5  6  1  0  0  0
  5 26  1  0  0  0
  5 88  1  0  0  0
  6 25  1  0  0  0
  6 89  1  0  0  0
  6 90  1  0  0  0
  7  8  2  0  0  0
  7 26  1  0  0  0
  7 29  1  0  0  0
  8  9  1  0  0  0
  8 22  1  0  0  0
  9 10  1  0  0  0
  9 27  2  0  0  0
 10 11  2  0  0  0
 10 15  1  0  0  0
 11 12  1  0  0  0
 11 91  1  0  0  0
 12 13  2  0  0  0
 12 92  1  0  0  0
 13 14  1  0  0  0
 13 31  1  0  0  0
 14 15  2  0  0  0
 14 93  1  0  0  0
 15 94  1  0  0  0
 16 17  2  0  0  0
 16 21  1  0  0  0
 16 31  1  0  0  0
 17 18  1  0  0  0
 17 95  1  0  0  0
 18 19  2  0  0  0
 18 96  1  0  0  0
 19 20  1  0  0  0
 19 24  1  0  0  0
 20 21  2  0  0  0
 20 97  1  0  0  0
 21 23  1  0  0  0
 22 28  1  0  0  0
 22 32  2  0  0  0
 26 27  1  0  0  0
 28 98  1  0  0  0
 28 99  1  0  0  0
 29100  1  0  0  0
 29101  1  0  0  0
 33 34  1  0  0  0
 33 66  1  0  0  0
 33 70  2  0  0  0
 34 36  1  0  0  0
 34 59  1  0  0  0
 34102  1  0  0  0
 35 44  2  0  0  0
 35 45  1  0  0  0
 35 68  1  0  0  0
 36 56  1  0  0  0
 36103  1  0  0  0
 37 39  1  0  0  0
 37 47  1  0  0  0
 37 66  1  0  0  0
 37104  1  0  0  0
 38 43  2  0  0  0
 38 46  1  0  0  0
 38 47  1  0  0  0
 39 64  1  0  0  0
 39 67  2  0  0  0
 40 52  1  0  0  0
 40 53  2  0  0  0
 40 58  1  0  0  0
 41105  1  0  0  0
 41106  1  0  0  0
 41107  1  0  0  0
 41 48  1  0  0  0
 42 43  1  0  0  0
 42 66  1  0  0  0
 42108  1  0  0  0
 42109  1  0  0  0
 43 44  1  0  0  0
 44110  1  0  0  0
 45 46  2  0  0  0
 45111  1  0  0  0
 46112  1  0  0  0
 47113  1  0  0  0
 47114  1  0  0  0
 48 56  1  0  0  0
 48 65  1  0  0  0
 48115  1  0  0  0
 49 50  1  0  0  0
 49 53  1  0  0  0
 49 64  1  0  0  0
 49116  1  0  0  0
 50 51  1  0  0  0
 50117  1  0  0  0
 50118  1  0  0  0
 51 52  1  0  0  0
 51119  1  0  0  0
 51120  1  0  0  0
 52121  1  0  0  0
 52122  1  0  0  0
 53 54  1  0  0  0
 54 55  2  0  0  0
 54123  1  0  0  0
 55 57  1  0  0  0
 55124  1  0  0  0
 56 69  2  0  0  0
 57 58  2  0  0  0
 57125  1  0  0  0
 58126  1  0  0  0
 59 60  1  0  0  0
 59 61  1  0  0  0
 59 62  1  0  0  0
 60127  1  0  0  0
 60128  1  0  0  0
 60129  1  0  0  0
 61130  1  0  0  0
 61131  1  0  0  0
 61132  1  0  0  0
 62133  1  0  0  0
 62134  1  0  0  0
 62135  1  0  0  0
 63 65  1  0  0  0
 63136  1  0  0  0
 63137  1  0  0  0
 63138  1  0  0  0
 64139  1  0  0  0
 65140  1  0  0  0
 68 77  1  0  0  0
 71 73  2  0  0  0
 71 75  1  0  0  0
 71141  1  0  0  0
 72 74  1  0  0  0
 72 75  2  0  0  0
 72142  1  0  0  0
 73 76  1  0  0  0
 73143  1  0  0  0
 74 76  2  0  0  0
 74144  1  0  0  0
 75 77  1  0  0  0
 76 80  1  0  0  0
 77145  1  0  0  0
 77146  1  0  0  0
 78 79  1  0  0  0
 78 80  1  0  0  0
 78147  1  0  0  0
 78148  1  0  0  0
 79 81  1  0  0  0
 79149  1  0  0  0
 79150  1  0  0  0
 80151  1  0  0  0
 81152  1  0  0  0
M  ISO  4   1 100  68 101  77 101  81 100
M  END
> <chiral flag>
0

> <version>
0

> <s_m_source_file>
/data/baiqing/PycharmProjects/Reinvent-master-3.2/result/LINK_invent/BTK/process_docking_weight1_custom_sum_contain_oxygen_bond_distance_aromatic_linkinvent_7_9_3/rearranged_h_0136.sdf

> <i_m_source_file_index>
34

> <r_mmod_Potential_Energy-OPLS-2005>
6.39830541610718

> <r_mmod_Stretch_Energy-OPLS-2005>
80.6211547851562

> <r_mmod_Bend_Energy-OPLS-2005>
163.270812988281

> <r_mmod_Torsional_Energy-OPLS-2005>
201.040878295898

> <r_mmod_Improper_Torsional_Energy-OPLS-2005>
4.8228611946106

> <r_mmod_Van_der_Waal_Energy-OPLS-2005>
142.937774658203

> <r_mmod_Electrostatic_Energy-OPLS-2005>
-416.407012939453

> <r_mmod_Solvation_Energy-OPLS-2005>
-224.863861083984

> <b_mmod_Minimization_Converged-OPLS-2005>
0

> <r_mmod_RMS_Derivative-OPLS-2005>
3.12634038925171

$$$$
36
                    3D
 Structure written by MMmdl.
175184  0  0  1  0            999 V2000
  -30.8832  -14.1884   20.7917 C   0  0  0  0  0  0
  -30.4070  -12.2826   19.3282 C   0  0  0  0  0  0
  -29.4630  -12.5570   18.1529 C   0  0  0  0  0  0
  -27.9981  -12.3896   18.5939 C   0  0  0  0  0  0
  -27.6686  -13.2001   19.8735 C   0  0  2  0  0  0
  -28.7143  -12.9296   20.9783 C   0  0  0  0  0  0
  -25.2607  -13.8159   20.5694 C   0  0  0  0  0  0
  -24.1831  -13.0438   20.9198 C   0  0  0  0  0  0
  -24.6389  -11.6913   20.8761 C   0  0  0  0  0  0
  -23.9059  -10.4294   21.0434 C   0  0  0  0  0  0
  -24.3616   -9.4201   21.9211 C   0  0  0  0  0  0
  -23.6296   -8.2231   22.0766 C   0  0  0  0  0  0
  -22.4283   -8.0287   21.3551 C   0  0  0  0  0  0
  -21.9932   -9.0257   20.4656 C   0  0  0  0  0  0
  -22.7246  -10.2141   20.3057 C   0  0  0  0  0  0
  -21.6845   -6.0755   22.5301 C   0  0  0  0  0  0
  -21.4003   -6.5645   23.8240 C   0  0  0  0  0  0
  -21.3667   -5.6790   24.9195 C   0  0  0  0  0  0
  -21.6048   -4.3048   24.7231 C   0  0  0  0  0  0
  -21.8810   -3.8156   23.4342 C   0  0  0  0  0  0
  -21.9190   -4.6989   22.3412 C   0  0  0  0  0  0
  -22.7859  -13.5243   21.1869 C   0  0  0  0  0  0
  -22.1637   -4.2187   21.0981 F   0  0  0  0  0  0
  -21.5659   -3.4517   25.7735 F   0  0  0  0  0  0
  -30.0587  -13.1828   20.4304 N   0  0  0  0  0  0
  -26.3050  -12.9320   20.3375 N   0  0  0  0  0  0
  -25.9309  -11.6494   20.5771 N   0  0  0  0  0  0
  -22.0431  -12.8227   22.0389 N   0  0  0  0  0  0
  -25.4323  -15.1867   20.4110 N   0  0  0  0  0  0
  -31.7688  -14.6681   20.0770 O   0  0  0  0  0  0
  -21.6602   -6.8910   21.4266 O   0  0  0  0  0  0
  -22.3603  -14.5584   20.6768 O   0  0  0  0  0  0
  -24.6088  -31.8714   23.2144 C   0  0  0  0  0  0
  -25.9012  -32.4831   23.8416 C   0  0  1  0  0  0
  -27.2502  -27.4748   20.1060 C   0  0  0  0  0  0
  -25.5923  -33.8631   24.2359 N   0  0  0  0  0  0
  -23.3980  -30.4934   21.5534 C   0  0  2  0  0  0
  -24.8505  -28.9585   20.1239 C   0  0  0  0  0  0
  -22.7401  -29.4668   22.5008 C   0  0  0  0  0  0
  -18.0287  -28.1376   22.8504 C   0  0  0  0  0  0
  -24.1482  -36.7289   23.2636 C   0  0  0  0  0  0
  -25.9213  -30.8423   21.3707 C   0  0  0  0  0  0
  -26.0032  -29.4758   20.7320 C   0  0  0  0  0  0
  -27.2050  -28.7387   20.7321 C   0  0  0  0  0  0
  -26.0878  -26.9635   19.4945 C   0  0  0  0  0  0
  -24.8853  -27.6945   19.5067 C   0  0  0  0  0  0
  -23.6100  -29.8223   20.1673 C   0  0  0  0  0  0
  -25.4104  -36.3116   24.0342 C   0  0  1  0  0  0
  -20.5876  -28.3652   23.1340 C   0  0  2  0  0  0
  -20.6770  -26.9396   22.5416 C   0  0  0  0  0  0
  -19.5741  -26.6397   21.5214 C   0  0  0  0  0  0
  -18.1927  -26.7932   22.1624 C   0  0  0  0  0  0
  -19.1540  -28.8836   23.2917 C   0  0  0  0  0  0
  -18.9461  -30.1461   23.8901 C   0  0  0  0  0  0
  -17.6450  -30.6589   24.0572 C   0  0  0  0  0  0
  -25.9037  -34.9477   23.5137 C   0  0  0  0  0  0
  -16.5343  -29.9084   23.6338 C   0  0  0  0  0  0
  -16.7273  -28.6501   23.0353 C   0  0  0  0  0  0
  -26.4485  -31.6603   25.0727 C   0  0  0  0  0  0
  -25.3779  -31.3726   26.1494 C   0  0  0  0  0  0
  -27.0311  -30.3044   24.6104 C   0  0  0  0  0  0
  -27.6064  -32.4327   25.7491 C   0  0  0  0  0  0
  -27.5582  -37.1802   24.8474 C   0  0  0  0  0  0
  -21.4131  -29.3023   22.3733 N   0  0  0  0  0  0
  -26.4287  -37.3799   23.9422 N   0  0  0  0  0  0
  -24.6597  -31.0847   22.1041 N   0  0  0  0  0  0
  -23.4167  -28.8224   23.3067 O   0  0  0  0  0  0
  -28.4038  -26.7406   19.9896 O   0  0  0  0  0  0
  -26.5563  -34.8937   22.4683 O   0  0  0  0  0  0
  -23.5297  -32.1471   23.7560 O   0  0  0  0  0  0
  -29.4772  -23.1758   22.9130 C   0  0  0  0  0  0
  -29.5795  -22.8238   20.5011 C   0  0  0  0  0  0
  -29.4523  -24.5710   22.7092 C   0  0  0  0  0  0
  -29.5525  -24.2137   20.3001 C   0  0  0  0  0  0
  -29.4995  -22.2964   21.8065 C   0  0  0  0  0  0
  -29.4348  -25.0932   21.3972 C   0  0  0  0  0  0
  -32.9403  -19.3052   21.7793 C   0  0  0  0  0  0
  -31.9703  -18.8139   24.0387 C   0  0  0  0  0  0
  -31.5493  -19.7827   21.3108 C   0  0  0  0  0  0
  -30.5817  -19.2262   23.5158 C   0  0  0  0  0  0
  -32.8709  -18.2562   22.9119 C   0  0  1  0  0  0
  -32.0701  -13.4432   24.0538 C   0  0  0  0  0  0
  -29.4055  -20.7955   22.0143 C   0  0  0  0  0  0
  -29.2346  -26.5754   21.1398 C   0  0  0  0  0  0
  -32.2579  -15.8988   23.4865 C   0  0  0  0  0  0
  -32.1184  -14.4829   22.9217 C   0  0  2  0  0  0
  -30.9029  -14.3515   22.1170 N   0  0  0  0  0  0
  -30.7092  -20.2489   22.4482 N   0  3  2  0  0  0
  -32.4627  -16.9074   22.4251 N   0  3  0  0  0  0
  -31.4496  -12.3848   19.0184 H   0  0  0  0  0  0
  -30.2975  -11.2489   19.6586 H   0  0  0  0  0  0
  -29.6850  -11.8842   17.3218 H   0  0  0  0  0  0
  -29.6250  -13.5706   17.7788 H   0  0  0  0  0  0
  -27.8225  -11.3262   18.7734 H   0  0  0  0  0  0
  -27.3320  -12.6836   17.7828 H   0  0  0  0  0  0
  -27.7361  -14.2542   19.6090 H   0  0  0  0  0  0
  -28.6580  -11.8869   21.2995 H   0  0  0  0  0  0
  -28.4917  -13.5327   21.8591 H   0  0  0  0  0  0
  -25.2758   -9.5683   22.4779 H   0  0  0  0  0  0
  -24.0030   -7.4614   22.7461 H   0  0  0  0  0  0
  -21.0884   -8.8767   19.8949 H   0  0  0  0  0  0
  -22.3720  -10.9675   19.6158 H   0  0  0  0  0  0
  -21.1943   -7.6148   23.9766 H   0  0  0  0  0  0
  -21.1518   -6.0500   25.9120 H   0  0  0  0  0  0
  -22.0574   -2.7622   23.2811 H   0  0  0  0  0  0
  -22.3982  -11.9826   22.4696 H   0  0  0  0  0  0
  -21.1078  -13.1348   22.2584 H   0  0  0  0  0  0
  -24.6655  -15.8413   20.5162 H   0  0  0  0  0  0
  -26.2897  -15.6280   20.0992 H   0  0  0  0  0  0
  -26.7072  -32.5588   23.1173 H   0  0  0  0  0  0
  -25.0197  -33.9798   25.0593 H   0  0  0  0  0  0
  -22.6858  -31.3087   21.4150 H   0  0  0  0  0  0
  -23.3765  -35.9606   23.3320 H   0  0  0  0  0  0
  -24.3586  -36.8875   22.2050 H   0  0  0  0  0  0
  -23.7193  -37.6488   23.6621 H   0  0  0  0  0  0
  -26.0393  -31.6085   20.6017 H   0  0  0  0  0  0
  -26.8009  -30.8933   21.9980 H   0  0  0  0  0  0
  -28.0943  -29.1516   21.1884 H   0  0  0  0  0  0
  -26.1203  -26.0012   19.0044 H   0  0  0  0  0  0
  -24.0054  -27.2920   19.0233 H   0  0  0  0  0  0
  -23.7184  -30.5958   19.4042 H   0  0  0  0  0  0
  -22.7344  -29.2401   19.8685 H   0  0  0  0  0  0
  -25.1293  -36.1986   25.0833 H   0  0  0  0  0  0
  -20.9983  -28.3192   24.1453 H   0  0  0  0  0  0
  -20.5708  -26.2252   23.3593 H   0  0  0  0  0  0
  -21.6644  -26.7459   22.1199 H   0  0  0  0  0  0
  -19.6888  -25.6319   21.1232 H   0  0  0  0  0  0
  -19.6680  -27.3229   20.6766 H   0  0  0  0  0  0
  -17.4216  -26.6737   21.3996 H   0  0  0  0  0  0
  -18.0289  -26.0057   22.9007 H   0  0  0  0  0  0
  -19.7942  -30.7303   24.2225 H   0  0  0  0  0  0
  -17.5019  -31.6265   24.5186 H   0  0  0  0  0  0
  -15.5352  -30.2978   23.7669 H   0  0  0  0  0  0
  -15.8685  -28.0829   22.7032 H   0  0  0  0  0  0
  -24.5966  -30.7038   25.7871 H   0  0  0  0  0  0
  -24.8955  -32.2896   26.4901 H   0  0  0  0  0  0
  -25.8171  -30.8953   27.0263 H   0  0  0  0  0  0
  -26.2847  -29.6810   24.1159 H   0  0  0  0  0  0
  -27.4087  -29.7276   25.4560 H   0  0  0  0  0  0
  -27.8702  -30.4370   23.9259 H   0  0  0  0  0  0
  -27.2690  -33.3655   26.2026 H   0  0  0  0  0  0
  -28.3893  -32.6825   25.0319 H   0  0  0  0  0  0
  -28.0704  -31.8468   26.5439 H   0  0  0  0  0  0
  -28.2615  -38.0090   24.7540 H   0  0  0  0  0  0
  -28.1065  -36.2623   24.6289 H   0  0  0  0  0  0
  -27.2314  -37.1452   25.8882 H   0  0  0  0  0  0
  -20.9286  -29.8724   21.6945 H   0  0  0  0  0  0
  -26.0188  -38.2885   24.1435 H   0  0  0  0  0  0
  -29.4399  -22.7889   23.9230 H   0  0  0  0  0  0
  -29.6148  -22.1668   19.6422 H   0  0  0  0  0  0
  -29.3941  -25.2324   23.5635 H   0  0  0  0  0  0
  -29.5704  -24.6031   19.2913 H   0  0  0  0  0  0
  -33.4967  -20.1732   22.1397 H   0  0  0  0  0  0
  -33.5162  -18.9300   20.9335 H   0  0  0  0  0  0
  -31.8814  -18.1209   24.8742 H   0  0  0  0  0  0
  -32.4593  -19.6906   24.4652 H   0  0  0  0  0  0
  -31.0411  -18.9739   20.7827 H   0  0  0  0  0  0
  -31.6688  -20.5904   20.5878 H   0  0  0  0  0  0
  -29.9912  -19.6207   24.3444 H   0  0  0  0  0  0
  -30.0376  -18.3601   23.1323 H   0  0  0  0  0  0
  -33.8799  -18.1369   23.3138 H   0  0  0  0  0  0
  -32.9942  -13.4465   24.6357 H   0  0  0  0  0  0
  -31.9337  -12.4333   23.6632 H   0  0  0  0  0  0
  -31.2510  -13.6498   24.7440 H   0  0  0  0  0  0
  -29.0558  -20.3065   21.1037 H   0  0  0  0  0  0
  -28.6323  -20.6036   22.7586 H   0  0  0  0  0  0
  -30.2038  -27.0376   20.9476 H   0  0  0  0  0  0
  -28.8253  -27.0430   22.0355 H   0  0  0  0  0  0
  -33.0862  -15.9420   24.1955 H   0  0  0  0  0  0
  -31.3503  -16.1280   24.0456 H   0  0  0  0  0  0
  -32.9982  -14.2505   22.3161 H   0  0  0  0  0  0
  -30.1066  -13.9507   22.5905 H   0  0  0  0  0  0
  -31.1791  -21.0367   22.8686 H   0  0  0  0  0  0
  -33.1913  -16.5581   21.8209 H   0  0  0  0  0  0
  -31.6222  -16.9439   21.8732 H   0  0  0  0  0  0
  1 25  1  0  0  0
  1 30  2  0  0  0
  1 87  1  0  0  0
  2  3  1  0  0  0
  2 25  1  0  0  0
  2 90  1  0  0  0
  2 91  1  0  0  0
  3  4  1  0  0  0
  3 92  1  0  0  0
  3 93  1  0  0  0
  4  5  1  0  0  0
  4 94  1  0  0  0
  4 95  1  0  0  0
  5  6  1  0  0  0
  5 26  1  0  0  0
  5 96  1  0  0  0
  6 25  1  0  0  0
  6 97  1  0  0  0
  6 98  1  0  0  0
  7  8  2  0  0  0
  7 26  1  0  0  0
  7 29  1  0  0  0
  8  9  1  0  0  0
  8 22  1  0  0  0
  9 10  1  0  0  0
  9 27  2  0  0  0
 10 11  2  0  0  0
 10 15  1  0  0  0
 11 12  1  0  0  0
 11 99  1  0  0  0
 12 13  2  0  0  0
 12100  1  0  0  0
 13 14  1  0  0  0
 13 31  1  0  0  0
 14 15  2  0  0  0
 14101  1  0  0  0
 15102  1  0  0  0
 16 17  2  0  0  0
 16 21  1  0  0  0
 16 31  1  0  0  0
 17 18  1  0  0  0
 17103  1  0  0  0
 18 19  2  0  0  0
 18104  1  0  0  0
 19 20  1  0  0  0
 19 24  1  0  0  0
 20 21  2  0  0  0
 20105  1  0  0  0
 21 23  1  0  0  0
 22 28  1  0  0  0
 22 32  2  0  0  0
 26 27  1  0  0  0
 28106  1  0  0  0
 28107  1  0  0  0
 29108  1  0  0  0
 29109  1  0  0  0
 33 34  1  0  0  0
 33 66  1  0  0  0
 33 70  2  0  0  0
 34 36  1  0  0  0
 34 59  1  0  0  0
 34110  1  0  0  0
 35 44  2  0  0  0
 35 45  1  0  0  0
 35 68  1  0  0  0
 36 56  1  0  0  0
 36111  1  0  0  0
 37 39  1  0  0  0
 37 47  1  0  0  0
 37 66  1  0  0  0
 37112  1  0  0  0
 38 43  2  0  0  0
 38 46  1  0  0  0
 38 47  1  0  0  0
 39 64  1  0  0  0
 39 67  2  0  0  0
 40 52  1  0  0  0
 40 53  2  0  0  0
 40 58  1  0  0  0
 41113  1  0  0  0
 41114  1  0  0  0
 41115  1  0  0  0
 41 48  1  0  0  0
 42 43  1  0  0  0
 42 66  1  0  0  0
 42116  1  0  0  0
 42117  1  0  0  0
 43 44  1  0  0  0
 44118  1  0  0  0
 45 46  2  0  0  0
 45119  1  0  0  0
 46120  1  0  0  0
 47121  1  0  0  0
 47122  1  0  0  0
 48 56  1  0  0  0
 48 65  1  0  0  0
 48123  1  0  0  0
 49 50  1  0  0  0
 49 53  1  0  0  0
 49 64  1  0  0  0
 49124  1  0  0  0
 50 51  1  0  0  0
 50125  1  0  0  0
 50126  1  0  0  0
 51 52  1  0  0  0
 51127  1  0  0  0
 51128  1  0  0  0
 52129  1  0  0  0
 52130  1  0  0  0
 53 54  1  0  0  0
 54 55  2  0  0  0
 54131  1  0  0  0
 55 57  1  0  0  0
 55132  1  0  0  0
 56 69  2  0  0  0
 57 58  2  0  0  0
 57133  1  0  0  0
 58134  1  0  0  0
 59 60  1  0  0  0
 59 61  1  0  0  0
 59 62  1  0  0  0
 60135  1  0  0  0
 60136  1  0  0  0
 60137  1  0  0  0
 61138  1  0  0  0
 61139  1  0  0  0
 61140  1  0  0  0
 62141  1  0  0  0
 62142  1  0  0  0
 62143  1  0  0  0
 63 65  1  0  0  0
 63144  1  0  0  0
 63145  1  0  0  0
 63146  1  0  0  0
 64147  1  0  0  0
 65148  1  0  0  0
 68 84  1  0  0  0
 71 73  2  0  0  0
 71 75  1  0  0  0
 71149  1  0  0  0
 72 74  1  0  0  0
 72 75  2  0  0  0
 72150  1  0  0  0
 73 76  1  0  0  0
 73151  1  0  0  0
 74 76  2  0  0  0
 74152  1  0  0  0
 75 83  1  0  0  0
 76 84  1  0  0  0
 77 79  1  0  0  0
 77 81  1  0  0  0
 77153  1  0  0  0
 77154  1  0  0  0
 78 80  1  0  0  0
 78 81  1  0  0  0
 78155  1  0  0  0
 78156  1  0  0  0
 79 88  1  0  0  0
 79157  1  0  0  0
 79158  1  0  0  0
 80 88  1  0  0  0
 80159  1  0  0  0
 80160  1  0  0  0
 81 89  1  0  0  0
 81161  1  0  0  0
 82162  1  0  0  0
 82163  1  0  0  0
 82164  1  0  0  0
 82 86  1  0  0  0
 83165  1  0  0  0
 83166  1  0  0  0
 83 88  1  0  0  0
 84167  1  0  0  0
 84168  1  0  0  0
 85 86  1  0  0  0
 85 89  1  0  0  0
 85169  1  0  0  0
 85170  1  0  0  0
 86 87  1  0  0  0
 86171  1  0  0  0
 87172  1  0  0  0
 88173  1  0  0  0
 89174  1  0  0  0
 89175  1  0  0  0
M  CHG  2  88   1  89   1
M  ISO  4   1 100  68 101  84 101  87 100
M  END
> <chiral flag>
0

> <version>
0

> <s_m_source_file>
/data/baiqing/PycharmProjects/Reinvent-master-3.2/result/LINK_invent/BTK/process_docking_weight1_custom_sum_contain_oxygen_bond_distance_aromatic_linkinvent_7_9_3/rearranged_h_0136.sdf

> <i_m_source_file_index>
35

> <r_mmod_Potential_Energy-OPLS-2005>
-286.560546875

> <r_mmod_Stretch_Energy-OPLS-2005>
32.1220474243164

> <r_mmod_Bend_Energy-OPLS-2005>
96.777946472168

> <r_mmod_Torsional_Energy-OPLS-2005>
322.47900390625

> <r_mmod_Improper_Torsional_Energy-OPLS-2005>
11.149377822876

> <r_mmod_Van_der_Waal_Energy-OPLS-2005>
152.868957519531

> <r_mmod_Electrostatic_Energy-OPLS-2005>
48.443172454834

> <r_mmod_Solvation_Energy-OPLS-2005>
-963.003967285156

> <b_mmod_Minimization_Converged-OPLS-2005>
0

> <r_mmod_RMS_Derivative-OPLS-2005>
4.51354074478149

$$$$
37
                    3D
 Structure written by MMmdl.
157165  0  0  1  0            999 V2000
  -30.5017  -15.0422   20.4450 C   0  0  0  0  0  0
  -30.4718  -12.6651   19.5231 C   0  0  0  0  0  0
  -29.5457  -12.5418   18.2865 C   0  0  0  0  0  0
  -28.0799  -12.3201   18.6973 C   0  0  0  0  0  0
  -27.6424  -13.2449   19.8595 C   0  0  2  0  0  0
  -28.6823  -13.2753   21.0038 C   0  0  0  0  0  0
  -25.2523  -13.8237   20.5824 C   0  0  0  0  0  0
  -24.1770  -13.0489   20.9254 C   0  0  0  0  0  0
  -24.6313  -11.6943   20.8732 C   0  0  0  0  0  0
  -23.9001  -10.4275   21.0355 C   0  0  0  0  0  0
  -24.3528   -9.4198   21.9149 C   0  0  0  0  0  0
  -23.6233   -8.2221   22.0680 C   0  0  0  0  0  0
  -22.4223   -8.0236   21.3476 C   0  0  0  0  0  0
  -21.9855   -9.0207   20.4586 C   0  0  0  0  0  0
  -22.7164  -10.2121   20.3040 C   0  0  0  0  0  0
  -21.6830   -6.0669   22.5246 C   0  0  0  0  0  0
  -21.3995   -6.5567   23.8172 C   0  0  0  0  0  0
  -21.3666   -5.6724   24.9151 C   0  0  0  0  0  0
  -21.6076   -4.3006   24.7212 C   0  0  0  0  0  0
  -21.8807   -3.8086   23.4326 C   0  0  0  0  0  0
  -21.9203   -4.6894   22.3395 C   0  0  0  0  0  0
  -22.7760  -13.5259   21.1859 C   0  0  0  0  0  0
  -22.1681   -4.2073   21.0962 F   0  0  0  0  0  0
  -21.5694   -3.4498   25.7729 F   0  0  0  0  0  0
  -29.9461  -13.7498   20.4162 N   0  0  0  0  0  0
  -26.2925  -12.9443   20.3324 N   0  0  0  0  0  0
  -25.9247  -11.6573   20.5674 N   0  0  0  0  0  0
  -22.0344  -12.8315   22.0429 N   0  0  0  0  0  0
  -25.4293  -15.1967   20.4334 N   0  0  0  0  0  0
  -31.6814  -15.1266   20.0904 O   0  0  0  0  0  0
  -21.6618   -6.8818   21.4193 O   0  0  0  0  0  0
  -22.3448  -14.5491   20.6595 O   0  0  0  0  0  0
  -24.6475  -31.8421   23.1825 C   0  0  0  0  0  0
  -25.9242  -32.4680   23.8218 C   0  0  1  0  0  0
  -27.1966  -27.0514   20.2172 C   0  0  0  0  0  0
  -25.5942  -33.8499   24.2147 N   0  0  0  0  0  0
  -23.4540  -30.4551   21.5273 C   0  0  2  0  0  0
  -24.9118  -28.8690   20.1036 C   0  0  0  0  0  0
  -22.7634  -29.4498   22.4793 C   0  0  0  0  0  0
  -18.0369  -28.1440   22.8456 C   0  0  0  0  0  0
  -24.1509  -36.7227   23.2623 C   0  0  0  0  0  0
  -26.0132  -30.6846   21.3994 C   0  0  0  0  0  0
  -26.0795  -29.2877   20.7520 C   0  0  0  0  0  0
  -27.2134  -28.3913   20.7989 C   0  0  0  0  0  0
  -26.0309  -26.7676   19.4735 C   0  0  0  0  0  0
  -24.9138  -27.6317   19.4386 C   0  0  0  0  0  0
  -23.6854  -29.7718   20.1498 C   0  0  0  0  0  0
  -25.4144  -36.3048   24.0315 C   0  0  1  0  0  0
  -20.6013  -28.3790   23.1240 C   0  0  2  0  0  0
  -20.6878  -26.9469   22.5465 C   0  0  0  0  0  0
  -19.5892  -26.6493   21.5201 C   0  0  0  0  0  0
  -18.2032  -26.8009   22.1537 C   0  0  0  0  0  0
  -19.1626  -28.8916   23.2863 C   0  0  0  0  0  0
  -18.9518  -30.1483   23.8889 C   0  0  0  0  0  0
  -17.6501  -30.6558   24.0659 C   0  0  0  0  0  0
  -25.9094  -34.9415   23.5063 C   0  0  0  0  0  0
  -16.5413  -29.9072   23.6386 C   0  0  0  0  0  0
  -16.7358  -28.6560   23.0284 C   0  0  0  0  0  0
  -26.4495  -31.6539   25.0680 C   0  0  0  0  0  0
  -25.3612  -31.3791   26.1344 C   0  0  0  0  0  0
  -27.0370  -30.2934   24.6289 C   0  0  0  0  0  0
  -27.6026  -32.4333   25.7410 C   0  0  0  0  0  0
  -27.5605  -37.1736   24.8437 C   0  0  0  0  0  0
  -21.4315  -29.3091   22.3565 N   0  0  0  0  0  0
  -26.4286  -37.3784   23.9431 N   0  0  0  0  0  0
  -24.7238  -31.0227   22.0863 N   0  0  0  0  0  0
  -23.4248  -28.7976   23.2882 O   0  0  0  0  0  0
  -28.2011  -26.0220   20.4189 O   0  0  0  0  0  0
  -26.5745  -34.8932   22.4681 O   0  0  0  0  0  0
  -23.5608  -32.1279   23.7045 O   0  0  0  0  0  0
  -28.2592  -21.2862   22.7913 C   0  0  0  0  0  0
  -27.9164  -23.2324   21.2867 C   0  0  0  0  0  0
  -26.9812  -23.6294   22.3152 C   0  0  0  0  0  0
  -28.4382  -21.7768   21.4672 C   0  0  0  0  0  0
  -26.8991  -22.9491   23.5555 C   0  0  0  0  0  0
  -25.9743  -24.7627   22.1046 C   0  0  0  0  0  0
  -26.0234  -23.3973   24.7266 C   0  0  0  0  0  0
  -28.1330  -24.4439   20.1483 C   0  0  0  0  0  0
  -29.2605  -19.1493   21.1079 C   0  0  0  0  0  0
  -29.8311  -17.7794   20.2411 C   0  0  0  0  0  0
  -27.5857  -21.8411   23.8018 N   0  0  0  0  0  0
  -29.0624  -20.6762   20.6449 N   0  0  0  0  0  0
  -29.7162  -16.2300   20.6764 N   0  0  0  0  0  0
  -31.4769  -12.8894   19.1616 H   0  0  0  0  0  0
  -30.5575  -11.7218   20.0694 H   0  0  0  0  0  0
  -29.8811  -11.7231   17.6457 H   0  0  0  0  0  0
  -29.6216  -13.4562   17.6893 H   0  0  0  0  0  0
  -27.9833  -11.2824   19.0051 H   0  0  0  0  0  0
  -27.4208  -12.4432   17.8390 H   0  0  0  0  0  0
  -27.6168  -14.2497   19.4384 H   0  0  0  0  0  0
  -28.8034  -12.2854   21.4528 H   0  0  0  0  0  0
  -28.3561  -13.9372   21.8065 H   0  0  0  0  0  0
  -25.2643   -9.5705   22.4746 H   0  0  0  0  0  0
  -23.9931   -7.4585   22.7373 H   0  0  0  0  0  0
  -21.0760   -8.8689   19.8867 H   0  0  0  0  0  0
  -22.3534  -10.9661   19.6150 H   0  0  0  0  0  0
  -21.1934   -7.6069   23.9681 H   0  0  0  0  0  0
  -21.1534   -6.0431   25.9050 H   0  0  0  0  0  0
  -22.0589   -2.7538   23.2831 H   0  0  0  0  0  0
  -22.3939  -12.0119   22.5124 H   0  0  0  0  0  0
  -21.0888  -13.1276   22.2429 H   0  0  0  0  0  0
  -24.6813  -15.8676   20.5704 H   0  0  0  0  0  0
  -26.2862  -15.6213   20.1004 H   0  0  0  0  0  0
  -26.7291  -32.5275   23.0923 H   0  0  0  0  0  0
  -25.0049  -33.9600   25.0279 H   0  0  0  0  0  0
  -22.7590  -31.2842   21.3776 H   0  0  0  0  0  0
  -23.3849  -35.9480   23.3260 H   0  0  0  0  0  0
  -24.3544  -36.8899   22.2028 H   0  0  0  0  0  0
  -23.7203  -37.6369   23.6709 H   0  0  0  0  0  0
  -26.1933  -31.4147   20.6080 H   0  0  0  0  0  0
  -26.8809  -30.7403   22.0487 H   0  0  0  0  0  0
  -28.0836  -28.6868   21.3702 H   0  0  0  0  0  0
  -25.9411  -25.8118   18.9750 H   0  0  0  0  0  0
  -24.0307  -27.3150   18.9056 H   0  0  0  0  0  0
  -23.8159  -30.5464   19.3943 H   0  0  0  0  0  0
  -22.8005  -29.2086   19.8414 H   0  0  0  0  0  0
  -25.1325  -36.1834   25.0799 H   0  0  0  0  0  0
  -21.0195  -28.3471   24.1352 H   0  0  0  0  0  0
  -20.5875  -26.2358   23.3680 H   0  0  0  0  0  0
  -21.6735  -26.7427   22.1291 H   0  0  0  0  0  0
  -19.7127  -25.6440   21.1093 H   0  0  0  0  0  0
  -19.6929  -27.3468   20.6855 H   0  0  0  0  0  0
  -17.4326  -26.6917   21.3898 H   0  0  0  0  0  0
  -18.0317  -26.0089   22.8822 H   0  0  0  0  0  0
  -19.8020  -30.7350   24.2136 H   0  0  0  0  0  0
  -17.5027  -31.6214   24.5333 H   0  0  0  0  0  0
  -15.5407  -30.2949   23.7700 H   0  0  0  0  0  0
  -15.8757  -28.0964   22.6880 H   0  0  0  0  0  0
  -24.5773  -30.7189   25.7620 H   0  0  0  0  0  0
  -24.8800  -32.3005   26.4640 H   0  0  0  0  0  0
  -25.7772  -30.8973   27.0198 H   0  0  0  0  0  0
  -26.3030  -29.6644   24.1254 H   0  0  0  0  0  0
  -27.3943  -29.7243   25.4864 H   0  0  0  0  0  0
  -27.8937  -30.4194   23.9678 H   0  0  0  0  0  0
  -27.2633  -33.3680   26.1909 H   0  0  0  0  0  0
  -28.3784  -32.6824   25.0160 H   0  0  0  0  0  0
  -28.0760  -31.8504   26.5318 H   0  0  0  0  0  0
  -28.2519  -38.0127   24.7624 H   0  0  0  0  0  0
  -28.1182  -36.2653   24.6096 H   0  0  0  0  0  0
  -27.2295  -37.1175   25.8814 H   0  0  0  0  0  0
  -20.9546  -29.8777   21.6723 H   0  0  0  0  0  0
  -26.0157  -38.2823   24.1546 H   0  0  0  0  0  0
  -28.6623  -20.3411   23.1148 H   0  0  0  0  0  0
  -25.6372  -24.7923   21.0721 H   0  0  0  0  0  0
  -26.3865  -25.7211   22.4131 H   0  0  0  0  0  0
  -25.0506  -24.6091   22.6653 H   0  0  0  0  0  0
  -25.9562  -24.4834   24.7842 H   0  0  0  0  0  0
  -26.4156  -23.0590   25.6882 H   0  0  0  0  0  0
  -25.0149  -22.9917   24.6343 H   0  0  0  0  0  0
  -27.4707  -24.2518   19.3033 H   0  0  0  0  0  0
  -29.1148  -24.2191   19.7303 H   0  0  0  0  0  0
  -29.9279  -19.1829   21.9749 H   0  0  0  0  0  0
  -28.2817  -18.8560   21.4906 H   0  0  0  0  0  0
  -30.8770  -17.9558   19.9882 H   0  0  0  0  0  0
  -29.3191  -17.8078   19.2794 H   0  0  0  0  0  0
  -29.3271  -20.8995   19.6882 H   0  0  0  0  0  0
  -28.8138  -16.0059   21.0689 H   0  0  0  0  0  0
  1 25  1  0  0  0
  1 30  2  0  0  0
  1 83  1  0  0  0
  2  3  1  0  0  0
  2 25  1  0  0  0
  2 84  1  0  0  0
  2 85  1  0  0  0
  3  4  1  0  0  0
  3 86  1  0  0  0
  3 87  1  0  0  0
  4  5  1  0  0  0
  4 88  1  0  0  0
  4 89  1  0  0  0
  5  6  1  0  0  0
  5 26  1  0  0  0
  5 90  1  0  0  0
  6 25  1  0  0  0
  6 91  1  0  0  0
  6 92  1  0  0  0
  7  8  2  0  0  0
  7 26  1  0  0  0
  7 29  1  0  0  0
  8  9  1  0  0  0
  8 22  1  0  0  0
  9 10  1  0  0  0
  9 27  2  0  0  0
 10 11  2  0  0  0
 10 15  1  0  0  0
 11 12  1  0  0  0
 11 93  1  0  0  0
 12 13  2  0  0  0
 12 94  1  0  0  0
 13 14  1  0  0  0
 13 31  1  0  0  0
 14 15  2  0  0  0
 14 95  1  0  0  0
 15 96  1  0  0  0
 16 17  2  0  0  0
 16 21  1  0  0  0
 16 31  1  0  0  0
 17 18  1  0  0  0
 17 97  1  0  0  0
 18 19  2  0  0  0
 18 98  1  0  0  0
 19 20  1  0  0  0
 19 24  1  0  0  0
 20 21  2  0  0  0
 20 99  1  0  0  0
 21 23  1  0  0  0
 22 28  1  0  0  0
 22 32  2  0  0  0
 26 27  1  0  0  0
 28100  1  0  0  0
 28101  1  0  0  0
 29102  1  0  0  0
 29103  1  0  0  0
 33 34  1  0  0  0
 33 66  1  0  0  0
 33 70  2  0  0  0
 34 36  1  0  0  0
 34 59  1  0  0  0
 34104  1  0  0  0
 35 44  2  0  0  0
 35 45  1  0  0  0
 35 68  1  0  0  0
 36 56  1  0  0  0
 36105  1  0  0  0
 37 39  1  0  0  0
 37 47  1  0  0  0
 37 66  1  0  0  0
 37106  1  0  0  0
 38 43  2  0  0  0
 38 46  1  0  0  0
 38 47  1  0  0  0
 39 64  1  0  0  0
 39 67  2  0  0  0
 40 52  1  0  0  0
 40 53  2  0  0  0
 40 58  1  0  0  0
 41107  1  0  0  0
 41108  1  0  0  0
 41109  1  0  0  0
 41 48  1  0  0  0
 42 43  1  0  0  0
 42 66  1  0  0  0
 42110  1  0  0  0
 42111  1  0  0  0
 43 44  1  0  0  0
 44112  1  0  0  0
 45 46  2  0  0  0
 45113  1  0  0  0
 46114  1  0  0  0
 47115  1  0  0  0
 47116  1  0  0  0
 48 56  1  0  0  0
 48 65  1  0  0  0
 48117  1  0  0  0
 49 50  1  0  0  0
 49 53  1  0  0  0
 49 64  1  0  0  0
 49118  1  0  0  0
 50 51  1  0  0  0
 50119  1  0  0  0
 50120  1  0  0  0
 51 52  1  0  0  0
 51121  1  0  0  0
 51122  1  0  0  0
 52123  1  0  0  0
 52124  1  0  0  0
 53 54  1  0  0  0
 54 55  2  0  0  0
 54125  1  0  0  0
 55 57  1  0  0  0
 55126  1  0  0  0
 56 69  2  0  0  0
 57 58  2  0  0  0
 57127  1  0  0  0
 58128  1  0  0  0
 59 60  1  0  0  0
 59 61  1  0  0  0
 59 62  1  0  0  0
 60129  1  0  0  0
 60130  1  0  0  0
 60131  1  0  0  0
 61132  1  0  0  0
 61133  1  0  0  0
 61134  1  0  0  0
 62135  1  0  0  0
 62136  1  0  0  0
 62137  1  0  0  0
 63 65  1  0  0  0
 63138  1  0  0  0
 63139  1  0  0  0
 63140  1  0  0  0
 64141  1  0  0  0
 65142  1  0  0  0
 68 78  1  0  0  0
 71 74  2  0  0  0
 71 81  1  0  0  0
 71143  1  0  0  0
 72 73  2  0  0  0
 72 74  1  0  0  0
 72 78  1  0  0  0
 73 75  1  0  0  0
 73 76  1  0  0  0
 74 82  1  0  0  0
 75 77  1  0  0  0
 75 81  2  0  0  0
 76144  1  0  0  0
 76145  1  0  0  0
 76146  1  0  0  0
 77147  1  0  0  0
 77148  1  0  0  0
 77149  1  0  0  0
 78150  1  0  0  0
 78151  1  0  0  0
 79 80  1  0  0  0
 79 82  1  0  0  0
 79152  1  0  0  0
 79153  1  0  0  0
 80 83  1  0  0  0
 80154  1  0  0  0
 80155  1  0  0  0
 82156  1  0  0  0
 83157  1  0  0  0
M  ISO  4   1 100  68 101  78 101  83 100
M  END
> <chiral flag>
0

> <version>
0

> <s_m_source_file>
/data/baiqing/PycharmProjects/Reinvent-master-3.2/result/LINK_invent/BTK/process_docking_weight1_custom_sum_contain_oxygen_bond_distance_aromatic_linkinvent_7_9_3/rearranged_h_0136.sdf

> <i_m_source_file_index>
36

> <r_mmod_Potential_Energy-OPLS-2005>
729.689331054688

> <r_mmod_Stretch_Energy-OPLS-2005>
384.766693115234

> <r_mmod_Bend_Energy-OPLS-2005>
376.390380859375

> <r_mmod_Torsional_Energy-OPLS-2005>
240.599899291992

> <r_mmod_Improper_Torsional_Energy-OPLS-2005>
4.85275983810425

> <r_mmod_Van_der_Waal_Energy-OPLS-2005>
150.557205200195

> <r_mmod_Electrostatic_Energy-OPLS-2005>
-461.520416259766

> <r_mmod_Solvation_Energy-OPLS-2005>
-246.181457519531

> <b_mmod_Minimization_Converged-OPLS-2005>
0

> <r_mmod_RMS_Derivative-OPLS-2005>
8.84370899200439

$$$$
38
                    3D
 Structure written by MMmdl.
178187  0  0  1  0            999 V2000
  -30.7855  -14.3380   20.6183 C   0  0  0  0  0  0
  -30.3914  -12.2421   19.4174 C   0  0  0  0  0  0
  -29.4824  -12.5073   18.2041 C   0  0  0  0  0  0
  -28.0023  -12.3934   18.6110 C   0  0  0  0  0  0
  -27.6640  -13.2116   19.8870 C   0  0  2  0  0  0
  -28.6991  -12.9692   21.0099 C   0  0  0  0  0  0
  -25.2576  -13.8194   20.5680 C   0  0  0  0  0  0
  -24.1827  -13.0450   20.9178 C   0  0  0  0  0  0
  -24.6393  -11.6927   20.8743 C   0  0  0  0  0  0
  -23.9064  -10.4309   21.0407 C   0  0  0  0  0  0
  -24.3618   -9.4227   21.9182 C   0  0  0  0  0  0
  -23.6291   -8.2254   22.0751 C   0  0  0  0  0  0
  -22.4274   -8.0293   21.3540 C   0  0  0  0  0  0
  -21.9919   -9.0265   20.4637 C   0  0  0  0  0  0
  -22.7242  -10.2141   20.3052 C   0  0  0  0  0  0
  -21.6860   -6.0742   22.5273 C   0  0  0  0  0  0
  -21.4014   -6.5637   23.8209 C   0  0  0  0  0  0
  -21.3661   -5.6788   24.9168 C   0  0  0  0  0  0
  -21.6046   -4.3056   24.7220 C   0  0  0  0  0  0
  -21.8824   -3.8150   23.4339 C   0  0  0  0  0  0
  -21.9190   -4.6965   22.3393 C   0  0  0  0  0  0
  -22.7850  -13.5238   21.1826 C   0  0  0  0  0  0
  -22.1662   -4.2156   21.0973 F   0  0  0  0  0  0
  -21.5631   -3.4539   25.7729 F   0  0  0  0  0  0
  -30.0418  -13.2162   20.4616 N   0  0  0  0  0  0
  -26.3028  -12.9370   20.3422 N   0  0  0  0  0  0
  -25.9317  -11.6521   20.5787 N   0  0  0  0  0  0
  -22.0501  -12.8218   22.0382 N   0  0  0  0  0  0
  -25.4305  -15.1900   20.4065 N   0  0  0  0  0  0
  -31.8630  -14.5028   20.0393 O   0  0  0  0  0  0
  -21.6638   -6.8890   21.4242 O   0  0  0  0  0  0
  -22.3539  -14.5554   20.6687 O   0  0  0  0  0  0
  -24.5997  -31.8712   23.2144 C   0  0  0  0  0  0
  -25.8953  -32.4842   23.8386 C   0  0  1  0  0  0
  -27.2645  -27.5208   20.1014 C   0  0  0  0  0  0
  -25.5853  -33.8634   24.2352 N   0  0  0  0  0  0
  -23.3821  -30.4895   21.5538 C   0  0  2  0  0  0
  -24.8350  -28.9630   20.1092 C   0  0  0  0  0  0
  -22.7317  -29.4649   22.5073 C   0  0  0  0  0  0
  -18.0230  -28.1328   22.8502 C   0  0  0  0  0  0
  -24.1490  -36.7321   23.2632 C   0  0  0  0  0  0
  -25.8938  -30.8714   21.3458 C   0  0  0  0  0  0
  -25.9783  -29.5090   20.7005 C   0  0  0  0  0  0
  -27.1865  -28.7992   20.6953 C   0  0  0  0  0  0
  -26.1132  -26.9845   19.4856 C   0  0  0  0  0  0
  -24.8938  -27.6951   19.4967 C   0  0  0  0  0  0
  -23.5821  -29.8069   20.1704 C   0  0  0  0  0  0
  -25.4111  -36.3128   24.0328 C   0  0  1  0  0  0
  -20.5810  -28.3603   23.1371 C   0  0  2  0  0  0
  -20.6708  -26.9350   22.5455 C   0  0  0  0  0  0
  -19.5726  -26.6376   21.5196 C   0  0  0  0  0  0
  -18.1882  -26.7911   22.1566 C   0  0  0  0  0  0
  -19.1479  -28.8788   23.2928 C   0  0  0  0  0  0
  -18.9416  -30.1389   23.8950 C   0  0  0  0  0  0
  -17.6428  -30.6558   24.0559 C   0  0  0  0  0  0
  -25.9018  -34.9479   23.5141 C   0  0  0  0  0  0
  -16.5314  -29.9061   23.6321 C   0  0  0  0  0  0
  -16.7219  -28.6454   23.0378 C   0  0  0  0  0  0
  -26.4417  -31.6580   25.0667 C   0  0  0  0  0  0
  -25.3718  -31.3642   26.1447 C   0  0  0  0  0  0
  -27.0231  -30.3051   24.5928 C   0  0  0  0  0  0
  -27.6015  -32.4287   25.7439 C   0  0  0  0  0  0
  -27.5599  -37.1786   24.8442 C   0  0  0  0  0  0
  -21.4057  -29.2980   22.3818 N   0  0  0  0  0  0
  -26.4311  -37.3793   23.9381 N   0  0  0  0  0  0
  -24.6430  -31.0897   22.0995 N   0  0  0  0  0  0
  -23.4156  -28.8212   23.3072 O   0  0  0  0  0  0
  -28.4203  -26.7755   20.1109 O   0  0  0  0  0  0
  -26.5599  -34.8908   22.4717 O   0  0  0  0  0  0
  -23.5227  -32.1409   23.7633 O   0  0  0  0  0  0
  -31.7460  -18.5518   20.0964 C   0  0  0  0  0  0
  -31.4210  -18.7729   22.6047 C   0  0  0  0  0  0
  -30.7508  -17.3964   20.0952 C   0  0  0  0  0  0
  -30.4948  -17.5326   22.5869 C   0  0  0  0  0  0
  -30.3095  -24.6582   20.9014 C   0  0  0  0  0  0
  -28.2639  -24.8787   22.3908 C   0  0  0  0  0  0
  -30.5655  -26.1628   21.0098 C   0  0  0  0  0  0
  -28.5677  -26.3816   22.5268 C   0  0  0  0  0  0
  -31.4650  -19.5450   21.2505 C   0  0  2  0  0  0
  -30.9107  -16.6300   21.4208 C   0  0  1  0  0  0
  -29.5543  -24.0761   22.1261 C   0  0  1  0  0  0
  -29.2677  -26.9262   21.2611 C   0  0  2  0  0  0
  -30.9659  -21.6304   18.8151 C   0  0  0  0  0  0
  -29.8951  -20.8335   19.5854 C   0  0  0  0  0  0
  -30.4189  -21.7417   21.9404 C   0  0  0  0  0  0
  -30.2282  -20.4759   21.0643 C   0  0  2  0  0  0
  -30.2641  -15.3200   21.3684 N   0  0  0  0  0  0
  -29.2436  -22.6387   21.9389 N   0  3  0  0  0  0
  -31.4405  -12.2928   19.1217 H   0  0  0  0  0  0
  -30.2454  -11.2290   19.7956 H   0  0  0  0  0  0
  -29.7068  -11.8016   17.4033 H   0  0  0  0  0  0
  -29.6813  -13.5021   17.8021 H   0  0  0  0  0  0
  -27.7811  -11.3382   18.7741 H   0  0  0  0  0  0
  -27.3644  -12.7145   17.7864 H   0  0  0  0  0  0
  -27.7208  -14.2653   19.6136 H   0  0  0  0  0  0
  -28.6416  -11.9392   21.3660 H   0  0  0  0  0  0
  -28.4740  -13.5903   21.8778 H   0  0  0  0  0  0
  -25.2766   -9.5693   22.4763 H   0  0  0  0  0  0
  -24.0004   -7.4647   22.7480 H   0  0  0  0  0  0
  -21.0861   -8.8793   19.8939 H   0  0  0  0  0  0
  -22.3718  -10.9687   19.6161 H   0  0  0  0  0  0
  -21.2013   -7.6152   23.9713 H   0  0  0  0  0  0
  -21.1477   -6.0519   25.9072 H   0  0  0  0  0  0
  -22.0602   -2.7615   23.2833 H   0  0  0  0  0  0
  -22.4122  -11.9849   22.4717 H   0  0  0  0  0  0
  -21.1116  -13.1238   22.2597 H   0  0  0  0  0  0
  -24.6703  -15.8527   20.5140 H   0  0  0  0  0  0
  -26.2906  -15.6235   20.0932 H   0  0  0  0  0  0
  -26.7028  -32.5581   23.1161 H   0  0  0  0  0  0
  -25.0051  -33.9795   25.0540 H   0  0  0  0  0  0
  -22.6604  -31.2979   21.4138 H   0  0  0  0  0  0
  -23.3754  -35.9653   23.3274 H   0  0  0  0  0  0
  -24.3608  -36.8952   22.2055 H   0  0  0  0  0  0
  -23.7210  -37.6486   23.6692 H   0  0  0  0  0  0
  -25.9776  -31.6387   20.5752 H   0  0  0  0  0  0
  -26.7900  -30.9416   21.9495 H   0  0  0  0  0  0
  -28.0437  -29.2677   21.1541 H   0  0  0  0  0  0
  -26.1601  -26.0143   19.0132 H   0  0  0  0  0  0
  -24.0179  -27.2667   19.0275 H   0  0  0  0  0  0
  -23.6473  -30.5691   19.3932 H   0  0  0  0  0  0
  -22.7172  -29.1963   19.9053 H   0  0  0  0  0  0
  -25.1285  -36.2017   25.0823 H   0  0  0  0  0  0
  -20.9863  -28.3153   24.1500 H   0  0  0  0  0  0
  -20.5532  -26.2197   23.3611 H   0  0  0  0  0  0
  -21.6595  -26.7369   22.1301 H   0  0  0  0  0  0
  -19.6870  -25.6293   21.1215 H   0  0  0  0  0  0
  -19.6711  -27.3195   20.6742 H   0  0  0  0  0  0
  -17.4179  -26.6718   21.3930 H   0  0  0  0  0  0
  -18.0196  -26.0003   22.8897 H   0  0  0  0  0  0
  -19.7889  -30.7162   24.2380 H   0  0  0  0  0  0
  -17.4991  -31.6251   24.5140 H   0  0  0  0  0  0
  -15.5316  -30.2979   23.7642 H   0  0  0  0  0  0
  -15.8595  -28.0776   22.7126 H   0  0  0  0  0  0
  -24.6021  -30.6814   25.7827 H   0  0  0  0  0  0
  -24.8751  -32.2766   26.4776 H   0  0  0  0  0  0
  -25.8142  -30.8985   27.0275 H   0  0  0  0  0  0
  -26.2729  -29.6836   24.1028 H   0  0  0  0  0  0
  -27.4082  -29.7238   25.4310 H   0  0  0  0  0  0
  -27.8524  -30.4385   23.8968 H   0  0  0  0  0  0
  -27.2645  -33.3593   26.2022 H   0  0  0  0  0  0
  -28.3825  -32.6821   25.0259 H   0  0  0  0  0  0
  -28.0677  -31.8399   26.5341 H   0  0  0  0  0  0
  -28.2613  -38.0093   24.7530 H   0  0  0  0  0  0
  -28.1088  -36.2617   24.6240 H   0  0  0  0  0  0
  -27.2323  -37.1409   25.8847 H   0  0  0  0  0  0
  -20.9191  -29.8732   21.7094 H   0  0  0  0  0  0
  -26.0205  -38.2864   24.1434 H   0  0  0  0  0  0
  -31.7688  -19.0168   19.1150 H   0  0  0  0  0  0
  -32.7521  -18.1467   20.2220 H   0  0  0  0  0  0
  -32.4335  -18.4403   22.8400 H   0  0  0  0  0  0
  -31.1398  -19.4210   23.4328 H   0  0  0  0  0  0
  -30.9603  -16.7685   19.2296 H   0  0  0  0  0  0
  -29.7273  -17.7533   19.9665 H   0  0  0  0  0  0
  -29.4498  -17.8291   22.4956 H   0  0  0  0  0  0
  -30.5869  -16.9961   23.5318 H   0  0  0  0  0  0
  -31.2840  -24.1940   20.7757 H   0  0  0  0  0  0
  -29.7420  -24.4618   19.9906 H   0  0  0  0  0  0
  -27.5508  -24.7244   21.5784 H   0  0  0  0  0  0
  -27.7726  -24.5245   23.2986 H   0  0  0  0  0  0
  -31.0498  -26.5288   20.1040 H   0  0  0  0  0  0
  -31.2636  -26.3598   21.8234 H   0  0  0  0  0  0
  -29.2095  -26.5413   23.3960 H   0  0  0  0  0  0
  -27.6519  -26.9341   22.7388 H   0  0  0  0  0  0
  -32.3391  -20.1973   21.2777 H   0  0  0  0  0  0
  -31.9737  -16.4287   21.5768 H   0  0  0  0  0  0
  -30.1837  -24.1707   23.0133 H   0  0  0  0  0  0
  -29.5737  -27.9588   21.4140 H   0  0  0  0  0  0
  -30.6726  -21.7497   17.7715 H   0  0  0  0  0  0
  -31.9421  -21.1505   18.8247 H   0  0  0  0  0  0
  -31.1059  -22.6286   19.2158 H   0  0  0  0  0  0
  -29.6715  -19.9210   19.0314 H   0  0  0  0  0  0
  -28.9590  -21.3913   19.5463 H   0  0  0  0  0  0
  -31.3139  -22.2573   21.5998 H   0  0  0  0  0  0
  -30.6291  -21.4862   22.9776 H   0  0  0  0  0  0
  -29.3574  -19.9352   21.4386 H   0  0  0  0  0  0
  -29.3866  -15.1725   21.8447 H   0  0  0  0  0  0
  -28.7418  -22.5170   21.0749 H   0  0  0  0  0  0
  -28.6349  -22.3398   22.6853 H   0  0  0  0  0  0
  1 25  1  0  0  0
  1 30  2  0  0  0
  1 87  1  0  0  0
  2  3  1  0  0  0
  2 25  1  0  0  0
  2 89  1  0  0  0
  2 90  1  0  0  0
  3  4  1  0  0  0
  3 91  1  0  0  0
  3 92  1  0  0  0
  4  5  1  0  0  0
  4 93  1  0  0  0
  4 94  1  0  0  0
  5  6  1  0  0  0
  5 26  1  0  0  0
  5 95  1  0  0  0
  6 25  1  0  0  0
  6 96  1  0  0  0
  6 97  1  0  0  0
  7  8  2  0  0  0
  7 26  1  0  0  0
  7 29  1  0  0  0
  8  9  1  0  0  0
  8 22  1  0  0  0
  9 10  1  0  0  0
  9 27  2  0  0  0
 10 11  2  0  0  0
 10 15  1  0  0  0
 11 12  1  0  0  0
 11 98  1  0  0  0
 12 13  2  0  0  0
 12 99  1  0  0  0
 13 14  1  0  0  0
 13 31  1  0  0  0
 14 15  2  0  0  0
 14100  1  0  0  0
 15101  1  0  0  0
 16 17  2  0  0  0
 16 21  1  0  0  0
 16 31  1  0  0  0
 17 18  1  0  0  0
 17102  1  0  0  0
 18 19  2  0  0  0
 18103  1  0  0  0
 19 20  1  0  0  0
 19 24  1  0  0  0
 20 21  2  0  0  0
 20104  1  0  0  0
 21 23  1  0  0  0
 22 28  1  0  0  0
 22 32  2  0  0  0
 26 27  1  0  0  0
 28105  1  0  0  0
 28106  1  0  0  0
 29107  1  0  0  0
 29108  1  0  0  0
 33 34  1  0  0  0
 33 66  1  0  0  0
 33 70  2  0  0  0
 34 36  1  0  0  0
 34 59  1  0  0  0
 34109  1  0  0  0
 35 44  2  0  0  0
 35 45  1  0  0  0
 35 68  1  0  0  0
 36 56  1  0  0  0
 36110  1  0  0  0
 37 39  1  0  0  0
 37 47  1  0  0  0
 37 66  1  0  0  0
 37111  1  0  0  0
 38 43  2  0  0  0
 38 46  1  0  0  0
 38 47  1  0  0  0
 39 64  1  0  0  0
 39 67  2  0  0  0
 40 52  1  0  0  0
 40 53  2  0  0  0
 40 58  1  0  0  0
 41112  1  0  0  0
 41113  1  0  0  0
 41114  1  0  0  0
 41 48  1  0  0  0
 42 43  1  0  0  0
 42 66  1  0  0  0
 42115  1  0  0  0
 42116  1  0  0  0
 43 44  1  0  0  0
 44117  1  0  0  0
 45 46  2  0  0  0
 45118  1  0  0  0
 46119  1  0  0  0
 47120  1  0  0  0
 47121  1  0  0  0
 48 56  1  0  0  0
 48 65  1  0  0  0
 48122  1  0  0  0
 49 50  1  0  0  0
 49 53  1  0  0  0
 49 64  1  0  0  0
 49123  1  0  0  0
 50 51  1  0  0  0
 50124  1  0  0  0
 50125  1  0  0  0
 51 52  1  0  0  0
 51126  1  0  0  0
 51127  1  0  0  0
 52128  1  0  0  0
 52129  1  0  0  0
 53 54  1  0  0  0
 54 55  2  0  0  0
 54130  1  0  0  0
 55 57  1  0  0  0
 55131  1  0  0  0
 56 69  2  0  0  0
 57 58  2  0  0  0
 57132  1  0  0  0
 58133  1  0  0  0
 59 60  1  0  0  0
 59 61  1  0  0  0
 59 62  1  0  0  0
 60134  1  0  0  0
 60135  1  0  0  0
 60136  1  0  0  0
 61137  1  0  0  0
 61138  1  0  0  0
 61139  1  0  0  0
 62140  1  0  0  0
 62141  1  0  0  0
 62142  1  0  0  0
 63 65  1  0  0  0
 63143  1  0  0  0
 63144  1  0  0  0
 63145  1  0  0  0
 64146  1  0  0  0
 65147  1  0  0  0
 68 82  1  0  0  0
 71 73  1  0  0  0
 71148  1  0  0  0
 71149  1  0  0  0
 71 79  1  0  0  0
 72 74  1  0  0  0
 72 79  1  0  0  0
 72150  1  0  0  0
 72151  1  0  0  0
 73 80  1  0  0  0
 73152  1  0  0  0
 73153  1  0  0  0
 74 80  1  0  0  0
 74154  1  0  0  0
 74155  1  0  0  0
 75 77  1  0  0  0
 75 81  1  0  0  0
 75156  1  0  0  0
 75157  1  0  0  0
 76 78  1  0  0  0
 76 81  1  0  0  0
 76158  1  0  0  0
 76159  1  0  0  0
 77 82  1  0  0  0
 77160  1  0  0  0
 77161  1  0  0  0
 78 82  1  0  0  0
 78162  1  0  0  0
 78163  1  0  0  0
 79 86  1  0  0  0
 79164  1  0  0  0
 80 87  1  0  0  0
 80165  1  0  0  0
 81 88  1  0  0  0
 81166  1  0  0  0
 82167  1  0  0  0
 83 84  1  0  0  0
 83168  1  0  0  0
 83169  1  0  0  0
 83170  1  0  0  0
 84171  1  0  0  0
 84172  1  0  0  0
 84 86  1  0  0  0
 85 86  1  0  0  0
 85 88  1  0  0  0
 85173  1  0  0  0
 85174  1  0  0  0
 86175  1  0  0  0
 87176  1  0  0  0
 88177  1  0  0  0
 88178  1  0  0  0
M  CHG  1  88   1
M  ISO  4   1 100  68 101  82 101  87 100
M  END
> <chiral flag>
0

> <version>
0

> <s_m_source_file>
/data/baiqing/PycharmProjects/Reinvent-master-3.2/result/LINK_invent/BTK/process_docking_weight1_custom_sum_contain_oxygen_bond_distance_aromatic_linkinvent_7_9_3/rearranged_h_0136.sdf

> <i_m_source_file_index>
37

> <r_mmod_Potential_Energy-OPLS-2005>
-123.369483947754

> <r_mmod_Stretch_Energy-OPLS-2005>
35.4360046386719

> <r_mmod_Bend_Energy-OPLS-2005>
114.976997375488

> <r_mmod_Torsional_Energy-OPLS-2005>
270.623413085938

> <r_mmod_Improper_Torsional_Energy-OPLS-2005>
2.35650396347046

> <r_mmod_Van_der_Waal_Energy-OPLS-2005>
167.222610473633

> <r_mmod_Electrostatic_Energy-OPLS-2005>
-294.228485107422

> <r_mmod_Solvation_Energy-OPLS-2005>
-430.16943359375

> <b_mmod_Minimization_Converged-OPLS-2005>
0

> <r_mmod_RMS_Derivative-OPLS-2005>
3.11682295799255

$$$$
39
                    3D
 Structure written by MMmdl.
160169  0  0  1  0            999 V2000
  -30.5720  -14.9092   20.3810 C   0  0  0  0  0  0
  -30.4402  -12.5636   19.4581 C   0  0  0  0  0  0
  -29.5036  -12.4873   18.2295 C   0  0  0  0  0  0
  -28.0390  -12.3025   18.6702 C   0  0  0  0  0  0
  -27.6298  -13.2331   19.8432 C   0  0  2  0  0  0
  -28.6892  -13.2725   20.9606 C   0  0  0  0  0  0
  -25.2525  -13.8205   20.5821 C   0  0  0  0  0  0
  -24.1774  -13.0444   20.9257 C   0  0  0  0  0  0
  -24.6369  -11.6922   20.8786 C   0  0  0  0  0  0
  -23.9070  -10.4285   21.0463 C   0  0  0  0  0  0
  -24.3631   -9.4189   21.9235 C   0  0  0  0  0  0
  -23.6313   -8.2210   22.0774 C   0  0  0  0  0  0
  -22.4289   -8.0276   21.3557 C   0  0  0  0  0  0
  -21.9939   -9.0256   20.4658 C   0  0  0  0  0  0
  -22.7263  -10.2140   20.3087 C   0  0  0  0  0  0
  -21.6833   -6.0767   22.5292 C   0  0  0  0  0  0
  -21.4006   -6.5665   23.8235 C   0  0  0  0  0  0
  -21.3649   -5.6807   24.9190 C   0  0  0  0  0  0
  -21.6044   -4.3069   24.7233 C   0  0  0  0  0  0
  -21.8815   -3.8174   23.4346 C   0  0  0  0  0  0
  -21.9190   -4.6998   22.3409 C   0  0  0  0  0  0
  -22.7803  -13.5260   21.1864 C   0  0  0  0  0  0
  -22.1662   -4.2177   21.0988 F   0  0  0  0  0  0
  -21.5612   -3.4550   25.7752 F   0  0  0  0  0  0
  -29.9461  -13.6697   20.3204 N   0  0  0  0  0  0
  -26.2921  -12.9379   20.3395 N   0  0  0  0  0  0
  -25.9301  -11.6522   20.5808 N   0  0  0  0  0  0
  -22.0447  -12.8202   22.0396 N   0  0  0  0  0  0
  -25.4262  -15.1921   20.4298 N   0  0  0  0  0  0
  -31.8038  -14.9158   20.2674 O   0  0  0  0  0  0
  -21.6630   -6.8895   21.4246 O   0  0  0  0  0  0
  -22.3489  -14.5556   20.6694 O   0  0  0  0  0  0
  -24.6373  -31.8507   23.1888 C   0  0  0  0  0  0
  -25.9174  -32.4716   23.8265 C   0  0  1  0  0  0
  -27.2203  -27.2030   20.1378 C   0  0  0  0  0  0
  -25.5924  -33.8526   24.2180 N   0  0  0  0  0  0
  -23.4357  -30.4747   21.5331 C   0  0  2  0  0  0
  -24.8852  -28.9139   20.1043 C   0  0  0  0  0  0
  -22.7520  -29.4610   22.4835 C   0  0  0  0  0  0
  -18.0292  -28.1368   22.8466 C   0  0  0  0  0  0
  -24.1492  -36.7265   23.2647 C   0  0  0  0  0  0
  -25.9876  -30.7526   21.3732 C   0  0  0  0  0  0
  -26.0617  -29.3691   20.7136 C   0  0  0  0  0  0
  -27.2311  -28.5311   20.7096 C   0  0  0  0  0  0
  -26.0142  -26.8315   19.5023 C   0  0  0  0  0  0
  -24.8725  -27.6572   19.4841 C   0  0  0  0  0  0
  -23.6568  -29.8067   20.1505 C   0  0  0  0  0  0
  -25.4126  -36.3053   24.0320 C   0  0  1  0  0  0
  -20.5906  -28.3717   23.1200 C   0  0  2  0  0  0
  -20.6749  -26.9403   22.5408 C   0  0  0  0  0  0
  -19.5746  -26.6360   21.5207 C   0  0  0  0  0  0
  -18.1922  -26.7917   22.1579 C   0  0  0  0  0  0
  -19.1550  -28.8844   23.2840 C   0  0  0  0  0  0
  -18.9468  -30.1441   23.8908 C   0  0  0  0  0  0
  -17.6450  -30.6546   24.0570 C   0  0  0  0  0  0
  -25.9078  -34.9419   23.5062 C   0  0  0  0  0  0
  -16.5364  -29.9042   23.6314 C   0  0  0  0  0  0
  -16.7285  -28.6463   23.0348 C   0  0  0  0  0  0
  -26.4528  -31.6558   25.0665 C   0  0  0  0  0  0
  -25.3709  -31.3726   26.1339 C   0  0  0  0  0  0
  -27.0363  -30.2939   24.6204 C   0  0  0  0  0  0
  -27.6067  -32.4309   25.7458 C   0  0  0  0  0  0
  -27.5580  -37.1792   24.8468 C   0  0  0  0  0  0
  -21.4210  -29.3054   22.3566 N   0  0  0  0  0  0
  -26.4302  -37.3745   23.9400 N   0  0  0  0  0  0
  -24.7069  -31.0461   22.0869 N   0  0  0  0  0  0
  -23.4201  -28.8168   23.2949 O   0  0  0  0  0  0
  -28.2968  -26.2634   20.1953 O   0  0  0  0  0  0
  -26.5675  -34.8928   22.4647 O   0  0  0  0  0  0
  -23.5516  -32.1324   23.7187 O   0  0  0  0  0  0
  -30.4595  -21.2598   20.3472 C   0  0  0  0  0  0
  -30.5750  -19.8230   20.4603 C   0  0  0  0  0  0
  -28.1177  -21.1255   20.5713 C   0  0  0  0  0  0
  -29.2337  -22.0017   20.3982 C   0  0  0  0  0  0
  -29.4694  -18.9391   20.6502 C   0  0  0  0  0  0
  -28.2226  -19.6781   20.7061 C   0  0  0  0  0  0
  -28.9363  -16.0878   17.6790 C   0  0  0  0  0  0
  -29.1328  -17.5416   17.9670 C   0  0  0  0  0  0
  -30.0050  -16.5106   18.6774 C   0  0  0  0  0  0
  -26.9077  -18.9737   20.9939 C   0  0  0  0  0  0
  -29.2632  -23.6426   20.3419 C   0  0  0  0  0  0
  -29.6793  -17.3412   21.0057 C   0  0  0  0  0  0
  -28.0499  -24.7442   20.1374 C   0  0  0  0  0  0
  -29.8526  -16.0997   20.0625 N   0  0  0  0  0  0
  -31.4681  -12.7317   19.1227 H   0  0  0  0  0  0
  -30.4465  -11.6205   20.0056 H   0  0  0  0  0  0
  -29.8008  -11.6571   17.5873 H   0  0  0  0  0  0
  -29.5830  -13.3913   17.6236 H   0  0  0  0  0  0
  -27.9224  -11.2600   18.9702 H   0  0  0  0  0  0
  -27.3695  -12.4527   17.8243 H   0  0  0  0  0  0
  -27.5826  -14.2317   19.4269 H   0  0  0  0  0  0
  -28.7923  -12.3028   21.4493 H   0  0  0  0  0  0
  -28.4118  -13.9947   21.7294 H   0  0  0  0  0  0
  -25.2784   -9.5623   22.4805 H   0  0  0  0  0  0
  -24.0017   -7.4584   22.7473 H   0  0  0  0  0  0
  -21.0890   -8.8804   19.8954 H   0  0  0  0  0  0
  -22.3786  -10.9691   19.6173 H   0  0  0  0  0  0
  -21.1993   -7.6177   23.9729 H   0  0  0  0  0  0
  -21.1476   -6.0556   25.9095 H   0  0  0  0  0  0
  -22.0601   -2.7635   23.2841 H   0  0  0  0  0  0
  -22.4084  -11.9850   22.4737 H   0  0  0  0  0  0
  -21.1057  -13.1168   22.2621 H   0  0  0  0  0  0
  -24.6717  -15.8580   20.5578 H   0  0  0  0  0  0
  -26.2957  -15.6233   20.1452 H   0  0  0  0  0  0
  -26.7259  -32.5324   23.1028 H   0  0  0  0  0  0
  -24.9990  -33.9645   25.0273 H   0  0  0  0  0  0
  -22.7358  -31.3004   21.3823 H   0  0  0  0  0  0
  -23.3753  -35.9593   23.3301 H   0  0  0  0  0  0
  -24.3591  -36.8899   22.2065 H   0  0  0  0  0  0
  -23.7267  -37.6475   23.6676 H   0  0  0  0  0  0
  -26.1335  -31.5222   20.6139 H   0  0  0  0  0  0
  -26.8615  -30.7971   22.0119 H   0  0  0  0  0  0
  -28.1317  -28.8842   21.1928 H   0  0  0  0  0  0
  -25.9229  -25.8703   19.0217 H   0  0  0  0  0  0
  -23.9746  -27.3027   18.9961 H   0  0  0  0  0  0
  -23.7811  -30.5821   19.3933 H   0  0  0  0  0  0
  -22.7730  -29.2450   19.8419 H   0  0  0  0  0  0
  -25.1323  -36.1883   25.0814 H   0  0  0  0  0  0
  -20.9985  -28.3310   24.1310 H   0  0  0  0  0  0
  -20.5557  -26.2375   23.3675 H   0  0  0  0  0  0
  -21.6611  -26.7310   22.1238 H   0  0  0  0  0  0
  -19.6917  -25.6250   21.1282 H   0  0  0  0  0  0
  -19.6697  -27.3163   20.6754 H   0  0  0  0  0  0
  -17.4240  -26.6709   21.3940 H   0  0  0  0  0  0
  -18.0276  -26.0037   22.8932 H   0  0  0  0  0  0
  -19.7949  -30.7234   24.2307 H   0  0  0  0  0  0
  -17.4978  -31.6232   24.5139 H   0  0  0  0  0  0
  -15.5357  -30.2938   23.7549 H   0  0  0  0  0  0
  -15.8701  -28.0778   22.7046 H   0  0  0  0  0  0
  -24.5887  -30.7086   25.7631 H   0  0  0  0  0  0
  -24.8880  -32.2889   26.4723 H   0  0  0  0  0  0
  -25.7971  -30.8900   27.0132 H   0  0  0  0  0  0
  -26.2943  -29.6661   24.1222 H   0  0  0  0  0  0
  -27.4006  -29.7252   25.4780 H   0  0  0  0  0  0
  -27.8853  -30.4176   23.9469 H   0  0  0  0  0  0
  -27.2657  -33.3614   26.2021 H   0  0  0  0  0  0
  -28.3882  -32.6869   25.0280 H   0  0  0  0  0  0
  -28.0708  -31.8409   26.5379 H   0  0  0  0  0  0
  -28.2609  -38.0080   24.7494 H   0  0  0  0  0  0
  -28.1075  -36.2612   24.6316 H   0  0  0  0  0  0
  -27.2285  -37.1453   25.8871 H   0  0  0  0  0  0
  -20.9383  -29.8787   21.6784 H   0  0  0  0  0  0
  -26.0170  -38.2815   24.1382 H   0  0  0  0  0  0
  -31.3823  -21.8165   20.2607 H   0  0  0  0  0  0
  -31.5669  -19.3943   20.4608 H   0  0  0  0  0  0
  -27.1373  -21.5757   20.6524 H   0  0  0  0  0  0
  -29.2698  -15.7031   16.7159 H   0  0  0  0  0  0
  -27.9753  -15.7123   18.0131 H   0  0  0  0  0  0
  -28.2951  -18.0177   18.4701 H   0  0  0  0  0  0
  -29.6062  -18.1407   17.1896 H   0  0  0  0  0  0
  -31.0297  -16.4814   18.3011 H   0  0  0  0  0  0
  -26.1761  -19.2011   20.2183 H   0  0  0  0  0  0
  -26.5162  -19.3512   21.9400 H   0  0  0  0  0  0
  -26.9705  -17.8915   21.0570 H   0  0  0  0  0  0
  -29.9709  -23.8655   19.5445 H   0  0  0  0  0  0
  -29.7815  -23.9433   21.2493 H   0  0  0  0  0  0
  -30.5237  -17.3101   21.6965 H   0  0  0  0  0  0
  -28.8377  -17.0712   21.6405 H   0  0  0  0  0  0
  -27.2756  -24.5254   20.8717 H   0  0  0  0  0  0
  -27.6036  -24.5244   19.1674 H   0  0  0  0  0  0
  1 25  1  0  0  0
  1 30  2  0  0  0
  1 84  1  0  0  0
  2  3  1  0  0  0
  2 25  1  0  0  0
  2 85  1  0  0  0
  2 86  1  0  0  0
  3  4  1  0  0  0
  3 87  1  0  0  0
  3 88  1  0  0  0
  4  5  1  0  0  0
  4 89  1  0  0  0
  4 90  1  0  0  0
  5  6  1  0  0  0
  5 26  1  0  0  0
  5 91  1  0  0  0
  6 25  1  0  0  0
  6 92  1  0  0  0
  6 93  1  0  0  0
  7  8  2  0  0  0
  7 26  1  0  0  0
  7 29  1  0  0  0
  8  9  1  0  0  0
  8 22  1  0  0  0
  9 10  1  0  0  0
  9 27  2  0  0  0
 10 11  2  0  0  0
 10 15  1  0  0  0
 11 12  1  0  0  0
 11 94  1  0  0  0
 12 13  2  0  0  0
 12 95  1  0  0  0
 13 14  1  0  0  0
 13 31  1  0  0  0
 14 15  2  0  0  0
 14 96  1  0  0  0
 15 97  1  0  0  0
 16 17  2  0  0  0
 16 21  1  0  0  0
 16 31  1  0  0  0
 17 18  1  0  0  0
 17 98  1  0  0  0
 18 19  2  0  0  0
 18 99  1  0  0  0
 19 20  1  0  0  0
 19 24  1  0  0  0
 20 21  2  0  0  0
 20100  1  0  0  0
 21 23  1  0  0  0
 22 28  1  0  0  0
 22 32  2  0  0  0
 26 27  1  0  0  0
 28101  1  0  0  0
 28102  1  0  0  0
 29103  1  0  0  0
 29104  1  0  0  0
 33 34  1  0  0  0
 33 66  1  0  0  0
 33 70  2  0  0  0
 34 36  1  0  0  0
 34 59  1  0  0  0
 34105  1  0  0  0
 35 44  2  0  0  0
 35 45  1  0  0  0
 35 68  1  0  0  0
 36 56  1  0  0  0
 36106  1  0  0  0
 37 39  1  0  0  0
 37 47  1  0  0  0
 37 66  1  0  0  0
 37107  1  0  0  0
 38 43  2  0  0  0
 38 46  1  0  0  0
 38 47  1  0  0  0
 39 64  1  0  0  0
 39 67  2  0  0  0
 40 52  1  0  0  0
 40 53  2  0  0  0
 40 58  1  0  0  0
 41108  1  0  0  0
 41109  1  0  0  0
 41110  1  0  0  0
 41 48  1  0  0  0
 42 43  1  0  0  0
 42 66  1  0  0  0
 42111  1  0  0  0
 42112  1  0  0  0
 43 44  1  0  0  0
 44113  1  0  0  0
 45 46  2  0  0  0
 45114  1  0  0  0
 46115  1  0  0  0
 47116  1  0  0  0
 47117  1  0  0  0
 48 56  1  0  0  0
 48 65  1  0  0  0
 48118  1  0  0  0
 49 50  1  0  0  0
 49 53  1  0  0  0
 49 64  1  0  0  0
 49119  1  0  0  0
 50 51  1  0  0  0
 50120  1  0  0  0
 50121  1  0  0  0
 51 52  1  0  0  0
 51122  1  0  0  0
 51123  1  0  0  0
 52124  1  0  0  0
 52125  1  0  0  0
 53 54  1  0  0  0
 54 55  2  0  0  0
 54126  1  0  0  0
 55 57  1  0  0  0
 55127  1  0  0  0
 56 69  2  0  0  0
 57 58  2  0  0  0
 57128  1  0  0  0
 58129  1  0  0  0
 59 60  1  0  0  0
 59 61  1  0  0  0
 59 62  1  0  0  0
 60130  1  0  0  0
 60131  1  0  0  0
 60132  1  0  0  0
 61133  1  0  0  0
 61134  1  0  0  0
 61135  1  0  0  0
 62136  1  0  0  0
 62137  1  0  0  0
 62138  1  0  0  0
 63 65  1  0  0  0
 63139  1  0  0  0
 63140  1  0  0  0
 63141  1  0  0  0
 64142  1  0  0  0
 65143  1  0  0  0
 68 83  1  0  0  0
 71 72  2  0  0  0
 71 74  1  0  0  0
 71144  1  0  0  0
 72 75  1  0  0  0
 72145  1  0  0  0
 73 74  2  0  0  0
 73 76  1  0  0  0
 73146  1  0  0  0
 74 81  1  0  0  0
 75 76  2  0  0  0
 75 82  1  0  0  0
 76 80  1  0  0  0
 77 78  1  0  0  0
 77 79  1  0  0  0
 77147  1  0  0  0
 77148  1  0  0  0
 78 79  1  0  0  0
 78149  1  0  0  0
 78150  1  0  0  0
 79 84  1  0  0  0
 79151  1  0  0  0
 80152  1  0  0  0
 80153  1  0  0  0
 80154  1  0  0  0
 81 83  1  0  0  0
 81155  1  0  0  0
 81156  1  0  0  0
 82 84  1  0  0  0
 82157  1  0  0  0
 82158  1  0  0  0
 83159  1  0  0  0
 83160  1  0  0  0
M  ISO  4   1 100  68 101  83 101  84 100
M  END
> <chiral flag>
0

> <version>
0

> <s_m_source_file>
/data/baiqing/PycharmProjects/Reinvent-master-3.2/result/LINK_invent/BTK/process_docking_weight1_custom_sum_contain_oxygen_bond_distance_aromatic_linkinvent_7_9_3/rearranged_h_0136.sdf

> <i_m_source_file_index>
38

> <r_mmod_Potential_Energy-OPLS-2005>
649.0029296875

> <r_mmod_Stretch_Energy-OPLS-2005>
202.635971069336

> <r_mmod_Bend_Energy-OPLS-2005>
259.16845703125

> <r_mmod_Torsional_Energy-OPLS-2005>
380.515045166016

> <r_mmod_Improper_Torsional_Energy-OPLS-2005>
20.5579624176025

> <r_mmod_Van_der_Waal_Energy-OPLS-2005>
129.152969360352

> <r_mmod_Electrostatic_Energy-OPLS-2005>
-309.243591308594

> <r_mmod_Solvation_Energy-OPLS-2005>
-190.359405517578

> <b_mmod_Minimization_Converged-OPLS-2005>
0

> <r_mmod_RMS_Derivative-OPLS-2005>
5.84002733230591

$$$$
40
                    3D
 Structure written by MMmdl.
166175  0  0  1  0            999 V2000
  -30.7017  -14.4512   20.5734 C   0  0  0  0  0  0
  -30.4210  -12.2913   19.4226 C   0  0  0  0  0  0
  -29.4948  -12.5034   18.2074 C   0  0  0  0  0  0
  -28.0147  -12.3682   18.6174 C   0  0  0  0  0  0
  -27.6631  -13.2045   19.8775 C   0  0  2  0  0  0
  -28.7018  -12.9713   20.9977 C   0  0  0  0  0  0
  -25.2592  -13.8162   20.5677 C   0  0  0  0  0  0
  -24.1838  -13.0443   20.9172 C   0  0  0  0  0  0
  -24.6386  -11.6907   20.8733 C   0  0  0  0  0  0
  -23.9054  -10.4293   21.0404 C   0  0  0  0  0  0
  -24.3611   -9.4210   21.9180 C   0  0  0  0  0  0
  -23.6289   -8.2244   22.0754 C   0  0  0  0  0  0
  -22.4271   -8.0281   21.3546 C   0  0  0  0  0  0
  -21.9903   -9.0251   20.4647 C   0  0  0  0  0  0
  -22.7229  -10.2130   20.3052 C   0  0  0  0  0  0
  -21.6851   -6.0734   22.5279 C   0  0  0  0  0  0
  -21.4012   -6.5639   23.8214 C   0  0  0  0  0  0
  -21.3659   -5.6790   24.9174 C   0  0  0  0  0  0
  -21.6043   -4.3051   24.7224 C   0  0  0  0  0  0
  -21.8819   -3.8145   23.4343 C   0  0  0  0  0  0
  -21.9193   -4.6963   22.3399 C   0  0  0  0  0  0
  -22.7860  -13.5242   21.1839 C   0  0  0  0  0  0
  -22.1658   -4.2148   21.0976 F   0  0  0  0  0  0
  -21.5630   -3.4531   25.7733 F   0  0  0  0  0  0
  -30.0376  -13.2705   20.4516 N   0  0  0  0  0  0
  -26.3026  -12.9326   20.3369 N   0  0  0  0  0  0
  -25.9314  -11.6488   20.5766 N   0  0  0  0  0  0
  -22.0500  -12.8230   22.0393 N   0  0  0  0  0  0
  -25.4325  -15.1877   20.4082 N   0  0  0  0  0  0
  -31.8293  -14.6247   20.1020 O   0  0  0  0  0  0
  -21.6638   -6.8876   21.4241 O   0  0  0  0  0  0
  -22.3548  -14.5554   20.6699 O   0  0  0  0  0  0
  -24.6111  -31.8696   23.2117 C   0  0  0  0  0  0
  -25.9012  -32.4835   23.8409 C   0  0  1  0  0  0
  -27.2488  -27.4522   20.1068 C   0  0  0  0  0  0
  -25.5876  -33.8632   24.2342 N   0  0  0  0  0  0
  -23.4000  -30.4907   21.5501 C   0  0  2  0  0  0
  -24.8525  -28.9561   20.1184 C   0  0  0  0  0  0
  -22.7398  -29.4658   22.4996 C   0  0  0  0  0  0
  -18.0262  -28.1381   22.8496 C   0  0  0  0  0  0
  -24.1480  -36.7319   23.2629 C   0  0  0  0  0  0
  -25.9243  -30.8414   21.3621 C   0  0  0  0  0  0
  -26.0063  -29.4723   20.7211 C   0  0  0  0  0  0
  -27.2056  -28.7269   20.7226 C   0  0  0  0  0  0
  -26.0839  -26.9554   19.4884 C   0  0  0  0  0  0
  -24.8842  -27.6934   19.5004 C   0  0  0  0  0  0
  -23.6110  -29.8188   20.1657 C   0  0  0  0  0  0
  -25.4090  -36.3117   24.0345 C   0  0  1  0  0  0
  -20.5851  -28.3658   23.1329 C   0  0  2  0  0  0
  -20.6752  -26.9399   22.5426 C   0  0  0  0  0  0
  -19.5734  -26.6390   21.5220 C   0  0  0  0  0  0
  -18.1910  -26.7931   22.1625 C   0  0  0  0  0  0
  -19.1512  -28.8837   23.2910 C   0  0  0  0  0  0
  -18.9445  -30.1446   23.8916 C   0  0  0  0  0  0
  -17.6448  -30.6589   24.0568 C   0  0  0  0  0  0
  -25.9027  -34.9484   23.5145 C   0  0  0  0  0  0
  -16.5337  -29.9094   23.6328 C   0  0  0  0  0  0
  -16.7251  -28.6513   23.0345 C   0  0  0  0  0  0
  -26.4458  -31.6598   25.0719 C   0  0  0  0  0  0
  -25.3745  -31.3706   26.1488 C   0  0  0  0  0  0
  -27.0274  -30.3045   24.6060 C   0  0  0  0  0  0
  -27.6052  -32.4304   25.7464 C   0  0  0  0  0  0
  -27.5600  -37.1774   24.8431 C   0  0  0  0  0  0
  -21.4128  -29.3027   22.3741 N   0  0  0  0  0  0
  -26.4265  -37.3815   23.9452 N   0  0  0  0  0  0
  -24.6630  -31.0812   22.1009 N   0  0  0  0  0  0
  -23.4185  -28.8200   23.3026 O   0  0  0  0  0  0
  -28.3786  -26.6652   20.0489 O   0  0  0  0  0  0
  -26.5596  -34.8934   22.4710 O   0  0  0  0  0  0
  -23.5310  -32.1429   23.7529 O   0  0  0  0  0  0
  -31.1023  -18.8873   20.0428 C   0  0  0  0  0  0
  -31.0280  -17.4852   20.1418 C   0  0  0  0  0  0
  -29.3767  -19.1039   21.7328 C   0  0  0  0  0  0
  -30.2816  -19.7137   20.8362 C   0  0  0  0  0  0
  -29.2967  -17.6931   21.8390 C   0  0  0  0  0  0
  -30.1330  -16.8622   21.0474 C   0  0  0  0  0  0
  -29.1217  -21.9681   20.3133 C   0  0  0  0  0  0
  -30.9441  -21.8908   22.0021 C   0  0  0  0  0  0
  -29.3828  -23.4820   20.1041 C   0  0  0  0  0  0
  -31.2086  -23.3928   21.7726 C   0  0  0  0  0  0
  -30.4131  -21.2364   20.7207 C   0  0  1  0  0  0
  -28.2994  -17.0839   22.8116 C   0  0  0  0  0  0
  -30.3300  -25.5814   21.0633 C   0  0  0  0  0  0
  -29.1524  -26.5665   21.2438 C   0  0  0  0  0  0
  -29.9993  -15.4388   21.1651 N   0  0  0  0  0  0
  -30.0068  -24.1372   21.2921 N   0  3  1  0  0  0
  -31.4666  -12.3838   19.1232 H   0  0  0  0  0  0
  -30.3146  -11.2778   19.8125 H   0  0  0  0  0  0
  -29.7324  -11.7832   17.4232 H   0  0  0  0  0  0
  -29.6686  -13.4918   17.7781 H   0  0  0  0  0  0
  -27.8211  -11.3119   18.8091 H   0  0  0  0  0  0
  -27.3657  -12.6473   17.7865 H   0  0  0  0  0  0
  -27.7124  -14.2546   19.5879 H   0  0  0  0  0  0
  -28.6705  -11.9326   21.3299 H   0  0  0  0  0  0
  -28.4620  -13.5615   21.8828 H   0  0  0  0  0  0
  -25.2761   -9.5683   22.4746 H   0  0  0  0  0  0
  -24.0002   -7.4633   22.7470 H   0  0  0  0  0  0
  -21.0837   -8.8764   19.8952 H   0  0  0  0  0  0
  -22.3693  -10.9662   19.6154 H   0  0  0  0  0  0
  -21.2001   -7.6148   23.9718 H   0  0  0  0  0  0
  -21.1478   -6.0516   25.9078 H   0  0  0  0  0  0
  -22.0596   -2.7607   23.2839 H   0  0  0  0  0  0
  -22.4108  -11.9884   22.4769 H   0  0  0  0  0  0
  -21.1119  -13.1259   22.2598 H   0  0  0  0  0  0
  -24.6664  -15.8440   20.5122 H   0  0  0  0  0  0
  -26.2851  -15.6239   20.0800 H   0  0  0  0  0  0
  -26.7088  -32.5570   23.1188 H   0  0  0  0  0  0
  -25.0015  -33.9797   25.0481 H   0  0  0  0  0  0
  -22.6875  -31.3060   21.4089 H   0  0  0  0  0  0
  -23.3764  -35.9625   23.3233 H   0  0  0  0  0  0
  -24.3601  -36.8987   22.2057 H   0  0  0  0  0  0
  -23.7193  -37.6495   23.6670 H   0  0  0  0  0  0
  -26.0260  -31.6019   20.5866 H   0  0  0  0  0  0
  -26.8157  -30.9067   21.9738 H   0  0  0  0  0  0
  -28.0880  -29.1499   21.1807 H   0  0  0  0  0  0
  -26.1053  -25.9885   19.0054 H   0  0  0  0  0  0
  -23.9992  -27.2901   19.0275 H   0  0  0  0  0  0
  -23.7167  -30.5907   19.4026 H   0  0  0  0  0  0
  -22.7375  -29.2337   19.8717 H   0  0  0  0  0  0
  -25.1251  -36.1966   25.0832 H   0  0  0  0  0  0
  -20.9939  -28.3218   24.1450 H   0  0  0  0  0  0
  -20.5654  -26.2267   23.3614 H   0  0  0  0  0  0
  -21.6625  -26.7446   22.1215 H   0  0  0  0  0  0
  -19.6894  -25.6308   21.1232 H   0  0  0  0  0  0
  -19.6678  -27.3218   20.6765 H   0  0  0  0  0  0
  -17.4187  -26.6691   21.4018 H   0  0  0  0  0  0
  -18.0297  -26.0067   22.9012 H   0  0  0  0  0  0
  -19.7922  -30.7252   24.2295 H   0  0  0  0  0  0
  -17.5008  -31.6272   24.5165 H   0  0  0  0  0  0
  -15.5340  -30.3004   23.7646 H   0  0  0  0  0  0
  -15.8650  -28.0844   22.7042 H   0  0  0  0  0  0
  -24.5890  -30.7078   25.7837 H   0  0  0  0  0  0
  -24.8967  -32.2865   26.4973 H   0  0  0  0  0  0
  -25.8112  -30.8849   27.0223 H   0  0  0  0  0  0
  -26.2796  -29.6816   24.1135 H   0  0  0  0  0  0
  -27.4079  -29.7265   25.4491 H   0  0  0  0  0  0
  -27.8618  -30.4377   23.9172 H   0  0  0  0  0  0
  -27.2689  -33.3599   26.2071 H   0  0  0  0  0  0
  -28.3839  -32.6869   25.0268 H   0  0  0  0  0  0
  -28.0744  -31.8404   26.5350 H   0  0  0  0  0  0
  -28.2507  -38.0182   24.7662 H   0  0  0  0  0  0
  -28.1210  -36.2735   24.6007 H   0  0  0  0  0  0
  -27.2368  -37.1106   25.8834 H   0  0  0  0  0  0
  -20.9283  -29.8766   21.6981 H   0  0  0  0  0  0
  -26.0152  -38.2867   24.1568 H   0  0  0  0  0  0
  -31.8042  -19.3226   19.3450 H   0  0  0  0  0  0
  -31.6729  -16.9139   19.4924 H   0  0  0  0  0  0
  -28.7403  -19.7258   22.3469 H   0  0  0  0  0  0
  -28.7335  -21.5408   19.3879 H   0  0  0  0  0  0
  -28.3463  -21.8233   21.0662 H   0  0  0  0  0  0
  -30.2431  -21.7510   22.8261 H   0  0  0  0  0  0
  -31.8737  -21.4077   22.3054 H   0  0  0  0  0  0
  -28.4450  -23.9818   19.8596 H   0  0  0  0  0  0
  -30.0350  -23.6142   19.2390 H   0  0  0  0  0  0
  -32.0156  -23.5104   21.0470 H   0  0  0  0  0  0
  -31.5668  -23.8328   22.7045 H   0  0  0  0  0  0
  -31.1472  -21.4235   19.9344 H   0  0  0  0  0  0
  -27.7602  -17.8522   23.3662 H   0  0  0  0  0  0
  -28.8077  -16.4476   23.5368 H   0  0  0  0  0  0
  -27.5624  -16.4821   22.2789 H   0  0  0  0  0  0
  -31.0751  -25.8780   21.8031 H   0  0  0  0  0  0
  -30.8123  -25.7282   20.0961 H   0  0  0  0  0  0
  -29.5740  -27.5455   21.4726 H   0  0  0  0  0  0
  -28.5283  -26.2825   22.0927 H   0  0  0  0  0  0
  -29.1621  -15.1233   21.6290 H   0  0  0  0  0  0
  -29.3328  -24.0974   22.0440 H   0  0  0  0  0  0
  1 25  1  0  0  0
  1 30  2  0  0  0
  1 85  1  0  0  0
  2  3  1  0  0  0
  2 25  1  0  0  0
  2 87  1  0  0  0
  2 88  1  0  0  0
  3  4  1  0  0  0
  3 89  1  0  0  0
  3 90  1  0  0  0
  4  5  1  0  0  0
  4 91  1  0  0  0
  4 92  1  0  0  0
  5  6  1  0  0  0
  5 26  1  0  0  0
  5 93  1  0  0  0
  6 25  1  0  0  0
  6 94  1  0  0  0
  6 95  1  0  0  0
  7  8  2  0  0  0
  7 26  1  0  0  0
  7 29  1  0  0  0
  8  9  1  0  0  0
  8 22  1  0  0  0
  9 10  1  0  0  0
  9 27  2  0  0  0
 10 11  2  0  0  0
 10 15  1  0  0  0
 11 12  1  0  0  0
 11 96  1  0  0  0
 12 13  2  0  0  0
 12 97  1  0  0  0
 13 14  1  0  0  0
 13 31  1  0  0  0
 14 15  2  0  0  0
 14 98  1  0  0  0
 15 99  1  0  0  0
 16 17  2  0  0  0
 16 21  1  0  0  0
 16 31  1  0  0  0
 17 18  1  0  0  0
 17100  1  0  0  0
 18 19  2  0  0  0
 18101  1  0  0  0
 19 20  1  0  0  0
 19 24  1  0  0  0
 20 21  2  0  0  0
 20102  1  0  0  0
 21 23  1  0  0  0
 22 28  1  0  0  0
 22 32  2  0  0  0
 26 27  1  0  0  0
 28103  1  0  0  0
 28104  1  0  0  0
 29105  1  0  0  0
 29106  1  0  0  0
 33 34  1  0  0  0
 33 66  1  0  0  0
 33 70  2  0  0  0
 34 36  1  0  0  0
 34 59  1  0  0  0
 34107  1  0  0  0
 35 44  2  0  0  0
 35 45  1  0  0  0
 35 68  1  0  0  0
 36 56  1  0  0  0
 36108  1  0  0  0
 37 39  1  0  0  0
 37 47  1  0  0  0
 37 66  1  0  0  0
 37109  1  0  0  0
 38 43  2  0  0  0
 38 46  1  0  0  0
 38 47  1  0  0  0
 39 64  1  0  0  0
 39 67  2  0  0  0
 40 52  1  0  0  0
 40 53  2  0  0  0
 40 58  1  0  0  0
 41110  1  0  0  0
 41111  1  0  0  0
 41112  1  0  0  0
 41 48  1  0  0  0
 42 43  1  0  0  0
 42 66  1  0  0  0
 42113  1  0  0  0
 42114  1  0  0  0
 43 44  1  0  0  0
 44115  1  0  0  0
 45 46  2  0  0  0
 45116  1  0  0  0
 46117  1  0  0  0
 47118  1  0  0  0
 47119  1  0  0  0
 48 56  1  0  0  0
 48 65  1  0  0  0
 48120  1  0  0  0
 49 50  1  0  0  0
 49 53  1  0  0  0
 49 64  1  0  0  0
 49121  1  0  0  0
 50 51  1  0  0  0
 50122  1  0  0  0
 50123  1  0  0  0
 51 52  1  0  0  0
 51124  1  0  0  0
 51125  1  0  0  0
 52126  1  0  0  0
 52127  1  0  0  0
 53 54  1  0  0  0
 54 55  2  0  0  0
 54128  1  0  0  0
 55 57  1  0  0  0
 55129  1  0  0  0
 56 69  2  0  0  0
 57 58  2  0  0  0
 57130  1  0  0  0
 58131  1  0  0  0
 59 60  1  0  0  0
 59 61  1  0  0  0
 59 62  1  0  0  0
 60132  1  0  0  0
 60133  1  0  0  0
 60134  1  0  0  0
 61135  1  0  0  0
 61136  1  0  0  0
 61137  1  0  0  0
 62138  1  0  0  0
 62139  1  0  0  0
 62140  1  0  0  0
 63 65  1  0  0  0
 63141  1  0  0  0
 63142  1  0  0  0
 63143  1  0  0  0
 64144  1  0  0  0
 65145  1  0  0  0
 68 84  1  0  0  0
 71 72  2  0  0  0
 71 74  1  0  0  0
 71146  1  0  0  0
 72 76  1  0  0  0
 72147  1  0  0  0
 73 74  2  0  0  0
 73 75  1  0  0  0
 73148  1  0  0  0
 74 81  1  0  0  0
 75 76  2  0  0  0
 75 82  1  0  0  0
 76 85  1  0  0  0
 77 79  1  0  0  0
 77 81  1  0  0  0
 77149  1  0  0  0
 77150  1  0  0  0
 78 80  1  0  0  0
 78 81  1  0  0  0
 78151  1  0  0  0
 78152  1  0  0  0
 79 86  1  0  0  0
 79153  1  0  0  0
 79154  1  0  0  0
 80 86  1  0  0  0
 80155  1  0  0  0
 80156  1  0  0  0
 81157  1  0  0  0
 82158  1  0  0  0
 82159  1  0  0  0
 82160  1  0  0  0
 83 84  1  0  0  0
 83161  1  0  0  0
 83162  1  0  0  0
 83 86  1  0  0  0
 84163  1  0  0  0
 84164  1  0  0  0
 85165  1  0  0  0
 86166  1  0  0  0
M  CHG  1  86   1
M  ISO  4   1 100  68 101  84 101  85 100
M  END
> <chiral flag>
0

> <version>
0

> <s_m_source_file>
/data/baiqing/PycharmProjects/Reinvent-master-3.2/result/LINK_invent/BTK/process_docking_weight1_custom_sum_contain_oxygen_bond_distance_aromatic_linkinvent_7_9_3/rearranged_h_0136.sdf

> <i_m_source_file_index>
39

> <r_mmod_Potential_Energy-OPLS-2005>
-136.557846069336

> <r_mmod_Stretch_Energy-OPLS-2005>
38.6461563110352

> <r_mmod_Bend_Energy-OPLS-2005>
104.562080383301

> <r_mmod_Torsional_Energy-OPLS-2005>
257.339324951172

> <r_mmod_Improper_Torsional_Energy-OPLS-2005>
2.97801494598389

> <r_mmod_Van_der_Waal_Energy-OPLS-2005>
159.07421875

> <r_mmod_Electrostatic_Energy-OPLS-2005>
-291.661376953125

> <r_mmod_Solvation_Energy-OPLS-2005>
-417.758941650391

> <b_mmod_Minimization_Converged-OPLS-2005>
0

> <r_mmod_RMS_Derivative-OPLS-2005>
0.651695370674133

$$$$
42
                    3D
 Structure written by MMmdl.
155164  0  0  1  0            999 V2000
  -30.5793  -14.6321   20.6080 C   0  0  0  0  0  0
  -30.4454  -12.4213   19.4473 C   0  0  0  0  0  0
  -29.5033  -12.5098   18.2250 C   0  0  0  0  0  0
  -28.0256  -12.3371   18.6357 C   0  0  0  0  0  0
  -27.6463  -13.2038   19.8655 C   0  0  2  0  0  0
  -28.6802  -13.0235   20.9949 C   0  0  0  0  0  0
  -25.2510  -13.8157   20.5646 C   0  0  0  0  0  0
  -24.1772  -13.0431   20.9179 C   0  0  0  0  0  0
  -24.6333  -11.6895   20.8727 C   0  0  0  0  0  0
  -23.9014  -10.4281   21.0407 C   0  0  0  0  0  0
  -24.3584   -9.4197   21.9187 C   0  0  0  0  0  0
  -23.6271   -8.2215   22.0745 C   0  0  0  0  0  0
  -22.4245   -8.0267   21.3536 C   0  0  0  0  0  0
  -21.9890   -9.0231   20.4629 C   0  0  0  0  0  0
  -22.7197  -10.2112   20.3046 C   0  0  0  0  0  0
  -21.6853   -6.0715   22.5276 C   0  0  0  0  0  0
  -21.4002   -6.5627   23.8211 C   0  0  0  0  0  0
  -21.3663   -5.6771   24.9176 C   0  0  0  0  0  0
  -21.6040   -4.3039   24.7216 C   0  0  0  0  0  0
  -21.8829   -3.8129   23.4348 C   0  0  0  0  0  0
  -21.9194   -4.6944   22.3398 C   0  0  0  0  0  0
  -22.7804  -13.5216   21.1894 C   0  0  0  0  0  0
  -22.1660   -4.2116   21.0976 F   0  0  0  0  0  0
  -21.5644   -3.4543   25.7749 F   0  0  0  0  0  0
  -29.9882  -13.4084   20.4460 N   0  0  0  0  0  0
  -26.2914  -12.9291   20.3281 N   0  0  0  0  0  0
  -25.9252  -11.6467   20.5747 N   0  0  0  0  0  0
  -22.0480  -12.8154   22.0445 N   0  0  0  0  0  0
  -25.4258  -15.1876   20.4024 N   0  0  0  0  0  0
  -31.7382  -14.8430   20.2291 O   0  0  0  0  0  0
  -21.6642   -6.8847   21.4225 O   0  0  0  0  0  0
  -22.3479  -14.5530   20.6791 O   0  0  0  0  0  0
  -24.6293  -31.8588   23.2084 C   0  0  0  0  0  0
  -25.9146  -32.4770   23.8370 C   0  0  1  0  0  0
  -27.1899  -27.2936   20.1470 C   0  0  0  0  0  0
  -25.5990  -33.8583   24.2314 N   0  0  0  0  0  0
  -23.4200  -30.4930   21.5435 C   0  0  2  0  0  0
  -24.8645  -28.9649   20.0930 C   0  0  0  0  0  0
  -22.7491  -29.4617   22.4872 C   0  0  0  0  0  0
  -18.0298  -28.1388   22.8494 C   0  0  0  0  0  0
  -24.1473  -36.7235   23.2650 C   0  0  0  0  0  0
  -25.9675  -30.7793   21.3911 C   0  0  0  0  0  0
  -26.0307  -29.4137   20.7254 C   0  0  0  0  0  0
  -27.1959  -28.5872   20.7537 C   0  0  0  0  0  0
  -26.0133  -26.9344   19.4371 C   0  0  0  0  0  0
  -24.8630  -27.7335   19.4325 C   0  0  0  0  0  0
  -23.6356  -29.8490   20.1513 C   0  0  0  0  0  0
  -25.4105  -36.3059   24.0344 C   0  0  1  0  0  0
  -20.5906  -28.3672   23.1260 C   0  0  2  0  0  0
  -20.6784  -26.9394   22.5385 C   0  0  0  0  0  0
  -19.5747  -26.6372   21.5227 C   0  0  0  0  0  0
  -18.1927  -26.7939   22.1616 C   0  0  0  0  0  0
  -19.1558  -28.8851   23.2875 C   0  0  0  0  0  0
  -18.9499  -30.1475   23.8873 C   0  0  0  0  0  0
  -17.6489  -30.6584   24.0577 C   0  0  0  0  0  0
  -25.9050  -34.9446   23.5099 C   0  0  0  0  0  0
  -16.5368  -29.9082   23.6370 C   0  0  0  0  0  0
  -16.7287  -28.6512   23.0372 C   0  0  0  0  0  0
  -26.4534  -31.6601   25.0750 C   0  0  0  0  0  0
  -25.3798  -31.3723   26.1516 C   0  0  0  0  0  0
  -27.0437  -30.3038   24.6207 C   0  0  0  0  0  0
  -27.6081  -32.4379   25.7505 C   0  0  0  0  0  0
  -27.5543  -37.1808   24.8512 C   0  0  0  0  0  0
  -21.4196  -29.3057   22.3652 N   0  0  0  0  0  0
  -26.4269  -37.3755   23.9418 N   0  0  0  0  0  0
  -24.6886  -31.0633   22.1009 N   0  0  0  0  0  0
  -23.4250  -28.8162   23.2910 O   0  0  0  0  0  0
  -28.2304  -26.3558   20.2973 O   0  0  0  0  0  0
  -26.5582  -34.8917   22.4654 O   0  0  0  0  0  0
  -23.5454  -32.1396   23.7408 O   0  0  0  0  0  0
  -30.2036  -21.8294   20.0849 C   0  0  0  0  0  0
  -29.6640  -23.1485   19.9109 C   0  0  0  0  0  0
  -28.0055  -22.8535   21.7173 C   0  0  0  0  0  0
  -29.5777  -21.0139   21.0487 C   0  0  0  0  0  0
  -28.5303  -21.5466   21.8565 C   0  0  0  0  0  0
  -28.5651  -23.6750   20.6736 C   0  0  0  0  0  0
  -28.4634  -20.2816   22.6934 C   0  0  0  0  0  0
  -29.7037  -19.6776   21.8261 C   0  0  1  0  0  0
  -27.7857  -24.9411   20.1700 C   0  0  0  0  0  0
  -29.5335  -18.3031   21.0224 C   0  0  0  0  0  0
  -30.0659  -16.9647   21.7142 C   0  0  0  0  0  0
  -29.7632  -15.6180   21.1040 N   0  0  0  0  0  0
  -30.9507  -19.6697   22.5029 O   0  0  0  0  0  0
  -31.4753  -12.6015   19.1386 H   0  0  0  0  0  0
  -30.4334  -11.4207   19.8790 H   0  0  0  0  0  0
  -29.7750  -11.7475   17.4938 H   0  0  0  0  0  0
  -29.6291  -13.4722   17.7270 H   0  0  0  0  0  0
  -27.8667  -11.2825   18.8680 H   0  0  0  0  0  0
  -27.3693  -12.5645   17.7933 H   0  0  0  0  0  0
  -27.6740  -14.2431   19.5372 H   0  0  0  0  0  0
  -28.7035  -11.9855   21.3307 H   0  0  0  0  0  0
  -28.4031  -13.6049   21.8757 H   0  0  0  0  0  0
  -25.2739   -9.5681   22.4758 H   0  0  0  0  0  0
  -23.9997   -7.4600   22.7464 H   0  0  0  0  0  0
  -21.0830   -8.8711   19.8931 H   0  0  0  0  0  0
  -22.3658  -10.9630   19.6141 H   0  0  0  0  0  0
  -21.1973   -7.6135   23.9690 H   0  0  0  0  0  0
  -21.1483   -6.0523   25.9070 H   0  0  0  0  0  0
  -22.0604   -2.7590   23.2863 H   0  0  0  0  0  0
  -22.4130  -11.9793   22.4748 H   0  0  0  0  0  0
  -21.1104  -13.1138   22.2725 H   0  0  0  0  0  0
  -24.6576  -15.8442   20.4995 H   0  0  0  0  0  0
  -26.2673  -15.6170   20.0378 H   0  0  0  0  0  0
  -26.7193  -32.5429   23.1090 H   0  0  0  0  0  0
  -25.0332  -33.9739   25.0581 H   0  0  0  0  0  0
  -22.7136  -31.3146   21.4065 H   0  0  0  0  0  0
  -23.3720  -35.9592   23.3441 H   0  0  0  0  0  0
  -24.3514  -36.8707   22.2033 H   0  0  0  0  0  0
  -23.7271  -37.6489   23.6583 H   0  0  0  0  0  0
  -26.1222  -31.5453   20.6298 H   0  0  0  0  0  0
  -26.8389  -30.8075   22.0311 H   0  0  0  0  0  0
  -28.0741  -28.9108   21.2962 H   0  0  0  0  0  0
  -25.9262  -26.0004   18.9032 H   0  0  0  0  0  0
  -23.9793  -27.3946   18.9083 H   0  0  0  0  0  0
  -23.7588  -30.6353   19.4071 H   0  0  0  0  0  0
  -22.7551  -29.2870   19.8350 H   0  0  0  0  0  0
  -25.1294  -36.1897   25.0829 H   0  0  0  0  0  0
  -21.0001  -28.3243   24.1378 H   0  0  0  0  0  0
  -20.5696  -26.2290   23.3589 H   0  0  0  0  0  0
  -21.6627  -26.7424   22.1156 H   0  0  0  0  0  0
  -19.6898  -25.6292   21.1233 H   0  0  0  0  0  0
  -19.6666  -27.3205   20.6774 H   0  0  0  0  0  0
  -17.4179  -26.6742   21.4024 H   0  0  0  0  0  0
  -18.0284  -26.0063   22.8991 H   0  0  0  0  0  0
  -19.7980  -30.7318   24.2175 H   0  0  0  0  0  0
  -17.5056  -31.6286   24.5180 H   0  0  0  0  0  0
  -15.5388  -30.3000   23.7719 H   0  0  0  0  0  0
  -15.8688  -28.0853   22.7094 H   0  0  0  0  0  0
  -24.5978  -30.7029   25.7901 H   0  0  0  0  0  0
  -24.8987  -32.2886   26.4956 H   0  0  0  0  0  0
  -25.8194  -30.8932   27.0281 H   0  0  0  0  0  0
  -26.3043  -29.6735   24.1242 H   0  0  0  0  0  0
  -27.4199  -29.7312   25.4697 H   0  0  0  0  0  0
  -27.8870  -30.4343   23.9422 H   0  0  0  0  0  0
  -27.2656  -33.3694   26.2009 H   0  0  0  0  0  0
  -28.3924  -32.6926   25.0372 H   0  0  0  0  0  0
  -28.0694  -31.8553   26.5480 H   0  0  0  0  0  0
  -28.2664  -37.9987   24.7411 H   0  0  0  0  0  0
  -28.0920  -36.2538   24.6528 H   0  0  0  0  0  0
  -27.2238  -37.1672   25.8903 H   0  0  0  0  0  0
  -20.9370  -29.8842   21.6907 H   0  0  0  0  0  0
  -26.0157  -38.2829   24.1366 H   0  0  0  0  0  0
  -31.0404  -21.4877   19.4977 H   0  0  0  0  0  0
  -30.0752  -23.7596   19.1227 H   0  0  0  0  0  0
  -27.1802  -23.1863   22.3340 H   0  0  0  0  0  0
  -27.5150  -19.7511   22.5732 H   0  0  0  0  0  0
  -28.6814  -20.4653   23.7466 H   0  0  0  0  0  0
  -26.8032  -24.8390   20.6340 H   0  0  0  0  0  0
  -27.6411  -24.7553   19.1037 H   0  0  0  0  0  0
  -30.0326  -18.3790   20.0539 H   0  0  0  0  0  0
  -28.4771  -18.1822   20.7739 H   0  0  0  0  0  0
  -29.6153  -16.9336   22.7089 H   0  0  0  0  0  0
  -31.1398  -17.0312   21.8801 H   0  0  0  0  0  0
  -28.8220  -15.2884   21.2625 H   0  0  0  0  0  0
  -30.8248  -19.1746   23.3081 H   0  0  0  0  0  0
  1 25  1  0  0  0
  1 30  2  0  0  0
  1 82  1  0  0  0
  2  3  1  0  0  0
  2 25  1  0  0  0
  2 84  1  0  0  0
  2 85  1  0  0  0
  3  4  1  0  0  0
  3 86  1  0  0  0
  3 87  1  0  0  0
  4  5  1  0  0  0
  4 88  1  0  0  0
  4 89  1  0  0  0
  5  6  1  0  0  0
  5 26  1  0  0  0
  5 90  1  0  0  0
  6 25  1  0  0  0
  6 91  1  0  0  0
  6 92  1  0  0  0
  7  8  2  0  0  0
  7 26  1  0  0  0
  7 29  1  0  0  0
  8  9  1  0  0  0
  8 22  1  0  0  0
  9 10  1  0  0  0
  9 27  2  0  0  0
 10 11  2  0  0  0
 10 15  1  0  0  0
 11 12  1  0  0  0
 11 93  1  0  0  0
 12 13  2  0  0  0
 12 94  1  0  0  0
 13 14  1  0  0  0
 13 31  1  0  0  0
 14 15  2  0  0  0
 14 95  1  0  0  0
 15 96  1  0  0  0
 16 17  2  0  0  0
 16 21  1  0  0  0
 16 31  1  0  0  0
 17 18  1  0  0  0
 17 97  1  0  0  0
 18 19  2  0  0  0
 18 98  1  0  0  0
 19 20  1  0  0  0
 19 24  1  0  0  0
 20 21  2  0  0  0
 20 99  1  0  0  0
 21 23  1  0  0  0
 22 28  1  0  0  0
 22 32  2  0  0  0
 26 27  1  0  0  0
 28100  1  0  0  0
 28101  1  0  0  0
 29102  1  0  0  0
 29103  1  0  0  0
 33 34  1  0  0  0
 33 66  1  0  0  0
 33 70  2  0  0  0
 34 36  1  0  0  0
 34 59  1  0  0  0
 34104  1  0  0  0
 35 44  2  0  0  0
 35 45  1  0  0  0
 35 68  1  0  0  0
 36 56  1  0  0  0
 36105  1  0  0  0
 37 39  1  0  0  0
 37 47  1  0  0  0
 37 66  1  0  0  0
 37106  1  0  0  0
 38 43  2  0  0  0
 38 46  1  0  0  0
 38 47  1  0  0  0
 39 64  1  0  0  0
 39 67  2  0  0  0
 40 52  1  0  0  0
 40 53  2  0  0  0
 40 58  1  0  0  0
 41107  1  0  0  0
 41108  1  0  0  0
 41109  1  0  0  0
 41 48  1  0  0  0
 42 43  1  0  0  0
 42 66  1  0  0  0
 42110  1  0  0  0
 42111  1  0  0  0
 43 44  1  0  0  0
 44112  1  0  0  0
 45 46  2  0  0  0
 45113  1  0  0  0
 46114  1  0  0  0
 47115  1  0  0  0
 47116  1  0  0  0
 48 56  1  0  0  0
 48 65  1  0  0  0
 48117  1  0  0  0
 49 50  1  0  0  0
 49 53  1  0  0  0
 49 64  1  0  0  0
 49118  1  0  0  0
 50 51  1  0  0  0
 50119  1  0  0  0
 50120  1  0  0  0
 51 52  1  0  0  0
 51121  1  0  0  0
 51122  1  0  0  0
 52123  1  0  0  0
 52124  1  0  0  0
 53 54  1  0  0  0
 54 55  2  0  0  0
 54125  1  0  0  0
 55 57  1  0  0  0
 55126  1  0  0  0
 56 69  2  0  0  0
 57 58  2  0  0  0
 57127  1  0  0  0
 58128  1  0  0  0
 59 60  1  0  0  0
 59 61  1  0  0  0
 59 62  1  0  0  0
 60129  1  0  0  0
 60130  1  0  0  0
 60131  1  0  0  0
 61132  1  0  0  0
 61133  1  0  0  0
 61134  1  0  0  0
 62135  1  0  0  0
 62136  1  0  0  0
 62137  1  0  0  0
 63 65  1  0  0  0
 63138  1  0  0  0
 63139  1  0  0  0
 63140  1  0  0  0
 64141  1  0  0  0
 65142  1  0  0  0
 68 79  1  0  0  0
 71 72  2  0  0  0
 71 74  1  0  0  0
 71143  1  0  0  0
 72 76  1  0  0  0
 72144  1  0  0  0
 73 75  1  0  0  0
 73 76  2  0  0  0
 73145  1  0  0  0
 74 75  2  0  0  0
 74 78  1  0  0  0
 75 77  1  0  0  0
 76 79  1  0  0  0
 77 78  1  0  0  0
 77146  1  0  0  0
 77147  1  0  0  0
 78 80  1  0  0  0
 78 83  1  0  0  0
 79148  1  0  0  0
 79149  1  0  0  0
 80 81  1  0  0  0
 80150  1  0  0  0
 80151  1  0  0  0
 81 82  1  0  0  0
 81152  1  0  0  0
 81153  1  0  0  0
 82154  1  0  0  0
 83155  1  0  0  0
M  ISO  4   1 100  68 101  79 101  82 100
M  END
> <chiral flag>
0

> <version>
0

> <s_m_source_file>
/data/baiqing/PycharmProjects/Reinvent-master-3.2/result/LINK_invent/BTK/process_docking_weight1_custom_sum_contain_oxygen_bond_distance_aromatic_linkinvent_7_9_3/rearranged_h_0136.sdf

> <i_m_source_file_index>
40

> <r_mmod_Potential_Energy-OPLS-2005>
478.753540039062

> <r_mmod_Stretch_Energy-OPLS-2005>
103.204025268555

> <r_mmod_Bend_Energy-OPLS-2005>
504.907653808594

> <r_mmod_Torsional_Energy-OPLS-2005>
229.383712768555

> <r_mmod_Improper_Torsional_Energy-OPLS-2005>
7.33572244644165

> <r_mmod_Van_der_Waal_Energy-OPLS-2005>
151.037612915039

> <r_mmod_Electrostatic_Energy-OPLS-2005>
-351.582427978516

> <r_mmod_Solvation_Energy-OPLS-2005>
-236.954650878906

> <b_mmod_Minimization_Converged-OPLS-2005>
0

> <r_mmod_RMS_Derivative-OPLS-2005>
6.07343244552612

$$$$
43
                    3D
 Structure written by MMmdl.
154162  0  0  1  0            999 V2000
  -30.6723  -14.6361   20.4736 C   0  0  0  0  0  0
  -30.4177  -12.3874   19.4637 C   0  0  0  0  0  0
  -29.5027  -12.4973   18.2267 C   0  0  0  0  0  0
  -28.0264  -12.3403   18.6387 C   0  0  0  0  0  0
  -27.6450  -13.2292   19.8541 C   0  0  2  0  0  0
  -28.6894  -13.1358   20.9893 C   0  0  0  0  0  0
  -25.2526  -13.8207   20.5704 C   0  0  0  0  0  0
  -24.1811  -13.0452   20.9213 C   0  0  0  0  0  0
  -24.6396  -11.6928   20.8754 C   0  0  0  0  0  0
  -23.9072  -10.4306   21.0415 C   0  0  0  0  0  0
  -24.3627   -9.4217   21.9188 C   0  0  0  0  0  0
  -23.6304   -8.2248   22.0752 C   0  0  0  0  0  0
  -22.4286   -8.0285   21.3543 C   0  0  0  0  0  0
  -21.9922   -9.0260   20.4644 C   0  0  0  0  0  0
  -22.7247  -10.2143   20.3058 C   0  0  0  0  0  0
  -21.6855   -6.0742   22.5283 C   0  0  0  0  0  0
  -21.4012   -6.5644   23.8218 C   0  0  0  0  0  0
  -21.3657   -5.6792   24.9178 C   0  0  0  0  0  0
  -21.6045   -4.3054   24.7225 C   0  0  0  0  0  0
  -21.8817   -3.8149   23.4342 C   0  0  0  0  0  0
  -21.9192   -4.6970   22.3402 C   0  0  0  0  0  0
  -22.7831  -13.5233   21.1868 C   0  0  0  0  0  0
  -22.1664   -4.2158   21.0978 F   0  0  0  0  0  0
  -21.5630   -3.4534   25.7735 F   0  0  0  0  0  0
  -30.0012  -13.4442   20.4091 N   0  0  0  0  0  0
  -26.2953  -12.9410   20.3296 N   0  0  0  0  0  0
  -25.9324  -11.6554   20.5758 N   0  0  0  0  0  0
  -22.0472  -12.8225   22.0419 N   0  0  0  0  0  0
  -25.4219  -15.1928   20.4121 N   0  0  0  0  0  0
  -31.8584  -14.7051   20.1434 O   0  0  0  0  0  0
  -21.6640   -6.8886   21.4246 O   0  0  0  0  0  0
  -22.3520  -14.5538   20.6708 O   0  0  0  0  0  0
  -24.6246  -31.8610   23.2032 C   0  0  0  0  0  0
  -25.9101  -32.4783   23.8363 C   0  0  1  0  0  0
  -27.2212  -27.3323   20.1259 C   0  0  0  0  0  0
  -25.5926  -33.8582   24.2294 N   0  0  0  0  0  0
  -23.4179  -30.4840   21.5449 C   0  0  2  0  0  0
  -24.8662  -28.9403   20.1107 C   0  0  0  0  0  0
  -22.7466  -29.4629   22.4938 C   0  0  0  0  0  0
  -18.0284  -28.1379   22.8487 C   0  0  0  0  0  0
  -24.1488  -36.7296   23.2637 C   0  0  0  0  0  0
  -25.9570  -30.7973   21.3717 C   0  0  0  0  0  0
  -26.0335  -29.4249   20.7160 C   0  0  0  0  0  0
  -27.2180  -28.6324   20.7130 C   0  0  0  0  0  0
  -26.0396  -26.9000   19.4875 C   0  0  0  0  0  0
  -24.8699  -27.6830   19.4862 C   0  0  0  0  0  0
  -23.6330  -29.8183   20.1599 C   0  0  0  0  0  0
  -25.4110  -36.3084   24.0334 C   0  0  1  0  0  0
  -20.5882  -28.3687   23.1286 C   0  0  2  0  0  0
  -20.6773  -26.9415   22.5406 C   0  0  0  0  0  0
  -19.5752  -26.6383   21.5207 C   0  0  0  0  0  0
  -18.1932  -26.7924   22.1621 C   0  0  0  0  0  0
  -19.1536  -28.8849   23.2882 C   0  0  0  0  0  0
  -18.9458  -30.1448   23.8901 C   0  0  0  0  0  0
  -17.6461  -30.6586   24.0559 C   0  0  0  0  0  0
  -25.9047  -34.9455   23.5112 C   0  0  0  0  0  0
  -16.5352  -29.9086   23.6324 C   0  0  0  0  0  0
  -16.7271  -28.6497   23.0357 C   0  0  0  0  0  0
  -26.4492  -31.6581   25.0721 C   0  0  0  0  0  0
  -25.3732  -31.3714   26.1454 C   0  0  0  0  0  0
  -27.0332  -30.3009   24.6156 C   0  0  0  0  0  0
  -27.6060  -32.4307   25.7490 C   0  0  0  0  0  0
  -27.5580  -37.1801   24.8464 C   0  0  0  0  0  0
  -21.4181  -29.3044   22.3682 N   0  0  0  0  0  0
  -26.4287  -37.3779   23.9413 N   0  0  0  0  0  0
  -24.6851  -31.0637   22.0973 N   0  0  0  0  0  0
  -23.4195  -28.8172   23.3015 O   0  0  0  0  0  0
  -28.3207  -26.4693   20.1587 O   0  0  0  0  0  0
  -26.5612  -34.8919   22.4674 O   0  0  0  0  0  0
  -23.5415  -32.1403   23.7369 O   0  0  0  0  0  0
  -28.3996  -20.2293   21.6608 C   0  0  0  0  0  0
  -30.1785  -19.6306   19.7068 C   0  0  0  0  0  0
  -28.8616  -18.8835   21.5601 C   0  0  0  0  0  0
  -29.7961  -18.5436   20.5482 C   0  0  0  0  0  0
  -28.8614  -21.2427   20.7869 C   0  0  0  0  0  0
  -28.3792  -17.8535   22.5642 C   0  0  0  0  0  0
  -30.5447  -17.1592   20.3923 C   0  0  0  0  0  0
  -28.7915  -23.8254   20.2166 C   0  0  0  0  0  0
  -28.0855  -25.1437   20.7709 C   0  0  0  0  0  0
  -29.7385  -20.9239   19.8119 N   0  0  0  0  0  0
  -28.4059  -22.5855   20.9574 N   0  0  0  0  0  0
  -29.9602  -15.7952   20.6688 N   0  0  0  0  0  0
  -31.4645  -12.4751   19.1677 H   0  0  0  0  0  0
  -30.3214  -11.4042   19.9269 H   0  0  0  0  0  0
  -29.7704  -11.7383   17.4904 H   0  0  0  0  0  0
  -29.6501  -13.4624   17.7393 H   0  0  0  0  0  0
  -27.8670  -11.2899   18.8855 H   0  0  0  0  0  0
  -27.3719  -12.5544   17.7932 H   0  0  0  0  0  0
  -27.6500  -14.2569   19.4897 H   0  0  0  0  0  0
  -28.6969  -12.1377   21.4303 H   0  0  0  0  0  0
  -28.4445  -13.8256   21.7986 H   0  0  0  0  0  0
  -25.2778   -9.5694   22.4755 H   0  0  0  0  0  0
  -24.0018   -7.4640   22.7468 H   0  0  0  0  0  0
  -21.0854   -8.8779   19.8951 H   0  0  0  0  0  0
  -22.3711  -10.9680   19.6161 H   0  0  0  0  0  0
  -21.2005   -7.6153   23.9727 H   0  0  0  0  0  0
  -21.1482   -6.0519   25.9084 H   0  0  0  0  0  0
  -22.0597   -2.7612   23.2834 H   0  0  0  0  0  0
  -22.4087  -11.9892   22.4816 H   0  0  0  0  0  0
  -21.1082  -13.1243   22.2612 H   0  0  0  0  0  0
  -24.6502  -15.8426   20.5181 H   0  0  0  0  0  0
  -26.2614  -15.6319   20.0572 H   0  0  0  0  0  0
  -26.7168  -32.5466   23.1117 H   0  0  0  0  0  0
  -25.0079  -33.9728   25.0442 H   0  0  0  0  0  0
  -22.7109  -31.3036   21.4015 H   0  0  0  0  0  0
  -23.3751  -35.9627   23.3292 H   0  0  0  0  0  0
  -24.3584  -36.8920   22.2053 H   0  0  0  0  0  0
  -23.7237  -37.6496   23.6661 H   0  0  0  0  0  0
  -26.0832  -31.5607   20.6028 H   0  0  0  0  0  0
  -26.8395  -30.8492   21.9977 H   0  0  0  0  0  0
  -28.1144  -28.9968   21.1952 H   0  0  0  0  0  0
  -26.0136  -25.9353   19.0007 H   0  0  0  0  0  0
  -23.9768  -27.3083   19.0055 H   0  0  0  0  0  0
  -23.7515  -30.5946   19.4033 H   0  0  0  0  0  0
  -22.7540  -29.2463   19.8574 H   0  0  0  0  0  0
  -25.1285  -36.1938   25.0826 H   0  0  0  0  0  0
  -20.9972  -28.3258   24.1408 H   0  0  0  0  0  0
  -20.5674  -26.2300   23.3602 H   0  0  0  0  0  0
  -21.6644  -26.7448   22.1202 H   0  0  0  0  0  0
  -19.6917  -25.6294   21.1240 H   0  0  0  0  0  0
  -19.6689  -27.3186   20.6731 H   0  0  0  0  0  0
  -17.4204  -26.6668   21.4024 H   0  0  0  0  0  0
  -18.0340  -26.0061   22.9013 H   0  0  0  0  0  0
  -19.7936  -30.7254   24.2283 H   0  0  0  0  0  0
  -17.5019  -31.6269   24.5157 H   0  0  0  0  0  0
  -15.5353  -30.2991   23.7642 H   0  0  0  0  0  0
  -15.8671  -28.0809   22.7085 H   0  0  0  0  0  0
  -24.5901  -30.7073   25.7778 H   0  0  0  0  0  0
  -24.8933  -32.2881   26.4892 H   0  0  0  0  0  0
  -25.8061  -30.8877   27.0219 H   0  0  0  0  0  0
  -26.2896  -29.6761   24.1194 H   0  0  0  0  0  0
  -27.4054  -29.7259   25.4646 H   0  0  0  0  0  0
  -27.8757  -30.4301   23.9356 H   0  0  0  0  0  0
  -27.2684  -33.3608   26.2071 H   0  0  0  0  0  0
  -28.3874  -32.6859   25.0321 H   0  0  0  0  0  0
  -28.0727  -31.8427   26.5403 H   0  0  0  0  0  0
  -28.2590  -38.0104   24.7517 H   0  0  0  0  0  0
  -28.1081  -36.2635   24.6279 H   0  0  0  0  0  0
  -27.2303  -37.1438   25.8868 H   0  0  0  0  0  0
  -20.9359  -29.8769   21.6895 H   0  0  0  0  0  0
  -26.0170  -38.2855   24.1413 H   0  0  0  0  0  0
  -27.6976  -20.4840   22.4437 H   0  0  0  0  0  0
  -30.9076  -19.4677   18.9265 H   0  0  0  0  0  0
  -27.8617  -18.3272   23.3987 H   0  0  0  0  0  0
  -29.2161  -17.2901   22.9766 H   0  0  0  0  0  0
  -27.6869  -17.1549   22.0943 H   0  0  0  0  0  0
  -31.4434  -17.2465   21.0057 H   0  0  0  0  0  0
  -30.9133  -17.1264   19.3650 H   0  0  0  0  0  0
  -29.8751  -23.9399   20.2660 H   0  0  0  0  0  0
  -28.5405  -23.6918   19.1642 H   0  0  0  0  0  0
  -28.3830  -25.2564   21.8140 H   0  0  0  0  0  0
  -27.0171  -24.9326   20.8219 H   0  0  0  0  0  0
  -27.7497  -22.7330   21.7170 H   0  0  0  0  0  0
  -28.9750  -15.7181   20.8649 H   0  0  0  0  0  0
  1 25  1  0  0  0
  1 30  2  0  0  0
  1 82  1  0  0  0
  2  3  1  0  0  0
  2 25  1  0  0  0
  2 83  1  0  0  0
  2 84  1  0  0  0
  3  4  1  0  0  0
  3 85  1  0  0  0
  3 86  1  0  0  0
  4  5  1  0  0  0
  4 87  1  0  0  0
  4 88  1  0  0  0
  5  6  1  0  0  0
  5 26  1  0  0  0
  5 89  1  0  0  0
  6 25  1  0  0  0
  6 90  1  0  0  0
  6 91  1  0  0  0
  7  8  2  0  0  0
  7 26  1  0  0  0
  7 29  1  0  0  0
  8  9  1  0  0  0
  8 22  1  0  0  0
  9 10  1  0  0  0
  9 27  2  0  0  0
 10 11  2  0  0  0
 10 15  1  0  0  0
 11 12  1  0  0  0
 11 92  1  0  0  0
 12 13  2  0  0  0
 12 93  1  0  0  0
 13 14  1  0  0  0
 13 31  1  0  0  0
 14 15  2  0  0  0
 14 94  1  0  0  0
 15 95  1  0  0  0
 16 17  2  0  0  0
 16 21  1  0  0  0
 16 31  1  0  0  0
 17 18  1  0  0  0
 17 96  1  0  0  0
 18 19  2  0  0  0
 18 97  1  0  0  0
 19 20  1  0  0  0
 19 24  1  0  0  0
 20 21  2  0  0  0
 20 98  1  0  0  0
 21 23  1  0  0  0
 22 28  1  0  0  0
 22 32  2  0  0  0
 26 27  1  0  0  0
 28 99  1  0  0  0
 28100  1  0  0  0
 29101  1  0  0  0
 29102  1  0  0  0
 33 34  1  0  0  0
 33 66  1  0  0  0
 33 70  2  0  0  0
 34 36  1  0  0  0
 34 59  1  0  0  0
 34103  1  0  0  0
 35 44  2  0  0  0
 35 45  1  0  0  0
 35 68  1  0  0  0
 36 56  1  0  0  0
 36104  1  0  0  0
 37 39  1  0  0  0
 37 47  1  0  0  0
 37 66  1  0  0  0
 37105  1  0  0  0
 38 43  2  0  0  0
 38 46  1  0  0  0
 38 47  1  0  0  0
 39 64  1  0  0  0
 39 67  2  0  0  0
 40 52  1  0  0  0
 40 53  2  0  0  0
 40 58  1  0  0  0
 41106  1  0  0  0
 41107  1  0  0  0
 41108  1  0  0  0
 41 48  1  0  0  0
 42 43  1  0  0  0
 42 66  1  0  0  0
 42109  1  0  0  0
 42110  1  0  0  0
 43 44  1  0  0  0
 44111  1  0  0  0
 45 46  2  0  0  0
 45112  1  0  0  0
 46113  1  0  0  0
 47114  1  0  0  0
 47115  1  0  0  0
 48 56  1  0  0  0
 48 65  1  0  0  0
 48116  1  0  0  0
 49 50  1  0  0  0
 49 53  1  0  0  0
 49 64  1  0  0  0
 49117  1  0  0  0
 50 51  1  0  0  0
 50118  1  0  0  0
 50119  1  0  0  0
 51 52  1  0  0  0
 51120  1  0  0  0
 51121  1  0  0  0
 52122  1  0  0  0
 52123  1  0  0  0
 53 54  1  0  0  0
 54 55  2  0  0  0
 54124  1  0  0  0
 55 57  1  0  0  0
 55125  1  0  0  0
 56 69  2  0  0  0
 57 58  2  0  0  0
 57126  1  0  0  0
 58127  1  0  0  0
 59 60  1  0  0  0
 59 61  1  0  0  0
 59 62  1  0  0  0
 60128  1  0  0  0
 60129  1  0  0  0
 60130  1  0  0  0
 61131  1  0  0  0
 61132  1  0  0  0
 61133  1  0  0  0
 62134  1  0  0  0
 62135  1  0  0  0
 62136  1  0  0  0
 63 65  1  0  0  0
 63137  1  0  0  0
 63138  1  0  0  0
 63139  1  0  0  0
 64140  1  0  0  0
 65141  1  0  0  0
 68 79  1  0  0  0
 71 73  2  0  0  0
 71 75  1  0  0  0
 71142  1  0  0  0
 72 74  2  0  0  0
 72 80  1  0  0  0
 72143  1  0  0  0
 73 74  1  0  0  0
 73 76  1  0  0  0
 74 77  1  0  0  0
 75 80  2  0  0  0
 75 81  1  0  0  0
 76144  1  0  0  0
 76145  1  0  0  0
 76146  1  0  0  0
 77 82  1  0  0  0
 77147  1  0  0  0
 77148  1  0  0  0
 78 79  1  0  0  0
 78 81  1  0  0  0
 78149  1  0  0  0
 78150  1  0  0  0
 79151  1  0  0  0
 79152  1  0  0  0
 81153  1  0  0  0
 82154  1  0  0  0
M  ISO  4   1 100  68 101  79 101  82 100
M  END
> <chiral flag>
0

> <version>
0

> <s_m_source_file>
/data/baiqing/PycharmProjects/Reinvent-master-3.2/result/LINK_invent/BTK/process_docking_weight1_custom_sum_contain_oxygen_bond_distance_aromatic_linkinvent_7_9_3/rearranged_h_0136.sdf

> <i_m_source_file_index>
41

> <r_mmod_Potential_Energy-OPLS-2005>
-157.273223876953

> <r_mmod_Stretch_Energy-OPLS-2005>
74.0416946411133

> <r_mmod_Bend_Energy-OPLS-2005>
159.323501586914

> <r_mmod_Torsional_Energy-OPLS-2005>
210.95002746582

> <r_mmod_Improper_Torsional_Energy-OPLS-2005>
6.42630338668823

> <r_mmod_Van_der_Waal_Energy-OPLS-2005>
144.699569702148

> <r_mmod_Electrostatic_Energy-OPLS-2005>
-562.069885253906

> <r_mmod_Solvation_Energy-OPLS-2005>
-240.598419189453

> <b_mmod_Minimization_Converged-OPLS-2005>
0

> <r_mmod_RMS_Derivative-OPLS-2005>
0.711707413196564

$$$$
44
                    3D
 Structure written by MMmdl.
165174  0  0  1  0            999 V2000
  -30.7210  -14.5023   20.6042 C   0  0  0  0  0  0
  -30.4197  -12.3363   19.4381 C   0  0  0  0  0  0
  -29.5008  -12.4963   18.2112 C   0  0  0  0  0  0
  -28.0197  -12.3426   18.6115 C   0  0  0  0  0  0
  -27.6514  -13.1958   19.8518 C   0  0  2  0  0  0
  -28.6915  -13.0293   20.9862 C   0  0  0  0  0  0
  -25.2575  -13.8134   20.5658 C   0  0  0  0  0  0
  -24.1820  -13.0422   20.9185 C   0  0  0  0  0  0
  -24.6348  -11.6897   20.8716 C   0  0  0  0  0  0
  -23.9016  -10.4294   21.0374 C   0  0  0  0  0  0
  -24.3601   -9.4223   21.9141 C   0  0  0  0  0  0
  -23.6300   -8.2247   22.0721 C   0  0  0  0  0  0
  -22.4269   -8.0276   21.3539 C   0  0  0  0  0  0
  -21.9880   -9.0241   20.4645 C   0  0  0  0  0  0
  -22.7184  -10.2124   20.3038 C   0  0  0  0  0  0
  -21.6864   -6.0732   22.5287 C   0  0  0  0  0  0
  -21.4022   -6.5632   23.8224 C   0  0  0  0  0  0
  -21.3663   -5.6771   24.9180 C   0  0  0  0  0  0
  -21.6037   -4.3033   24.7223 C   0  0  0  0  0  0
  -21.8825   -3.8138   23.4342 C   0  0  0  0  0  0
  -21.9205   -4.6961   22.3409 C   0  0  0  0  0  0
  -22.7847  -13.5227   21.1864 C   0  0  0  0  0  0
  -22.1669   -4.2157   21.0983 F   0  0  0  0  0  0
  -21.5628   -3.4517   25.7734 F   0  0  0  0  0  0
  -30.0206  -13.3419   20.4398 N   0  0  0  0  0  0
  -26.2970  -12.9267   20.3231 N   0  0  0  0  0  0
  -25.9270  -11.6456   20.5698 N   0  0  0  0  0  0
  -22.0494  -12.8253   22.0437 N   0  0  0  0  0  0
  -25.4261  -15.1858   20.4105 N   0  0  0  0  0  0
  -31.8459  -14.6523   20.1143 O   0  0  0  0  0  0
  -21.6646   -6.8866   21.4240 O   0  0  0  0  0  0
  -22.3549  -14.5537   20.6704 O   0  0  0  0  0  0
  -24.6113  -31.8696   23.2136 C   0  0  0  0  0  0
  -25.9012  -32.4855   23.8418 C   0  0  1  0  0  0
  -27.2326  -27.4554   20.0962 C   0  0  0  0  0  0
  -25.5870  -33.8645   24.2362 N   0  0  0  0  0  0
  -23.4019  -30.4905   21.5543 C   0  0  2  0  0  0
  -24.8525  -28.9597   20.1191 C   0  0  0  0  0  0
  -22.7412  -29.4647   22.5023 C   0  0  0  0  0  0
  -18.0270  -28.1393   22.8478 C   0  0  0  0  0  0
  -24.1488  -36.7316   23.2667 C   0  0  0  0  0  0
  -25.9293  -30.8385   21.3693 C   0  0  0  0  0  0
  -26.0087  -29.4733   20.7224 C   0  0  0  0  0  0
  -27.2060  -28.7251   20.7160 C   0  0  0  0  0  0
  -26.0715  -26.9569   19.4809 C   0  0  0  0  0  0
  -24.8774  -27.6983   19.4975 C   0  0  0  0  0  0
  -23.6113  -29.8202   20.1698 C   0  0  0  0  0  0
  -25.4121  -36.3136   24.0358 C   0  0  1  0  0  0
  -20.5860  -28.3652   23.1339 C   0  0  2  0  0  0
  -20.6763  -26.9386   22.5445 C   0  0  0  0  0  0
  -19.5745  -26.6396   21.5233 C   0  0  0  0  0  0
  -18.1907  -26.7947   22.1610 C   0  0  0  0  0  0
  -19.1517  -28.8833   23.2913 C   0  0  0  0  0  0
  -18.9453  -30.1451   23.8925 C   0  0  0  0  0  0
  -17.6454  -30.6589   24.0566 C   0  0  0  0  0  0
  -25.9022  -34.9494   23.5153 C   0  0  0  0  0  0
  -16.5342  -29.9098   23.6337 C   0  0  0  0  0  0
  -16.7260  -28.6521   23.0334 C   0  0  0  0  0  0
  -26.4478  -31.6629   25.0728 C   0  0  0  0  0  0
  -25.3758  -31.3650   26.1464 C   0  0  0  0  0  0
  -27.0406  -30.3121   24.6103 C   0  0  0  0  0  0
  -27.5994  -32.4421   25.7507 C   0  0  0  0  0  0
  -27.5588  -37.1822   24.8464 C   0  0  0  0  0  0
  -21.4137  -29.3015   22.3734 N   0  0  0  0  0  0
  -26.4325  -37.3803   23.9380 N   0  0  0  0  0  0
  -24.6651  -31.0796   22.1042 N   0  0  0  0  0  0
  -23.4189  -28.8182   23.3045 O   0  0  0  0  0  0
  -28.3698  -26.6923   20.0326 O   0  0  0  0  0  0
  -26.5559  -34.8934   22.4702 O   0  0  0  0  0  0
  -23.5300  -32.1414   23.7542 O   0  0  0  0  0  0
  -30.7999  -21.3036   23.6772 C   0  0  0  0  0  0
  -30.1033  -23.4857   22.8493 C   0  0  0  0  0  0
  -29.0396  -21.4673   21.9995 C   0  0  0  0  0  0
  -30.9350  -22.7051   23.6689 C   0  0  0  0  0  0
  -29.8647  -20.6718   22.8348 C   0  0  0  0  0  0
  -29.1332  -22.8812   22.0158 C   0  0  0  0  0  0
  -31.2409  -17.7015   21.9079 C   0  0  0  0  0  0
  -28.7308  -17.6238   21.5365 C   0  0  0  0  0  0
  -30.9842  -16.2337   22.3324 C   0  0  0  0  0  0
  -29.0383  -16.2974   20.7984 C   0  0  0  0  0  0
  -29.9520  -18.5344   21.7403 C   0  0  0  0  0  0
  -31.9597  -23.3890   24.5478 C   0  0  0  0  0  0
  -28.7711  -26.0835   21.2587 C   0  0  0  0  0  0
  -27.8647  -24.9069   21.7164 C   0  0  0  0  0  0
  -30.1576  -15.4966   21.3544 N   0  0  0  0  0  0
  -29.7396  -19.3026   22.9259 O   0  0  0  0  0  0
  -28.2718  -23.6202   21.2278 O   0  0  0  0  0  0
  -31.4658  -12.4306   19.1432 H   0  0  0  0  0  0
  -30.3218  -11.3352   19.8583 H   0  0  0  0  0  0
  -29.7601  -11.7555   17.4543 H   0  0  0  0  0  0
  -29.6643  -13.4733   17.7538 H   0  0  0  0  0  0
  -27.8323  -11.2860   18.8100 H   0  0  0  0  0  0
  -27.3799  -12.6120   17.7711 H   0  0  0  0  0  0
  -27.6668  -14.2186   19.4890 H   0  0  0  0  0  0
  -28.6829  -12.0045   21.3599 H   0  0  0  0  0  0
  -28.4378  -13.6505   21.8464 H   0  0  0  0  0  0
  -25.2755   -9.5731   22.4688 H   0  0  0  0  0  0
  -24.0049   -7.4640   22.7419 H   0  0  0  0  0  0
  -21.0817   -8.8728   19.8974 H   0  0  0  0  0  0
  -22.3604  -10.9653   19.6162 H   0  0  0  0  0  0
  -21.1999   -7.6136   23.9736 H   0  0  0  0  0  0
  -21.1481   -6.0493   25.9083 H   0  0  0  0  0  0
  -22.0598   -2.7604   23.2837 H   0  0  0  0  0  0
  -22.4099  -11.9945   22.4887 H   0  0  0  0  0  0
  -21.1108  -13.1283   22.2603 H   0  0  0  0  0  0
  -24.6591  -15.8363   20.5453 H   0  0  0  0  0  0
  -26.2767  -15.6388   20.1029 H   0  0  0  0  0  0
  -26.7082  -32.5594   23.1181 H   0  0  0  0  0  0
  -25.0039  -33.9813   25.0517 H   0  0  0  0  0  0
  -22.6898  -31.3055   21.4129 H   0  0  0  0  0  0
  -23.3755  -35.9659   23.3409 H   0  0  0  0  0  0
  -24.3524  -36.8849   22.2064 H   0  0  0  0  0  0
  -23.7262  -37.6555   23.6613 H   0  0  0  0  0  0
  -26.0436  -31.6044   20.6014 H   0  0  0  0  0  0
  -26.8142  -30.8933   21.9907 H   0  0  0  0  0  0
  -28.1027  -29.1202   21.1735 H   0  0  0  0  0  0
  -26.0936  -25.9897   18.9972 H   0  0  0  0  0  0
  -23.9890  -27.3015   19.0264 H   0  0  0  0  0  0
  -23.7118  -30.5892   19.4031 H   0  0  0  0  0  0
  -22.7385  -29.2311   19.8812 H   0  0  0  0  0  0
  -25.1321  -36.2012   25.0863 H   0  0  0  0  0  0
  -20.9954  -28.3222   24.1459 H   0  0  0  0  0  0
  -20.5681  -26.2254   23.3627 H   0  0  0  0  0  0
  -21.6624  -26.7431   22.1218 H   0  0  0  0  0  0
  -19.6907  -25.6328   21.1222 H   0  0  0  0  0  0
  -19.6721  -27.3235   20.6788 H   0  0  0  0  0  0
  -17.4211  -26.6737   21.3980 H   0  0  0  0  0  0
  -18.0247  -26.0086   22.8985 H   0  0  0  0  0  0
  -19.7933  -30.7249   24.2306 H   0  0  0  0  0  0
  -17.5017  -31.6267   24.5179 H   0  0  0  0  0  0
  -15.5344  -30.3002   23.7694 H   0  0  0  0  0  0
  -15.8651  -28.0876   22.7028 H   0  0  0  0  0  0
  -24.5807  -30.7200   25.7731 H   0  0  0  0  0  0
  -24.9085  -32.2801   26.5106 H   0  0  0  0  0  0
  -25.8053  -30.8585   27.0110 H   0  0  0  0  0  0
  -26.2973  -29.6723   24.1340 H   0  0  0  0  0  0
  -27.4449  -29.7490   25.4537 H   0  0  0  0  0  0
  -27.8647  -30.4525   23.9114 H   0  0  0  0  0  0
  -27.2536  -33.3722   26.2053 H   0  0  0  0  0  0
  -28.3770  -32.7012   25.0314 H   0  0  0  0  0  0
  -28.0691  -31.8592   26.5434 H   0  0  0  0  0  0
  -28.2657  -38.0060   24.7434 H   0  0  0  0  0  0
  -28.1041  -36.2592   24.6408 H   0  0  0  0  0  0
  -27.2275  -37.1611   25.8860 H   0  0  0  0  0  0
  -20.9316  -29.8707   21.6920 H   0  0  0  0  0  0
  -26.0243  -38.2903   24.1346 H   0  0  0  0  0  0
  -31.4180  -20.7043   24.3309 H   0  0  0  0  0  0
  -30.2261  -24.5571   22.8871 H   0  0  0  0  0  0
  -28.2909  -20.9975   21.3791 H   0  0  0  0  0  0
  -31.7723  -17.6914   20.9551 H   0  0  0  0  0  0
  -31.9105  -18.1947   22.6147 H   0  0  0  0  0  0
  -28.3001  -17.3786   22.5082 H   0  0  0  0  0  0
  -27.9539  -18.1755   21.0037 H   0  0  0  0  0  0
  -30.4769  -16.2051   23.2975 H   0  0  0  0  0  0
  -31.9400  -15.7322   22.4958 H   0  0  0  0  0  0
  -29.2309  -16.5119   19.7449 H   0  0  0  0  0  0
  -28.1240  -15.7203   20.8512 H   0  0  0  0  0  0
  -30.0752  -19.1862   20.8723 H   0  0  0  0  0  0
  -32.7773  -22.7110   24.7937 H   0  0  0  0  0  0
  -31.5003  -23.7269   25.4771 H   0  0  0  0  0  0
  -32.3823  -24.2577   24.0412 H   0  0  0  0  0  0
  -29.7954  -25.7432   21.1158 H   0  0  0  0  0  0
  -28.8134  -26.8368   22.0472 H   0  0  0  0  0  0
  -26.8297  -25.0732   21.4201 H   0  0  0  0  0  0
  -27.8238  -24.8837   22.8069 H   0  0  0  0  0  0
  1 25  1  0  0  0
  1 30  2  0  0  0
  1 85  1  0  0  0
  2  3  1  0  0  0
  2 25  1  0  0  0
  2 88  1  0  0  0
  2 89  1  0  0  0
  3  4  1  0  0  0
  3 90  1  0  0  0
  3 91  1  0  0  0
  4  5  1  0  0  0
  4 92  1  0  0  0
  4 93  1  0  0  0
  5  6  1  0  0  0
  5 26  1  0  0  0
  5 94  1  0  0  0
  6 25  1  0  0  0
  6 95  1  0  0  0
  6 96  1  0  0  0
  7  8  2  0  0  0
  7 26  1  0  0  0
  7 29  1  0  0  0
  8  9  1  0  0  0
  8 22  1  0  0  0
  9 10  1  0  0  0
  9 27  2  0  0  0
 10 11  2  0  0  0
 10 15  1  0  0  0
 11 12  1  0  0  0
 11 97  1  0  0  0
 12 13  2  0  0  0
 12 98  1  0  0  0
 13 14  1  0  0  0
 13 31  1  0  0  0
 14 15  2  0  0  0
 14 99  1  0  0  0
 15100  1  0  0  0
 16 17  2  0  0  0
 16 21  1  0  0  0
 16 31  1  0  0  0
 17 18  1  0  0  0
 17101  1  0  0  0
 18 19  2  0  0  0
 18102  1  0  0  0
 19 20  1  0  0  0
 19 24  1  0  0  0
 20 21  2  0  0  0
 20103  1  0  0  0
 21 23  1  0  0  0
 22 28  1  0  0  0
 22 32  2  0  0  0
 26 27  1  0  0  0
 28104  1  0  0  0
 28105  1  0  0  0
 29106  1  0  0  0
 29107  1  0  0  0
 33 34  1  0  0  0
 33 66  1  0  0  0
 33 70  2  0  0  0
 34 36  1  0  0  0
 34 59  1  0  0  0
 34108  1  0  0  0
 35 44  2  0  0  0
 35 45  1  0  0  0
 35 68  1  0  0  0
 36 56  1  0  0  0
 36109  1  0  0  0
 37 39  1  0  0  0
 37 47  1  0  0  0
 37 66  1  0  0  0
 37110  1  0  0  0
 38 43  2  0  0  0
 38 46  1  0  0  0
 38 47  1  0  0  0
 39 64  1  0  0  0
 39 67  2  0  0  0
 40 52  1  0  0  0
 40 53  2  0  0  0
 40 58  1  0  0  0
 41111  1  0  0  0
 41112  1  0  0  0
 41113  1  0  0  0
 41 48  1  0  0  0
 42 43  1  0  0  0
 42 66  1  0  0  0
 42114  1  0  0  0
 42115  1  0  0  0
 43 44  1  0  0  0
 44116  1  0  0  0
 45 46  2  0  0  0
 45117  1  0  0  0
 46118  1  0  0  0
 47119  1  0  0  0
 47120  1  0  0  0
 48 56  1  0  0  0
 48 65  1  0  0  0
 48121  1  0  0  0
 49 50  1  0  0  0
 49 53  1  0  0  0
 49 64  1  0  0  0
 49122  1  0  0  0
 50 51  1  0  0  0
 50123  1  0  0  0
 50124  1  0  0  0
 51 52  1  0  0  0
 51125  1  0  0  0
 51126  1  0  0  0
 52127  1  0  0  0
 52128  1  0  0  0
 53 54  1  0  0  0
 54 55  2  0  0  0
 54129  1  0  0  0
 55 57  1  0  0  0
 55130  1  0  0  0
 56 69  2  0  0  0
 57 58  2  0  0  0
 57131  1  0  0  0
 58132  1  0  0  0
 59 60  1  0  0  0
 59 61  1  0  0  0
 59 62  1  0  0  0
 60133  1  0  0  0
 60134  1  0  0  0
 60135  1  0  0  0
 61136  1  0  0  0
 61137  1  0  0  0
 61138  1  0  0  0
 62139  1  0  0  0
 62140  1  0  0  0
 62141  1  0  0  0
 63 65  1  0  0  0
 63142  1  0  0  0
 63143  1  0  0  0
 63144  1  0  0  0
 64145  1  0  0  0
 65146  1  0  0  0
 68 83  1  0  0  0
 71 74  2  0  0  0
 71 75  1  0  0  0
 71147  1  0  0  0
 72 74  1  0  0  0
 72 76  2  0  0  0
 72148  1  0  0  0
 73 75  2  0  0  0
 73 76  1  0  0  0
 73149  1  0  0  0
 74 82  1  0  0  0
 75 86  1  0  0  0
 76 87  1  0  0  0
 77 79  1  0  0  0
 77 81  1  0  0  0
 77150  1  0  0  0
 77151  1  0  0  0
 78 80  1  0  0  0
 78 81  1  0  0  0
 78152  1  0  0  0
 78153  1  0  0  0
 79 85  1  0  0  0
 79154  1  0  0  0
 79155  1  0  0  0
 80 85  1  0  0  0
 80156  1  0  0  0
 80157  1  0  0  0
 81 86  1  0  0  0
 81158  1  0  0  0
 82159  1  0  0  0
 82160  1  0  0  0
 82161  1  0  0  0
 83 84  1  0  0  0
 83162  1  0  0  0
 83163  1  0  0  0
 84 87  1  0  0  0
 84164  1  0  0  0
 84165  1  0  0  0
M  ISO  4   1 100  68 101  83 101  85 100
M  END
> <chiral flag>
0

> <version>
0

> <s_m_source_file>
/data/baiqing/PycharmProjects/Reinvent-master-3.2/result/LINK_invent/BTK/process_docking_weight1_custom_sum_contain_oxygen_bond_distance_aromatic_linkinvent_7_9_3/rearranged_h_0136.sdf

> <i_m_source_file_index>
42

> <r_mmod_Potential_Energy-OPLS-2005>
230.739105224609

> <r_mmod_Stretch_Energy-OPLS-2005>
40.6706657409668

> <r_mmod_Bend_Energy-OPLS-2005>
108.31909942627

> <r_mmod_Torsional_Energy-OPLS-2005>
378.920288085938

> <r_mmod_Improper_Torsional_Energy-OPLS-2005>
4.07401943206787

> <r_mmod_Van_der_Waal_Energy-OPLS-2005>
164.863342285156

> <r_mmod_Electrostatic_Energy-OPLS-2005>
-275.936340332031

> <r_mmod_Solvation_Energy-OPLS-2005>
-204.299423217773

> <b_mmod_Minimization_Converged-OPLS-2005>
0

> <r_mmod_RMS_Derivative-OPLS-2005>
3.4598171710968

$$$$
45
                    3D
 Structure written by MMmdl.
171181  0  0  1  0            999 V2000
  -30.7021  -14.4755   20.5601 C   0  0  0  0  0  0
  -30.4212  -12.3089   19.4259 C   0  0  0  0  0  0
  -29.4935  -12.5214   18.2109 C   0  0  0  0  0  0
  -28.0189  -12.3606   18.6241 C   0  0  0  0  0  0
  -27.6623  -13.2043   19.8764 C   0  0  2  0  0  0
  -28.7038  -12.9999   21.0030 C   0  0  0  0  0  0
  -25.2600  -13.8166   20.5671 C   0  0  0  0  0  0
  -24.1850  -13.0459   20.9154 C   0  0  0  0  0  0
  -24.6403  -11.6909   20.8754 C   0  0  0  0  0  0
  -23.9083  -10.4300   21.0437 C   0  0  0  0  0  0
  -24.3621   -9.4214   21.9225 C   0  0  0  0  0  0
  -23.6293   -8.2247   22.0785 C   0  0  0  0  0  0
  -22.4278   -8.0294   21.3559 C   0  0  0  0  0  0
  -21.9937   -9.0263   20.4638 C   0  0  0  0  0  0
  -22.7269  -10.2148   20.3063 C   0  0  0  0  0  0
  -21.6845   -6.0754   22.5297 C   0  0  0  0  0  0
  -21.4003   -6.5666   23.8228 C   0  0  0  0  0  0
  -21.3649   -5.6806   24.9183 C   0  0  0  0  0  0
  -21.6045   -4.3061   24.7226 C   0  0  0  0  0  0
  -21.8824   -3.8170   23.4343 C   0  0  0  0  0  0
  -21.9189   -4.6990   22.3402 C   0  0  0  0  0  0
  -22.7859  -13.5259   21.1816 C   0  0  0  0  0  0
  -22.1658   -4.2176   21.0978 F   0  0  0  0  0  0
  -21.5624   -3.4549   25.7739 F   0  0  0  0  0  0
  -30.0372  -13.2939   20.4510 N   0  0  0  0  0  0
  -26.3035  -12.9323   20.3376 N   0  0  0  0  0  0
  -25.9329  -11.6496   20.5781 N   0  0  0  0  0  0
  -22.0474  -12.8225   22.0313 N   0  0  0  0  0  0
  -25.4367  -15.1893   20.4076 N   0  0  0  0  0  0
  -31.8425  -14.6396   20.1190 O   0  0  0  0  0  0
  -21.6627   -6.8901   21.4254 O   0  0  0  0  0  0
  -22.3583  -14.5588   20.6676 O   0  0  0  0  0  0
  -24.6145  -31.8669   23.2106 C   0  0  0  0  0  0
  -25.9035  -32.4826   23.8422 C   0  0  1  0  0  0
  -27.2443  -27.4264   20.0735 C   0  0  0  0  0  0
  -25.5904  -33.8630   24.2353 N   0  0  0  0  0  0
  -23.4045  -30.4909   21.5489 C   0  0  2  0  0  0
  -24.8518  -28.9567   20.1079 C   0  0  0  0  0  0
  -22.7427  -29.4649   22.4958 C   0  0  0  0  0  0
  -18.0269  -28.1408   22.8491 C   0  0  0  0  0  0
  -24.1469  -36.7302   23.2632 C   0  0  0  0  0  0
  -25.9341  -30.8241   21.3675 C   0  0  0  0  0  0
  -26.0083  -29.4544   20.7201 C   0  0  0  0  0  0
  -27.1983  -28.6884   20.7137 C   0  0  0  0  0  0
  -26.0781  -26.9693   19.4215 C   0  0  0  0  0  0
  -24.8828  -27.7113   19.4575 C   0  0  0  0  0  0
  -23.6140  -29.8235   20.1626 C   0  0  0  0  0  0
  -25.4098  -36.3123   24.0341 C   0  0  1  0  0  0
  -20.5857  -28.3698   23.1297 C   0  0  2  0  0  0
  -20.6741  -26.9427   22.5413 C   0  0  0  0  0  0
  -19.5722  -26.6420   21.5196 C   0  0  0  0  0  0
  -18.1890  -26.7962   22.1589 C   0  0  0  0  0  0
  -19.1526  -28.8863   23.2889 C   0  0  0  0  0  0
  -18.9463  -30.1456   23.8928 C   0  0  0  0  0  0
  -17.6467  -30.6616   24.0587 C   0  0  0  0  0  0
  -25.9040  -34.9488   23.5157 C   0  0  0  0  0  0
  -16.5348  -29.9123   23.6340 C   0  0  0  0  0  0
  -16.7264  -28.6518   23.0389 C   0  0  0  0  0  0
  -26.4450  -31.6600   25.0753 C   0  0  0  0  0  0
  -25.3733  -31.3645   26.1495 C   0  0  0  0  0  0
  -27.0323  -30.3084   24.6112 C   0  0  0  0  0  0
  -27.6029  -32.4287   25.7540 C   0  0  0  0  0  0
  -27.5580  -37.1802   24.8439 C   0  0  0  0  0  0
  -21.4143  -29.3067   22.3708 N   0  0  0  0  0  0
  -26.4263  -37.3836   23.9444 N   0  0  0  0  0  0
  -24.6696  -31.0757   22.1008 N   0  0  0  0  0  0
  -23.4175  -28.8193   23.3017 O   0  0  0  0  0  0
  -28.4256  -26.7036   20.1066 O   0  0  0  0  0  0
  -26.5605  -34.8917   22.4719 O   0  0  0  0  0  0
  -23.5330  -32.1416   23.7501 O   0  0  0  0  0  0
  -30.4159  -24.1761   20.4120 C   0  0  0  0  0  0
  -29.5669  -18.9491   19.2776 C   0  0  0  0  0  0
  -30.9077  -19.2477   21.4351 C   0  0  0  0  0  0
  -29.1262  -17.5604   19.7917 C   0  0  0  0  0  0
  -30.4318  -17.8429   21.8833 C   0  0  0  0  0  0
  -30.0937  -25.1993   19.3232 C   0  0  0  0  0  0
  -29.7545  -22.3753   22.8499 C   0  0  0  0  0  0
  -29.2269  -23.2147   20.3455 C   0  0  2  0  0  0
  -29.9908  -19.9449   20.3918 C   0  0  2  0  0  0
  -28.0222  -24.1887   20.1887 C   0  0  1  0  0  0
  -30.2360  -16.9370   20.6540 C   0  0  1  0  0  0
  -28.5722  -25.4421   19.4201 C   0  0  1  0  0  0
  -29.1324  -22.1586   21.4789 C   0  0  1  0  0  0
  -26.8238  -23.4825   19.5187 C   0  0  0  0  0  0
  -28.7980  -20.7298   21.0065 C   0  0  0  0  0  0
  -29.9594  -15.5221   20.9750 N   0  0  0  0  0  0
  -28.3696  -22.6099   22.6148 O   0  0  0  0  0  0
  -31.4654  -12.4039   19.1230 H   0  0  0  0  0  0
  -30.3141  -11.2969   19.8203 H   0  0  0  0  0  0
  -29.7407  -11.8233   17.4103 H   0  0  0  0  0  0
  -29.6434  -13.5219   17.8008 H   0  0  0  0  0  0
  -27.8417  -11.3021   18.8225 H   0  0  0  0  0  0
  -27.3639  -12.6260   17.7940 H   0  0  0  0  0  0
  -27.7024  -14.2492   19.5705 H   0  0  0  0  0  0
  -28.6781  -11.9697   21.3647 H   0  0  0  0  0  0
  -28.4718  -13.6211   21.8690 H   0  0  0  0  0  0
  -25.2768   -9.5680   22.4803 H   0  0  0  0  0  0
  -23.9989   -7.4647   22.7524 H   0  0  0  0  0  0
  -21.0881   -8.8781   19.8924 H   0  0  0  0  0  0
  -22.3757  -10.9683   19.6152 H   0  0  0  0  0  0
  -21.2000   -7.6176   23.9741 H   0  0  0  0  0  0
  -21.1460   -6.0532   25.9083 H   0  0  0  0  0  0
  -22.0612   -2.7630   23.2839 H   0  0  0  0  0  0
  -22.4047  -11.9820   22.4610 H   0  0  0  0  0  0
  -21.1097  -13.1274   22.2507 H   0  0  0  0  0  0
  -24.6784  -15.8523   20.5252 H   0  0  0  0  0  0
  -26.2980  -15.6231   20.1017 H   0  0  0  0  0  0
  -26.7120  -32.5557   23.1205 H   0  0  0  0  0  0
  -25.0070  -33.9799   25.0509 H   0  0  0  0  0  0
  -22.6950  -31.3090   21.4108 H   0  0  0  0  0  0
  -23.3803  -35.9549   23.3150 H   0  0  0  0  0  0
  -24.3591  -36.9090   22.2085 H   0  0  0  0  0  0
  -23.7097  -37.6401   23.6758 H   0  0  0  0  0  0
  -26.0411  -31.5876   20.5933 H   0  0  0  0  0  0
  -26.8243  -30.8882   21.9815 H   0  0  0  0  0  0
  -28.0869  -29.0683   21.1976 H   0  0  0  0  0  0
  -26.0779  -26.0579   18.8480 H   0  0  0  0  0  0
  -24.0047  -27.3330   18.9517 H   0  0  0  0  0  0
  -23.7232  -30.6013   19.4069 H   0  0  0  0  0  0
  -22.7367  -29.2458   19.8655 H   0  0  0  0  0  0
  -25.1248  -36.1986   25.0836 H   0  0  0  0  0  0
  -20.9947  -28.3267   24.1414 H   0  0  0  0  0  0
  -20.5627  -26.2312   23.3610 H   0  0  0  0  0  0
  -21.6609  -26.7450   22.1234 H   0  0  0  0  0  0
  -19.6896  -25.6348   21.1199 H   0  0  0  0  0  0
  -19.6677  -27.3248   20.6748 H   0  0  0  0  0  0
  -17.4187  -26.6780   21.3959 H   0  0  0  0  0  0
  -18.0246  -26.0088   22.8953 H   0  0  0  0  0  0
  -19.7943  -30.7258   24.2311 H   0  0  0  0  0  0
  -17.5039  -31.6285   24.5227 H   0  0  0  0  0  0
  -15.5367  -30.3064   23.7650 H   0  0  0  0  0  0
  -15.8636  -28.0854   22.7129 H   0  0  0  0  0  0
  -24.5939  -30.6963   25.7801 H   0  0  0  0  0  0
  -24.8884  -32.2771   26.4983 H   0  0  0  0  0  0
  -25.8118  -30.8788   27.0226 H   0  0  0  0  0  0
  -26.2899  -29.6812   24.1167 H   0  0  0  0  0  0
  -27.4140  -29.7335   25.4552 H   0  0  0  0  0  0
  -27.8684  -30.4456   23.9251 H   0  0  0  0  0  0
  -27.2707  -33.3639   26.2050 H   0  0  0  0  0  0
  -28.3906  -32.6721   25.0403 H   0  0  0  0  0  0
  -28.0592  -31.8417   26.5520 H   0  0  0  0  0  0
  -28.2494  -38.0198   24.7658 H   0  0  0  0  0  0
  -28.1180  -36.2748   24.6060 H   0  0  0  0  0  0
  -27.2317  -37.1196   25.8832 H   0  0  0  0  0  0
  -20.9311  -29.8818   21.6951 H   0  0  0  0  0  0
  -26.0126  -38.2875   24.1585 H   0  0  0  0  0  0
  -30.4614  -24.6921   21.3723 H   0  0  0  0  0  0
  -31.3729  -23.6814   20.2467 H   0  0  0  0  0  0
  -28.7849  -19.3855   18.6535 H   0  0  0  0  0  0
  -30.4187  -18.8049   18.6089 H   0  0  0  0  0  0
  -31.8963  -19.1364   20.9907 H   0  0  0  0  0  0
  -31.0588  -19.8851   22.3052 H   0  0  0  0  0  0
  -28.8985  -16.9153   18.9408 H   0  0  0  0  0  0
  -28.2014  -17.6482   20.3655 H   0  0  0  0  0  0
  -29.5021  -17.9198   22.4509 H   0  0  0  0  0  0
  -31.1678  -17.4051   22.5604 H   0  0  0  0  0  0
  -30.3453  -24.7727   18.3493 H   0  0  0  0  0  0
  -30.6847  -26.1107   19.4262 H   0  0  0  0  0  0
  -30.3303  -23.2718   23.0695 H   0  0  0  0  0  0
  -29.9559  -21.5165   23.4863 H   0  0  0  0  0  0
  -29.3361  -22.6680   19.4064 H   0  0  0  0  0  0
  -30.6024  -20.6986   19.8940 H   0  0  0  0  0  0
  -27.7106  -24.5303   21.1775 H   0  0  0  0  0  0
  -31.1587  -16.9850   20.0725 H   0  0  0  0  0  0
  -28.1764  -25.5159   18.4068 H   0  0  0  0  0  0
  -27.0221  -23.2459   18.4712 H   0  0  0  0  0  0
  -25.9075  -24.0658   19.5681 H   0  0  0  0  0  0
  -26.5968  -22.5463   20.0272 H   0  0  0  0  0  0
  -28.3829  -20.1610   21.8401 H   0  0  0  0  0  0
  -27.9886  -20.7975   20.2822 H   0  0  0  0  0  0
  -29.0416  -15.2966   21.3306 H   0  0  0  0  0  0
  1 25  1  0  0  0
  1 30  2  0  0  0
  1 86  1  0  0  0
  2  3  1  0  0  0
  2 25  1  0  0  0
  2 88  1  0  0  0
  2 89  1  0  0  0
  3  4  1  0  0  0
  3 90  1  0  0  0
  3 91  1  0  0  0
  4  5  1  0  0  0
  4 92  1  0  0  0
  4 93  1  0  0  0
  5  6  1  0  0  0
  5 26  1  0  0  0
  5 94  1  0  0  0
  6 25  1  0  0  0
  6 95  1  0  0  0
  6 96  1  0  0  0
  7  8  2  0  0  0
  7 26  1  0  0  0
  7 29  1  0  0  0
  8  9  1  0  0  0
  8 22  1  0  0  0
  9 10  1  0  0  0
  9 27  2  0  0  0
 10 11  2  0  0  0
 10 15  1  0  0  0
 11 12  1  0  0  0
 11 97  1  0  0  0
 12 13  2  0  0  0
 12 98  1  0  0  0
 13 14  1  0  0  0
 13 31  1  0  0  0
 14 15  2  0  0  0
 14 99  1  0  0  0
 15100  1  0  0  0
 16 17  2  0  0  0
 16 21  1  0  0  0
 16 31  1  0  0  0
 17 18  1  0  0  0
 17101  1  0  0  0
 18 19  2  0  0  0
 18102  1  0  0  0
 19 20  1  0  0  0
 19 24  1  0  0  0
 20 21  2  0  0  0
 20103  1  0  0  0
 21 23  1  0  0  0
 22 28  1  0  0  0
 22 32  2  0  0  0
 26 27  1  0  0  0
 28104  1  0  0  0
 28105  1  0  0  0
 29106  1  0  0  0
 29107  1  0  0  0
 33 34  1  0  0  0
 33 66  1  0  0  0
 33 70  2  0  0  0
 34 36  1  0  0  0
 34 59  1  0  0  0
 34108  1  0  0  0
 35 44  2  0  0  0
 35 45  1  0  0  0
 35 68  1  0  0  0
 36 56  1  0  0  0
 36109  1  0  0  0
 37 39  1  0  0  0
 37 47  1  0  0  0
 37 66  1  0  0  0
 37110  1  0  0  0
 38 43  2  0  0  0
 38 46  1  0  0  0
 38 47  1  0  0  0
 39 64  1  0  0  0
 39 67  2  0  0  0
 40 52  1  0  0  0
 40 53  2  0  0  0
 40 58  1  0  0  0
 41111  1  0  0  0
 41112  1  0  0  0
 41113  1  0  0  0
 41 48  1  0  0  0
 42 43  1  0  0  0
 42 66  1  0  0  0
 42114  1  0  0  0
 42115  1  0  0  0
 43 44  1  0  0  0
 44116  1  0  0  0
 45 46  2  0  0  0
 45117  1  0  0  0
 46118  1  0  0  0
 47119  1  0  0  0
 47120  1  0  0  0
 48 56  1  0  0  0
 48 65  1  0  0  0
 48121  1  0  0  0
 49 50  1  0  0  0
 49 53  1  0  0  0
 49 64  1  0  0  0
 49122  1  0  0  0
 50 51  1  0  0  0
 50123  1  0  0  0
 50124  1  0  0  0
 51 52  1  0  0  0
 51125  1  0  0  0
 51126  1  0  0  0
 52127  1  0  0  0
 52128  1  0  0  0
 53 54  1  0  0  0
 54 55  2  0  0  0
 54129  1  0  0  0
 55 57  1  0  0  0
 55130  1  0  0  0
 56 69  2  0  0  0
 57 58  2  0  0  0
 57131  1  0  0  0
 58132  1  0  0  0
 59 60  1  0  0  0
 59 61  1  0  0  0
 59 62  1  0  0  0
 60133  1  0  0  0
 60134  1  0  0  0
 60135  1  0  0  0
 61136  1  0  0  0
 61137  1  0  0  0
 61138  1  0  0  0
 62139  1  0  0  0
 62140  1  0  0  0
 62141  1  0  0  0
 63 65  1  0  0  0
 63142  1  0  0  0
 63143  1  0  0  0
 63144  1  0  0  0
 64145  1  0  0  0
 65146  1  0  0  0
 68 82  1  0  0  0
 71 76  1  0  0  0
 71147  1  0  0  0
 71148  1  0  0  0
 71 78  1  0  0  0
 72 74  1  0  0  0
 72 79  1  0  0  0
 72149  1  0  0  0
 72150  1  0  0  0
 73 75  1  0  0  0
 73 79  1  0  0  0
 73151  1  0  0  0
 73152  1  0  0  0
 74 81  1  0  0  0
 74153  1  0  0  0
 74154  1  0  0  0
 75 81  1  0  0  0
 75155  1  0  0  0
 75156  1  0  0  0
 76 82  1  0  0  0
 76157  1  0  0  0
 76158  1  0  0  0
 77 83  1  0  0  0
 77 87  1  0  0  0
 77159  1  0  0  0
 77160  1  0  0  0
 78 80  1  0  0  0
 78 83  1  0  0  0
 78161  1  0  0  0
 79 85  1  0  0  0
 79162  1  0  0  0
 80 82  1  0  0  0
 80 84  1  0  0  0
 80163  1  0  0  0
 81 86  1  0  0  0
 81164  1  0  0  0
 82165  1  0  0  0
 83 85  1  0  0  0
 83 87  1  0  0  0
 84166  1  0  0  0
 84167  1  0  0  0
 84168  1  0  0  0
 85169  1  0  0  0
 85170  1  0  0  0
 86171  1  0  0  0
M  ISO  4   1 100  68 101  82 101  86 100
M  END
> <chiral flag>
0

> <version>
0

> <s_m_source_file>
/data/baiqing/PycharmProjects/Reinvent-master-3.2/result/LINK_invent/BTK/process_docking_weight1_custom_sum_contain_oxygen_bond_distance_aromatic_linkinvent_7_9_3/rearranged_h_0136.sdf

> <i_m_source_file_index>
43

> <r_mmod_Potential_Energy-OPLS-2005>
108.233528137207

> <r_mmod_Stretch_Energy-OPLS-2005>
43.5319290161133

> <r_mmod_Bend_Energy-OPLS-2005>
148.387481689453

> <r_mmod_Torsional_Energy-OPLS-2005>
350.399047851562

> <r_mmod_Improper_Torsional_Energy-OPLS-2005>
5.53754425048828

> <r_mmod_Van_der_Waal_Energy-OPLS-2005>
129.424682617188

> <r_mmod_Electrostatic_Energy-OPLS-2005>
-378.078887939453

> <r_mmod_Solvation_Energy-OPLS-2005>
-206.025131225586

> <b_mmod_Minimization_Converged-OPLS-2005>
0

> <r_mmod_RMS_Derivative-OPLS-2005>
3.49949717521667

$$$$
46
                    3D
 Structure written by MMmdl.
157166  0  0  1  0            999 V2000
  -30.5890  -14.8444   20.4555 C   0  0  0  0  0  0
  -30.4414  -12.5257   19.4859 C   0  0  0  0  0  0
  -29.5195  -12.5235   18.2459 C   0  0  0  0  0  0
  -28.0485  -12.3275   18.6601 C   0  0  0  0  0  0
  -27.6380  -13.2432   19.8442 C   0  0  2  0  0  0
  -28.6816  -13.2223   20.9825 C   0  0  0  0  0  0
  -25.2503  -13.8222   20.5706 C   0  0  0  0  0  0
  -24.1804  -13.0454   20.9225 C   0  0  0  0  0  0
  -24.6407  -11.6941   20.8744 C   0  0  0  0  0  0
  -23.9085  -10.4313   21.0408 C   0  0  0  0  0  0
  -24.3632   -9.4230   21.9185 C   0  0  0  0  0  0
  -23.6308   -8.2259   22.0745 C   0  0  0  0  0  0
  -22.4287   -8.0289   21.3537 C   0  0  0  0  0  0
  -21.9929   -9.0266   20.4637 C   0  0  0  0  0  0
  -22.7256  -10.2151   20.3052 C   0  0  0  0  0  0
  -21.6865   -6.0742   22.5277 C   0  0  0  0  0  0
  -21.4020   -6.5642   23.8212 C   0  0  0  0  0  0
  -21.3659   -5.6788   24.9174 C   0  0  0  0  0  0
  -21.6034   -4.3052   24.7217 C   0  0  0  0  0  0
  -21.8819   -3.8148   23.4339 C   0  0  0  0  0  0
  -21.9205   -4.6972   22.3398 C   0  0  0  0  0  0
  -22.7822  -13.5238   21.1869 C   0  0  0  0  0  0
  -22.1669   -4.2160   21.0975 F   0  0  0  0  0  0
  -21.5634   -3.4533   25.7732 F   0  0  0  0  0  0
  -29.9729  -13.6039   20.3956 N   0  0  0  0  0  0
  -26.2927  -12.9432   20.3254 N   0  0  0  0  0  0
  -25.9343  -11.6570   20.5737 N   0  0  0  0  0  0
  -22.0452  -12.8228   22.0415 N   0  0  0  0  0  0
  -25.4186  -15.1941   20.4109 N   0  0  0  0  0  0
  -31.7829  -14.9254   20.1539 O   0  0  0  0  0  0
  -21.6643   -6.8890   21.4242 O   0  0  0  0  0  0
  -22.3509  -14.5531   20.6706 O   0  0  0  0  0  0
  -24.6393  -31.8492   23.1956 C   0  0  0  0  0  0
  -25.9192  -32.4728   23.8316 C   0  0  1  0  0  0
  -27.2121  -27.1814   20.1484 C   0  0  0  0  0  0
  -25.5958  -33.8531   24.2230 N   0  0  0  0  0  0
  -23.4402  -30.4730   21.5395 C   0  0  2  0  0  0
  -24.8912  -28.9157   20.1091 C   0  0  0  0  0  0
  -22.7554  -29.4585   22.4885 C   0  0  0  0  0  0
  -18.0303  -28.1401   22.8488 C   0  0  0  0  0  0
  -24.1487  -36.7263   23.2640 C   0  0  0  0  0  0
  -25.9950  -30.7373   21.3916 C   0  0  0  0  0  0
  -26.0665  -29.3527   20.7347 C   0  0  0  0  0  0
  -27.2295  -28.4994   20.7457 C   0  0  0  0  0  0
  -26.0231  -26.8586   19.4528 C   0  0  0  0  0  0
  -24.8797  -27.6787   19.4536 C   0  0  0  0  0  0
  -23.6644  -29.8106   20.1555 C   0  0  0  0  0  0
  -25.4121  -36.3054   24.0321 C   0  0  1  0  0  0
  -20.5916  -28.3729   23.1245 C   0  0  2  0  0  0
  -20.6790  -26.9433   22.5410 C   0  0  0  0  0  0
  -19.5762  -26.6394   21.5217 C   0  0  0  0  0  0
  -18.1942  -26.7942   22.1624 C   0  0  0  0  0  0
  -19.1560  -28.8884   23.2861 C   0  0  0  0  0  0
  -18.9475  -30.1480   23.8888 C   0  0  0  0  0  0
  -17.6474  -30.6601   24.0569 C   0  0  0  0  0  0
  -25.9076  -34.9423   23.5082 C   0  0  0  0  0  0
  -16.5366  -29.9099   23.6336 C   0  0  0  0  0  0
  -16.7287  -28.6513   23.0359 C   0  0  0  0  0  0
  -26.4520  -31.6576   25.0735 C   0  0  0  0  0  0
  -25.3724  -31.3744   26.1441 C   0  0  0  0  0  0
  -27.0381  -30.2982   24.6278 C   0  0  0  0  0  0
  -27.6062  -32.4326   25.7513 C   0  0  0  0  0  0
  -27.5572  -37.1791   24.8469 C   0  0  0  0  0  0
  -21.4251  -29.3061   22.3622 N   0  0  0  0  0  0
  -26.4285  -37.3763   23.9412 N   0  0  0  0  0  0
  -24.7104  -31.0395   22.0975 N   0  0  0  0  0  0
  -23.4219  -28.8132   23.3020 O   0  0  0  0  0  0
  -28.2369  -26.1775   20.2240 O   0  0  0  0  0  0
  -26.5648  -34.8900   22.4654 O   0  0  0  0  0  0
  -23.5521  -32.1355   23.7193 O   0  0  0  0  0  0
  -28.3593  -22.4262   21.6983 C   0  0  0  0  0  0
  -28.6326  -21.0118   21.6706 C   0  0  0  0  0  0
  -29.1203  -22.6366   19.4747 C   0  0  0  0  0  0
  -29.4338  -21.2075   19.4362 C   0  0  0  0  0  0
  -28.5326  -23.3163   20.5920 C   0  0  0  0  0  0
  -29.1303  -20.3125   20.5302 C   0  0  0  0  0  0
  -31.0169  -21.4169   17.3326 C   0  0  0  0  0  0
  -29.6456  -21.0603   16.8005 C   0  0  0  0  0  0
  -30.0535  -20.6244   18.1887 C   0  0  0  0  0  0
  -29.0243  -18.6767   20.4415 C   0  0  0  0  0  0
  -27.7639  -24.7605   20.5898 C   0  0  0  0  0  0
  -30.1927  -17.5232   20.6288 C   0  0  0  0  0  0
  -29.8217  -16.0040   20.6521 N   0  0  0  0  0  0
  -30.4162  -11.5614   19.9930 H   0  0  0  0  0  0
  -31.4785  -12.6684   19.1769 H   0  0  0  0  0  0
  -29.8228  -11.7399   17.5510 H   0  0  0  0  0  0
  -29.6274  -13.4682   17.7114 H   0  0  0  0  0  0
  -27.9266  -11.2803   18.9408 H   0  0  0  0  0  0
  -27.3892  -12.4911   17.8058 H   0  0  0  0  0  0
  -27.6166  -14.2578   19.4424 H   0  0  0  0  0  0
  -28.7436  -12.2363   21.4448 H   0  0  0  0  0  0
  -28.3944  -13.9187   21.7733 H   0  0  0  0  0  0
  -25.2776   -9.5714   22.4756 H   0  0  0  0  0  0
  -24.0021   -7.4653   22.7467 H   0  0  0  0  0  0
  -21.0852   -8.8795   19.8937 H   0  0  0  0  0  0
  -22.3720  -10.9689   19.6159 H   0  0  0  0  0  0
  -21.2001   -7.6146   23.9730 H   0  0  0  0  0  0
  -21.1482   -6.0509   25.9084 H   0  0  0  0  0  0
  -22.0596   -2.7613   23.2831 H   0  0  0  0  0  0
  -22.4063  -11.9907   22.4831 H   0  0  0  0  0  0
  -21.1057  -13.1252   22.2572 H   0  0  0  0  0  0
  -24.6490  -15.8462   20.5142 H   0  0  0  0  0  0
  -26.2564  -15.6301   20.0487 H   0  0  0  0  0  0
  -26.7265  -32.5356   23.1051 H   0  0  0  0  0  0
  -25.0090  -33.9662   25.0363 H   0  0  0  0  0  0
  -22.7398  -31.2982   21.3922 H   0  0  0  0  0  0
  -23.3748  -35.9596   23.3304 H   0  0  0  0  0  0
  -24.3578  -36.8892   22.2058 H   0  0  0  0  0  0
  -23.7236  -37.6458   23.6670 H   0  0  0  0  0  0
  -26.1460  -31.4920   20.6187 H   0  0  0  0  0  0
  -26.8663  -30.7887   22.0319 H   0  0  0  0  0  0
  -28.1186  -28.8219   21.2674 H   0  0  0  0  0  0
  -25.9397  -25.9384   18.8959 H   0  0  0  0  0  0
  -23.9917  -27.3452   18.9336 H   0  0  0  0  0  0
  -23.7993  -30.5902   19.4046 H   0  0  0  0  0  0
  -22.7779  -29.2533   19.8442 H   0  0  0  0  0  0
  -25.1303  -36.1890   25.0814 H   0  0  0  0  0  0
  -21.0005  -28.3315   24.1364 H   0  0  0  0  0  0
  -20.5691  -26.2340   23.3624 H   0  0  0  0  0  0
  -21.6655  -26.7456   22.1194 H   0  0  0  0  0  0
  -19.6924  -25.6304   21.1251 H   0  0  0  0  0  0
  -19.6688  -27.3194   20.6740 H   0  0  0  0  0  0
  -17.4205  -26.6690   21.4029 H   0  0  0  0  0  0
  -18.0343  -26.0092   22.9032 H   0  0  0  0  0  0
  -19.7957  -30.7297   24.2241 H   0  0  0  0  0  0
  -17.5033  -31.6274   24.5179 H   0  0  0  0  0  0
  -15.5366  -30.2998   23.7669 H   0  0  0  0  0  0
  -15.8685  -28.0827   22.7081 H   0  0  0  0  0  0
  -24.5916  -30.7072   25.7760 H   0  0  0  0  0  0
  -24.8887  -32.2918   26.4812 H   0  0  0  0  0  0
  -25.8026  -30.8958   27.0251 H   0  0  0  0  0  0
  -26.2990  -29.6712   24.1275 H   0  0  0  0  0  0
  -27.4009  -29.7265   25.4829 H   0  0  0  0  0  0
  -27.8895  -30.4226   23.9582 H   0  0  0  0  0  0
  -27.2673  -33.3651   26.2031 H   0  0  0  0  0  0
  -28.3901  -32.6847   25.0362 H   0  0  0  0  0  0
  -28.0697  -31.8491   26.5474 H   0  0  0  0  0  0
  -28.2592  -38.0084   24.7508 H   0  0  0  0  0  0
  -28.1062  -36.2616   24.6302 H   0  0  0  0  0  0
  -27.2293  -37.1447   25.8871 H   0  0  0  0  0  0
  -20.9445  -29.8776   21.6807 H   0  0  0  0  0  0
  -26.0152  -38.2830   24.1414 H   0  0  0  0  0  0
  -27.8934  -22.8163   22.5922 H   0  0  0  0  0  0
  -28.3591  -20.4332   22.5427 H   0  0  0  0  0  0
  -29.2665  -23.2245   18.5792 H   0  0  0  0  0  0
  -31.2073  -22.4594   17.5808 H   0  0  0  0  0  0
  -31.8679  -20.8855   16.9126 H   0  0  0  0  0  0
  -29.6092  -20.3008   16.0213 H   0  0  0  0  0  0
  -28.9220  -21.8672   16.6987 H   0  0  0  0  0  0
  -30.3061  -19.5739   18.3167 H   0  0  0  0  0  0
  -28.5480  -18.4791   19.4803 H   0  0  0  0  0  0
  -28.2494  -18.4149   21.1622 H   0  0  0  0  0  0
  -27.3881  -24.8759   21.6074 H   0  0  0  0  0  0
  -26.8756  -24.5118   20.0155 H   0  0  0  0  0  0
  -30.7073  -17.7214   21.5689 H   0  0  0  0  0  0
  -30.9497  -17.6674   19.8567 H   0  0  0  0  0  0
  -28.8489  -15.8135   20.8434 H   0  0  0  0  0  0
  1 25  1  0  0  0
  1 30  2  0  0  0
  1 83  1  0  0  0
  2  3  1  0  0  0
  2 25  1  0  0  0
  2 84  1  0  0  0
  2 85  1  0  0  0
  3  4  1  0  0  0
  3 86  1  0  0  0
  3 87  1  0  0  0
  4  5  1  0  0  0
  4 88  1  0  0  0
  4 89  1  0  0  0
  5  6  1  0  0  0
  5 26  1  0  0  0
  5 90  1  0  0  0
  6 25  1  0  0  0
  6 91  1  0  0  0
  6 92  1  0  0  0
  7  8  2  0  0  0
  7 26  1  0  0  0
  7 29  1  0  0  0
  8  9  1  0  0  0
  8 22  1  0  0  0
  9 10  1  0  0  0
  9 27  2  0  0  0
 10 11  2  0  0  0
 10 15  1  0  0  0
 11 12  1  0  0  0
 11 93  1  0  0  0
 12 13  2  0  0  0
 12 94  1  0  0  0
 13 14  1  0  0  0
 13 31  1  0  0  0
 14 15  2  0  0  0
 14 95  1  0  0  0
 15 96  1  0  0  0
 16 17  2  0  0  0
 16 21  1  0  0  0
 16 31  1  0  0  0
 17 18  1  0  0  0
 17 97  1  0  0  0
 18 19  2  0  0  0
 18 98  1  0  0  0
 19 20  1  0  0  0
 19 24  1  0  0  0
 20 21  2  0  0  0
 20 99  1  0  0  0
 21 23  1  0  0  0
 22 28  1  0  0  0
 22 32  2  0  0  0
 26 27  1  0  0  0
 28100  1  0  0  0
 28101  1  0  0  0
 29102  1  0  0  0
 29103  1  0  0  0
 33 34  1  0  0  0
 33 66  1  0  0  0
 33 70  2  0  0  0
 34 36  1  0  0  0
 34 59  1  0  0  0
 34104  1  0  0  0
 35 44  2  0  0  0
 35 45  1  0  0  0
 35 68  1  0  0  0
 36 56  1  0  0  0
 36105  1  0  0  0
 37 39  1  0  0  0
 37 47  1  0  0  0
 37 66  1  0  0  0
 37106  1  0  0  0
 38 43  2  0  0  0
 38 46  1  0  0  0
 38 47  1  0  0  0
 39 64  1  0  0  0
 39 67  2  0  0  0
 40 52  1  0  0  0
 40 53  2  0  0  0
 40 58  1  0  0  0
 41107  1  0  0  0
 41108  1  0  0  0
 41109  1  0  0  0
 41 48  1  0  0  0
 42 43  1  0  0  0
 42 66  1  0  0  0
 42110  1  0  0  0
 42111  1  0  0  0
 43 44  1  0  0  0
 44112  1  0  0  0
 45 46  2  0  0  0
 45113  1  0  0  0
 46114  1  0  0  0
 47115  1  0  0  0
 47116  1  0  0  0
 48 56  1  0  0  0
 48 65  1  0  0  0
 48117  1  0  0  0
 49 50  1  0  0  0
 49 53  1  0  0  0
 49 64  1  0  0  0
 49118  1  0  0  0
 50 51  1  0  0  0
 50119  1  0  0  0
 50120  1  0  0  0
 51 52  1  0  0  0
 51121  1  0  0  0
 51122  1  0  0  0
 52123  1  0  0  0
 52124  1  0  0  0
 53 54  1  0  0  0
 54 55  2  0  0  0
 54125  1  0  0  0
 55 57  1  0  0  0
 55126  1  0  0  0
 56 69  2  0  0  0
 57 58  2  0  0  0
 57127  1  0  0  0
 58128  1  0  0  0
 59 60  1  0  0  0
 59 61  1  0  0  0
 59 62  1  0  0  0
 60129  1  0  0  0
 60130  1  0  0  0
 60131  1  0  0  0
 61132  1  0  0  0
 61133  1  0  0  0
 61134  1  0  0  0
 62135  1  0  0  0
 62136  1  0  0  0
 62137  1  0  0  0
 63 65  1  0  0  0
 63138  1  0  0  0
 63139  1  0  0  0
 63140  1  0  0  0
 64141  1  0  0  0
 65142  1  0  0  0
 68 81  1  0  0  0
 71 72  2  0  0  0
 71 75  1  0  0  0
 71143  1  0  0  0
 72 76  1  0  0  0
 72144  1  0  0  0
 73 74  1  0  0  0
 73 75  2  0  0  0
 73145  1  0  0  0
 74 76  2  0  0  0
 74 79  1  0  0  0
 75 81  1  0  0  0
 76 80  1  0  0  0
 77 78  1  0  0  0
 77 79  1  0  0  0
 77146  1  0  0  0
 77147  1  0  0  0
 78 79  1  0  0  0
 78148  1  0  0  0
 78149  1  0  0  0
 79150  1  0  0  0
 80 82  1  0  0  0
 80151  1  0  0  0
 80152  1  0  0  0
 81153  1  0  0  0
 81154  1  0  0  0
 82 83  1  0  0  0
 82155  1  0  0  0
 82156  1  0  0  0
 83157  1  0  0  0
M  ISO  4   1 100  68 101  81 101  83 100
M  END
> <chiral flag>
0

> <version>
0

> <s_m_source_file>
/data/baiqing/PycharmProjects/Reinvent-master-3.2/result/LINK_invent/BTK/process_docking_weight1_custom_sum_contain_oxygen_bond_distance_aromatic_linkinvent_7_9_3/rearranged_h_0136.sdf

> <i_m_source_file_index>
44

> <r_mmod_Potential_Energy-OPLS-2005>
410.631408691406

> <r_mmod_Stretch_Energy-OPLS-2005>
187.565780639648

> <r_mmod_Bend_Energy-OPLS-2005>
236.055267333984

> <r_mmod_Torsional_Energy-OPLS-2005>
272.770874023438

> <r_mmod_Improper_Torsional_Energy-OPLS-2005>
9.58122158050537

> <r_mmod_Van_der_Waal_Energy-OPLS-2005>
139.795684814453

> <r_mmod_Electrostatic_Energy-OPLS-2005>
-369.428924560547

> <r_mmod_Solvation_Energy-OPLS-2005>
-211.100479125977

> <b_mmod_Minimization_Converged-OPLS-2005>
0

> <r_mmod_RMS_Derivative-OPLS-2005>
2.21218252182007

$$$$
47
                    3D
 Structure written by MMmdl.
164173  0  0  1  0            999 V2000
  -30.6731  -14.5096   20.5693 C   0  0  0  0  0  0
  -30.4368  -12.3306   19.4189 C   0  0  0  0  0  0
  -29.4985  -12.4957   18.2038 C   0  0  0  0  0  0
  -28.0191  -12.3521   18.6164 C   0  0  0  0  0  0
  -27.6618  -13.2005   19.8665 C   0  0  2  0  0  0
  -28.7056  -12.9875   20.9853 C   0  0  0  0  0  0
  -25.2619  -13.8148   20.5655 C   0  0  0  0  0  0
  -24.1865  -13.0447   20.9172 C   0  0  0  0  0  0
  -24.6403  -11.6905   20.8726 C   0  0  0  0  0  0
  -23.9066  -10.4296   21.0403 C   0  0  0  0  0  0
  -24.3621   -9.4218   21.9189 C   0  0  0  0  0  0
  -23.6294   -8.2255   22.0757 C   0  0  0  0  0  0
  -22.4283   -8.0286   21.3538 C   0  0  0  0  0  0
  -21.9914   -9.0265   20.4650 C   0  0  0  0  0  0
  -22.7239  -10.2141   20.3055 C   0  0  0  0  0  0
  -21.6845   -6.0748   22.5279 C   0  0  0  0  0  0
  -21.4016   -6.5651   23.8217 C   0  0  0  0  0  0
  -21.3653   -5.6798   24.9177 C   0  0  0  0  0  0
  -21.6036   -4.3059   24.7223 C   0  0  0  0  0  0
  -21.8823   -3.8156   23.4343 C   0  0  0  0  0  0
  -21.9202   -4.6977   22.3400 C   0  0  0  0  0  0
  -22.7888  -13.5254   21.1842 C   0  0  0  0  0  0
  -22.1663   -4.2163   21.0973 F   0  0  0  0  0  0
  -21.5631   -3.4539   25.7733 F   0  0  0  0  0  0
  -30.0305  -13.3151   20.4305 N   0  0  0  0  0  0
  -26.3036  -12.9293   20.3313 N   0  0  0  0  0  0
  -25.9322  -11.6467   20.5742 N   0  0  0  0  0  0
  -22.0527  -12.8237   22.0373 N   0  0  0  0  0  0
  -25.4404  -15.1857   20.4064 N   0  0  0  0  0  0
  -31.8077  -14.7204   20.1329 O   0  0  0  0  0  0
  -21.6641   -6.8888   21.4239 O   0  0  0  0  0  0
  -22.3587  -14.5581   20.6706 O   0  0  0  0  0  0
  -24.6137  -31.8665   23.2099 C   0  0  0  0  0  0
  -25.9006  -32.4821   23.8408 C   0  0  1  0  0  0
  -27.2237  -27.4277   20.0880 C   0  0  0  0  0  0
  -25.5836  -33.8617   24.2314 N   0  0  0  0  0  0
  -23.4038  -30.4884   21.5546 C   0  0  2  0  0  0
  -24.8490  -28.9559   20.1150 C   0  0  0  0  0  0
  -22.7430  -29.4618   22.5020 C   0  0  0  0  0  0
  -18.0255  -28.1340   22.8478 C   0  0  0  0  0  0
  -24.1488  -36.7344   23.2637 C   0  0  0  0  0  0
  -25.9335  -30.8263   21.3702 C   0  0  0  0  0  0
  -26.0107  -29.4587   20.7189 C   0  0  0  0  0  0
  -27.2069  -28.6970   20.7133 C   0  0  0  0  0  0
  -26.0544  -26.9492   19.4663 C   0  0  0  0  0  0
  -24.8639  -27.6962   19.4890 C   0  0  0  0  0  0
  -23.6123  -29.8248   20.1675 C   0  0  0  0  0  0
  -25.4100  -36.3104   24.0329 C   0  0  1  0  0  0
  -20.5850  -28.3635   23.1318 C   0  0  2  0  0  0
  -20.6754  -26.9380   22.5412 C   0  0  0  0  0  0
  -19.5738  -26.6364   21.5193 C   0  0  0  0  0  0
  -18.1906  -26.7896   22.1606 C   0  0  0  0  0  0
  -19.1509  -28.8809   23.2887 C   0  0  0  0  0  0
  -18.9432  -30.1411   23.8914 C   0  0  0  0  0  0
  -17.6445  -30.6568   24.0553 C   0  0  0  0  0  0
  -25.9026  -34.9470   23.5143 C   0  0  0  0  0  0
  -16.5326  -29.9068   23.6335 C   0  0  0  0  0  0
  -16.7249  -28.6468   23.0371 C   0  0  0  0  0  0
  -26.4446  -31.6605   25.0726 C   0  0  0  0  0  0
  -25.3713  -31.3688   26.1479 C   0  0  0  0  0  0
  -27.0262  -30.3038   24.6079 C   0  0  0  0  0  0
  -27.6018  -32.4324   25.7493 C   0  0  0  0  0  0
  -27.5593  -37.1801   24.8447 C   0  0  0  0  0  0
  -21.4151  -29.3015   22.3772 N   0  0  0  0  0  0
  -26.4291  -37.3773   23.9404 N   0  0  0  0  0  0
  -24.6692  -31.0752   22.1034 N   0  0  0  0  0  0
  -23.4197  -28.8158   23.3068 O   0  0  0  0  0  0
  -28.3455  -26.6282   20.0503 O   0  0  0  0  0  0
  -26.5625  -34.8937   22.4731 O   0  0  0  0  0  0
  -23.5325  -32.1419   23.7496 O   0  0  0  0  0  0
  -30.0132  -21.5866   21.1999 C   0  0  0  0  0  0
  -29.0233  -20.0393   19.1967 C   0  0  0  0  0  0
  -30.2541  -20.1876   21.2689 C   0  0  0  0  0  0
  -29.7282  -19.3674   20.2224 C   0  0  0  0  0  0
  -29.2531  -22.1393   20.1510 C   0  0  0  0  0  0
  -30.3736  -19.1541   23.6871 C   0  0  0  0  0  0
  -31.1923  -20.4161   23.7517 C   0  0  0  0  0  0
  -31.0557  -19.6615   22.4349 C   0  0  0  0  0  0
  -27.2637  -25.1878   21.8355 C   0  0  0  0  0  0
  -30.2240  -16.9257   21.2814 C   0  0  0  0  0  0
  -29.5247  -24.5888   20.7964 C   0  0  0  0  0  0
  -29.8625  -17.8224   20.0623 C   0  0  1  0  0  0
  -28.5476  -25.7414   21.1688 C   0  0  1  0  0  0
  -28.7785  -21.3691   19.1622 N   0  0  0  0  0  0
  -28.9052  -23.4962   20.0343 N   0  0  0  0  0  0
  -29.9165  -15.4941   21.0884 N   0  0  0  0  0  0
  -28.6845  -17.3710   19.6183 F   0  0  0  0  0  0
  -31.4762  -12.4556   19.1110 H   0  0  0  0  0  0
  -30.3666  -11.3216   19.8283 H   0  0  0  0  0  0
  -29.7439  -11.7592   17.4371 H   0  0  0  0  0  0
  -29.6557  -13.4746   17.7449 H   0  0  0  0  0  0
  -27.8328  -11.2971   18.8176 H   0  0  0  0  0  0
  -27.3700  -12.6194   17.7812 H   0  0  0  0  0  0
  -27.7026  -14.2454   19.5583 H   0  0  0  0  0  0
  -28.6955  -11.9478   21.3170 H   0  0  0  0  0  0
  -28.4594  -13.5755   21.8694 H   0  0  0  0  0  0
  -25.2770   -9.5695   22.4764 H   0  0  0  0  0  0
  -24.0010   -7.4643   22.7468 H   0  0  0  0  0  0
  -21.0858   -8.8786   19.8945 H   0  0  0  0  0  0
  -22.3711  -10.9689   19.6161 H   0  0  0  0  0  0
  -21.2001   -7.6156   23.9720 H   0  0  0  0  0  0
  -21.1466   -6.0527   25.9079 H   0  0  0  0  0  0
  -22.0609   -2.7623   23.2833 H   0  0  0  0  0  0
  -22.4137  -11.9880   22.4735 H   0  0  0  0  0  0
  -21.1148  -13.1269   22.2593 H   0  0  0  0  0  0
  -24.6817  -15.8484   20.5226 H   0  0  0  0  0  0
  -26.2952  -15.6167   20.0768 H   0  0  0  0  0  0
  -26.7106  -32.5539   23.1208 H   0  0  0  0  0  0
  -24.9888  -33.9779   25.0393 H   0  0  0  0  0  0
  -22.6884  -31.3019   21.4197 H   0  0  0  0  0  0
  -23.3721  -35.9709   23.3280 H   0  0  0  0  0  0
  -24.3591  -36.8985   22.2057 H   0  0  0  0  0  0
  -23.7302  -37.6560   23.6699 H   0  0  0  0  0  0
  -26.0393  -31.5899   20.5988 H   0  0  0  0  0  0
  -26.8243  -30.8846   21.9846 H   0  0  0  0  0  0
  -28.1058  -29.0703   21.1862 H   0  0  0  0  0  0
  -26.0661  -25.9882   18.9722 H   0  0  0  0  0  0
  -23.9716  -27.3040   19.0154 H   0  0  0  0  0  0
  -23.7187  -30.6026   19.4097 H   0  0  0  0  0  0
  -22.7358  -29.2441   19.8722 H   0  0  0  0  0  0
  -25.1285  -36.1976   25.0817 H   0  0  0  0  0  0
  -20.9888  -28.3181   24.1455 H   0  0  0  0  0  0
  -20.5628  -26.2227   23.3587 H   0  0  0  0  0  0
  -21.6628  -26.7420   22.1226 H   0  0  0  0  0  0
  -19.6909  -25.6274   21.1215 H   0  0  0  0  0  0
  -19.6694  -27.3190   20.6733 H   0  0  0  0  0  0
  -17.4187  -26.6604   21.4007 H   0  0  0  0  0  0
  -18.0322  -26.0041   22.9000 H   0  0  0  0  0  0
  -19.7924  -30.7172   24.2312 H   0  0  0  0  0  0
  -17.5031  -31.6276   24.5106 H   0  0  0  0  0  0
  -15.5326  -30.2980   23.7687 H   0  0  0  0  0  0
  -15.8624  -28.0797   22.7111 H   0  0  0  0  0  0
  -24.5894  -30.7010   25.7844 H   0  0  0  0  0  0
  -24.8873  -32.2813   26.4951 H   0  0  0  0  0  0
  -25.8061  -30.8873   27.0242 H   0  0  0  0  0  0
  -26.2771  -29.6791   24.1178 H   0  0  0  0  0  0
  -27.4061  -29.7267   25.4523 H   0  0  0  0  0  0
  -27.8626  -30.4326   23.9193 H   0  0  0  0  0  0
  -27.2617  -33.3623   26.2065 H   0  0  0  0  0  0
  -28.3834  -32.6858   25.0314 H   0  0  0  0  0  0
  -28.0682  -31.8445   26.5410 H   0  0  0  0  0  0
  -28.2563  -38.0135   24.7521 H   0  0  0  0  0  0
  -28.1120  -36.2661   24.6236 H   0  0  0  0  0  0
  -27.2303  -37.1414   25.8839 H   0  0  0  0  0  0
  -20.9315  -29.8759   21.7006 H   0  0  0  0  0  0
  -26.0179  -38.2847   24.1404 H   0  0  0  0  0  0
  -30.4035  -22.2237   21.9760 H   0  0  0  0  0  0
  -28.6249  -19.4906   18.3565 H   0  0  0  0  0  0
  -29.2910  -19.2521   23.7426 H   0  0  0  0  0  0
  -30.7891  -18.2797   24.1823 H   0  0  0  0  0  0
  -32.1436  -20.3525   24.2777 H   0  0  0  0  0  0
  -30.6268  -21.3269   23.9354 H   0  0  0  0  0  0
  -31.9514  -19.1506   22.0872 H   0  0  0  0  0  0
  -27.5125  -24.4847   22.6309 H   0  0  0  0  0  0
  -26.6264  -24.6618   21.1237 H   0  0  0  0  0  0
  -26.6676  -25.9795   22.2886 H   0  0  0  0  0  0
  -29.6046  -17.2258   22.1228 H   0  0  0  0  0  0
  -31.2642  -17.0479   21.5789 H   0  0  0  0  0  0
  -29.9633  -24.2132   21.7174 H   0  0  0  0  0  0
  -30.3559  -24.9860   20.2143 H   0  0  0  0  0  0
  -30.5669  -17.6300   19.2496 H   0  0  0  0  0  0
  -29.0554  -26.3548   21.9153 H   0  0  0  0  0  0
  -28.3633  -23.7687   19.2219 H   0  0  0  0  0  0
  -28.9769  -15.2197   21.3290 H   0  0  0  0  0  0
  1 25  1  0  0  0
  1 30  2  0  0  0
  1 86  1  0  0  0
  2  3  1  0  0  0
  2 25  1  0  0  0
  2 88  1  0  0  0
  2 89  1  0  0  0
  3  4  1  0  0  0
  3 90  1  0  0  0
  3 91  1  0  0  0
  4  5  1  0  0  0
  4 92  1  0  0  0
  4 93  1  0  0  0
  5  6  1  0  0  0
  5 26  1  0  0  0
  5 94  1  0  0  0
  6 25  1  0  0  0
  6 95  1  0  0  0
  6 96  1  0  0  0
  7  8  2  0  0  0
  7 26  1  0  0  0
  7 29  1  0  0  0
  8  9  1  0  0  0
  8 22  1  0  0  0
  9 10  1  0  0  0
  9 27  2  0  0  0
 10 11  2  0  0  0
 10 15  1  0  0  0
 11 12  1  0  0  0
 11 97  1  0  0  0
 12 13  2  0  0  0
 12 98  1  0  0  0
 13 14  1  0  0  0
 13 31  1  0  0  0
 14 15  2  0  0  0
 14 99  1  0  0  0
 15100  1  0  0  0
 16 17  2  0  0  0
 16 21  1  0  0  0
 16 31  1  0  0  0
 17 18  1  0  0  0
 17101  1  0  0  0
 18 19  2  0  0  0
 18102  1  0  0  0
 19 20  1  0  0  0
 19 24  1  0  0  0
 20 21  2  0  0  0
 20103  1  0  0  0
 21 23  1  0  0  0
 22 28  1  0  0  0
 22 32  2  0  0  0
 26 27  1  0  0  0
 28104  1  0  0  0
 28105  1  0  0  0
 29106  1  0  0  0
 29107  1  0  0  0
 33 34  1  0  0  0
 33 66  1  0  0  0
 33 70  2  0  0  0
 34 36  1  0  0  0
 34 59  1  0  0  0
 34108  1  0  0  0
 35 44  2  0  0  0
 35 45  1  0  0  0
 35 68  1  0  0  0
 36 56  1  0  0  0
 36109  1  0  0  0
 37 39  1  0  0  0
 37 47  1  0  0  0
 37 66  1  0  0  0
 37110  1  0  0  0
 38 43  2  0  0  0
 38 46  1  0  0  0
 38 47  1  0  0  0
 39 64  1  0  0  0
 39 67  2  0  0  0
 40 52  1  0  0  0
 40 53  2  0  0  0
 40 58  1  0  0  0
 41111  1  0  0  0
 41112  1  0  0  0
 41113  1  0  0  0
 41 48  1  0  0  0
 42 43  1  0  0  0
 42 66  1  0  0  0
 42114  1  0  0  0
 42115  1  0  0  0
 43 44  1  0  0  0
 44116  1  0  0  0
 45 46  2  0  0  0
 45117  1  0  0  0
 46118  1  0  0  0
 47119  1  0  0  0
 47120  1  0  0  0
 48 56  1  0  0  0
 48 65  1  0  0  0
 48121  1  0  0  0
 49 50  1  0  0  0
 49 53  1  0  0  0
 49 64  1  0  0  0
 49122  1  0  0  0
 50 51  1  0  0  0
 50123  1  0  0  0
 50124  1  0  0  0
 51 52  1  0  0  0
 51125  1  0  0  0
 51126  1  0  0  0
 52127  1  0  0  0
 52128  1  0  0  0
 53 54  1  0  0  0
 54 55  2  0  0  0
 54129  1  0  0  0
 55 57  1  0  0  0
 55130  1  0  0  0
 56 69  2  0  0  0
 57 58  2  0  0  0
 57131  1  0  0  0
 58132  1  0  0  0
 59 60  1  0  0  0
 59 61  1  0  0  0
 59 62  1  0  0  0
 60133  1  0  0  0
 60134  1  0  0  0
 60135  1  0  0  0
 61136  1  0  0  0
 61137  1  0  0  0
 61138  1  0  0  0
 62139  1  0  0  0
 62140  1  0  0  0
 62141  1  0  0  0
 63 65  1  0  0  0
 63142  1  0  0  0
 63143  1  0  0  0
 63144  1  0  0  0
 64145  1  0  0  0
 65146  1  0  0  0
 68 83  1  0  0  0
 71 73  2  0  0  0
 71 75  1  0  0  0
 71147  1  0  0  0
 72 74  2  0  0  0
 72 84  1  0  0  0
 72148  1  0  0  0
 73 74  1  0  0  0
 73 78  1  0  0  0
 74 82  1  0  0  0
 75 84  2  0  0  0
 75 85  1  0  0  0
 76 77  1  0  0  0
 76 78  1  0  0  0
 76149  1  0  0  0
 76150  1  0  0  0
 77 78  1  0  0  0
 77151  1  0  0  0
 77152  1  0  0  0
 78153  1  0  0  0
 79154  1  0  0  0
 79155  1  0  0  0
 79156  1  0  0  0
 79 83  1  0  0  0
 80 82  1  0  0  0
 80 86  1  0  0  0
 80157  1  0  0  0
 80158  1  0  0  0
 81 83  1  0  0  0
 81 85  1  0  0  0
 81159  1  0  0  0
 81160  1  0  0  0
 82 87  1  0  0  0
 82161  1  0  0  0
 83162  1  0  0  0
 85163  1  0  0  0
 86164  1  0  0  0
M  ISO  4   1 100  68 101  83 101  86 100
M  END
> <chiral flag>
0

> <version>
0

> <s_m_source_file>
/data/baiqing/PycharmProjects/Reinvent-master-3.2/result/LINK_invent/BTK/process_docking_weight1_custom_sum_contain_oxygen_bond_distance_aromatic_linkinvent_7_9_3/rearranged_h_0136.sdf

> <i_m_source_file_index>
45

> <r_mmod_Potential_Energy-OPLS-2005>
-305.855987548828

> <r_mmod_Stretch_Energy-OPLS-2005>
42.9312896728516

> <r_mmod_Bend_Energy-OPLS-2005>
135.448913574219

> <r_mmod_Torsional_Energy-OPLS-2005>
262.367797851562

> <r_mmod_Improper_Torsional_Energy-OPLS-2005>
3.81507635116577

> <r_mmod_Van_der_Waal_Energy-OPLS-2005>
157.733505249023

> <r_mmod_Electrostatic_Energy-OPLS-2005>
-704.797668457031

> <r_mmod_Solvation_Energy-OPLS-2005>
-220.109146118164

> <b_mmod_Minimization_Converged-OPLS-2005>
0

> <r_mmod_RMS_Derivative-OPLS-2005>
3.41992878913879

$$$$
48
                    3D
 Structure written by MMmdl.
165174  0  0  1  0            999 V2000
  -30.5816  -14.8548   20.4324 C   0  0  0  0  0  0
  -30.4301  -12.5250   19.4973 C   0  0  0  0  0  0
  -29.5143  -12.5083   18.2530 C   0  0  0  0  0  0
  -28.0462  -12.3080   18.6712 C   0  0  0  0  0  0
  -27.6303  -13.2407   19.8395 C   0  0  2  0  0  0
  -28.6696  -13.2420   20.9811 C   0  0  0  0  0  0
  -25.2462  -13.8221   20.5700 C   0  0  0  0  0  0
  -24.1767  -13.0457   20.9217 C   0  0  0  0  0  0
  -24.6373  -11.6934   20.8750 C   0  0  0  0  0  0
  -23.9060  -10.4310   21.0420 C   0  0  0  0  0  0
  -24.3622   -9.4225   21.9187 C   0  0  0  0  0  0
  -23.6303   -8.2250   22.0748 C   0  0  0  0  0  0
  -22.4278   -8.0288   21.3545 C   0  0  0  0  0  0
  -21.9917   -9.0260   20.4648 C   0  0  0  0  0  0
  -22.7240  -10.2145   20.3067 C   0  0  0  0  0  0
  -21.6852   -6.0750   22.5285 C   0  0  0  0  0  0
  -21.4016   -6.5652   23.8222 C   0  0  0  0  0  0
  -21.3653   -5.6795   24.9178 C   0  0  0  0  0  0
  -21.6037   -4.3058   24.7221 C   0  0  0  0  0  0
  -21.8817   -3.8161   23.4337 C   0  0  0  0  0  0
  -21.9193   -4.6983   22.3401 C   0  0  0  0  0  0
  -22.7794  -13.5237   21.1870 C   0  0  0  0  0  0
  -22.1666   -4.2171   21.0977 F   0  0  0  0  0  0
  -21.5617   -3.4539   25.7731 F   0  0  0  0  0  0
  -29.9588  -13.6167   20.3913 N   0  0  0  0  0  0
  -26.2872  -12.9433   20.3241 N   0  0  0  0  0  0
  -25.9296  -11.6569   20.5741 N   0  0  0  0  0  0
  -22.0443  -12.8224   22.0424 N   0  0  0  0  0  0
  -25.4162  -15.1951   20.4160 N   0  0  0  0  0  0
  -31.7786  -14.9083   20.1345 O   0  0  0  0  0  0
  -21.6635   -6.8893   21.4249 O   0  0  0  0  0  0
  -22.3485  -14.5548   20.6728 O   0  0  0  0  0  0
  -24.6386  -31.8480   23.1929 C   0  0  0  0  0  0
  -25.9175  -32.4716   23.8282 C   0  0  1  0  0  0
  -27.2135  -27.1879   20.1465 C   0  0  0  0  0  0
  -25.5938  -33.8522   24.2203 N   0  0  0  0  0  0
  -23.4373  -30.4695   21.5374 C   0  0  2  0  0  0
  -24.8845  -28.9040   20.1109 C   0  0  0  0  0  0
  -22.7525  -29.4579   22.4893 C   0  0  0  0  0  0
  -18.0292  -28.1396   22.8484 C   0  0  0  0  0  0
  -24.1485  -36.7279   23.2642 C   0  0  0  0  0  0
  -25.9892  -30.7393   21.3807 C   0  0  0  0  0  0
  -26.0605  -29.3558   20.7232 C   0  0  0  0  0  0
  -27.2270  -28.5129   20.7240 C   0  0  0  0  0  0
  -26.0105  -26.8203   19.5045 C   0  0  0  0  0  0
  -24.8697  -27.6476   19.4888 C   0  0  0  0  0  0
  -23.6583  -29.7992   20.1561 C   0  0  0  0  0  0
  -25.4114  -36.3052   24.0322 C   0  0  1  0  0  0
  -20.5902  -28.3711   23.1264 C   0  0  2  0  0  0
  -20.6781  -26.9420   22.5420 C   0  0  0  0  0  0
  -19.5760  -26.6386   21.5223 C   0  0  0  0  0  0
  -18.1934  -26.7941   22.1626 C   0  0  0  0  0  0
  -19.1548  -28.8868   23.2862 C   0  0  0  0  0  0
  -18.9476  -30.1465   23.8884 C   0  0  0  0  0  0
  -17.6476  -30.6594   24.0564 C   0  0  0  0  0  0
  -25.9072  -34.9422   23.5077 C   0  0  0  0  0  0
  -16.5362  -29.9090   23.6346 C   0  0  0  0  0  0
  -16.7281  -28.6512   23.0362 C   0  0  0  0  0  0
  -26.4507  -31.6577   25.0709 C   0  0  0  0  0  0
  -25.3699  -31.3767   26.1416 C   0  0  0  0  0  0
  -27.0363  -30.2982   24.6260 C   0  0  0  0  0  0
  -27.6044  -32.4339   25.7487 C   0  0  0  0  0  0
  -27.5578  -37.1772   24.8454 C   0  0  0  0  0  0
  -21.4227  -29.3041   22.3634 N   0  0  0  0  0  0
  -26.4279  -37.3762   23.9421 N   0  0  0  0  0  0
  -24.7080  -31.0380   22.0938 N   0  0  0  0  0  0
  -23.4193  -28.8122   23.3019 O   0  0  0  0  0  0
  -28.2886  -26.2484   20.2055 O   0  0  0  0  0  0
  -26.5660  -34.8911   22.4657 O   0  0  0  0  0  0
  -23.5524  -32.1342   23.7186 O   0  0  0  0  0  0
  -29.8732  -21.2749   21.4547 C   0  0  0  0  0  0
  -30.1145  -19.8516   21.4395 C   0  0  0  0  0  0
  -28.6443  -21.0963   19.4446 C   0  0  0  0  0  0
  -29.1710  -21.9897   20.4329 C   0  0  0  0  0  0
  -29.6611  -18.9645   20.4151 C   0  0  0  0  0  0
  -28.8432  -19.6491   19.4436 C   0  0  0  0  0  0
  -26.3948  -18.1254   16.9723 C   0  0  0  0  0  0
  -24.9584  -18.6168   16.7428 C   0  0  0  0  0  0
  -25.8652  -19.6868   18.6782 C   0  0  0  0  0  0
  -27.0312  -19.2674   17.7628 C   0  0  1  0  0  0
  -29.2440  -23.6240   20.3393 C   0  0  0  0  0  0
  -30.3387  -17.4808   20.2245 C   0  0  0  0  0  0
  -28.0320  -24.7310   20.1903 C   0  0  0  0  0  0
  -28.2642  -18.8588   18.4398 N   0  0  0  0  0  0
  -29.8426  -16.0468   20.5734 N   0  0  0  0  0  0
  -24.6558  -19.5451   17.8498 N   0  3  0  0  0  0
  -31.4693  -12.6573   19.1944 H   0  0  0  0  0  0
  -30.3942  -11.5657   20.0167 H   0  0  0  0  0  0
  -29.8203  -11.7144   17.5698 H   0  0  0  0  0  0
  -29.6183  -13.4452   17.7037 H   0  0  0  0  0  0
  -27.9370  -11.2676   18.9798 H   0  0  0  0  0  0
  -27.3816  -12.4421   17.8169 H   0  0  0  0  0  0
  -27.6056  -14.2473   19.4197 H   0  0  0  0  0  0
  -28.7289  -12.2631   21.4591 H   0  0  0  0  0  0
  -28.3837  -13.9504   21.7608 H   0  0  0  0  0  0
  -25.2761   -9.5703   22.4774 H   0  0  0  0  0  0
  -24.0014   -7.4642   22.7460 H   0  0  0  0  0  0
  -21.0845   -8.8789   19.8948 H   0  0  0  0  0  0
  -22.3691  -10.9695   19.6188 H   0  0  0  0  0  0
  -21.2004   -7.6158   23.9736 H   0  0  0  0  0  0
  -21.1478   -6.0519   25.9082 H   0  0  0  0  0  0
  -22.0593   -2.7623   23.2830 H   0  0  0  0  0  0
  -22.4086  -11.9882   22.4784 H   0  0  0  0  0  0
  -21.1061  -13.1243   22.2644 H   0  0  0  0  0  0
  -24.6609  -15.8519   20.5759 H   0  0  0  0  0  0
  -26.2683  -15.6376   20.0998 H   0  0  0  0  0  0
  -26.7222  -32.5324   23.0994 H   0  0  0  0  0  0
  -25.0011  -33.9633   25.0297 H   0  0  0  0  0  0
  -22.7393  -31.2947   21.3856 H   0  0  0  0  0  0
  -23.3753  -35.9603   23.3285 H   0  0  0  0  0  0
  -24.3574  -36.8948   22.2063 H   0  0  0  0  0  0
  -23.7232  -37.6464   23.6696 H   0  0  0  0  0  0
  -26.1311  -31.4934   20.6052 H   0  0  0  0  0  0
  -26.8669  -30.7927   22.0141 H   0  0  0  0  0  0
  -28.1244  -28.8533   21.2217 H   0  0  0  0  0  0
  -25.9135  -25.8605   19.0227 H   0  0  0  0  0  0
  -23.9691  -27.2947   19.0051 H   0  0  0  0  0  0
  -23.7836  -30.5729   19.3983 H   0  0  0  0  0  0
  -22.7745  -29.2344   19.8530 H   0  0  0  0  0  0
  -25.1288  -36.1888   25.0811 H   0  0  0  0  0  0
  -20.9978  -28.3299   24.1391 H   0  0  0  0  0  0
  -20.5700  -26.2314   23.3626 H   0  0  0  0  0  0
  -21.6648  -26.7447   22.1198 H   0  0  0  0  0  0
  -19.6935  -25.6297   21.1258 H   0  0  0  0  0  0
  -19.6720  -27.3191   20.6751 H   0  0  0  0  0  0
  -17.4209  -26.6697   21.4017 H   0  0  0  0  0  0
  -18.0318  -26.0084   22.9022 H   0  0  0  0  0  0
  -19.7952  -30.7278   24.2256 H   0  0  0  0  0  0
  -17.5035  -31.6283   24.5151 H   0  0  0  0  0  0
  -15.5365  -30.2985   23.7694 H   0  0  0  0  0  0
  -15.8681  -28.0828   22.7093 H   0  0  0  0  0  0
  -24.5879  -30.7117   25.7738 H   0  0  0  0  0  0
  -24.8876  -32.2949   26.4778 H   0  0  0  0  0  0
  -25.7978  -30.8980   27.0236 H   0  0  0  0  0  0
  -26.2972  -29.6714   24.1264 H   0  0  0  0  0  0
  -27.3988  -29.7279   25.4822 H   0  0  0  0  0  0
  -27.8868  -30.4238   23.9561 H   0  0  0  0  0  0
  -27.2641  -33.3655   26.2025 H   0  0  0  0  0  0
  -28.3860  -32.6891   25.0317 H   0  0  0  0  0  0
  -28.0701  -31.8496   26.5434 H   0  0  0  0  0  0
  -28.2553  -38.0104   24.7532 H   0  0  0  0  0  0
  -28.1109  -36.2634   24.6225 H   0  0  0  0  0  0
  -27.2303  -37.1360   25.8855 H   0  0  0  0  0  0
  -20.9431  -29.8755   21.6818 H   0  0  0  0  0  0
  -26.0157  -38.2830   24.1455 H   0  0  0  0  0  0
  -30.3368  -21.8439   22.2490 H   0  0  0  0  0  0
  -30.7533  -19.4453   22.2107 H   0  0  0  0  0  0
  -28.1216  -21.5560   18.6179 H   0  0  0  0  0  0
  -26.9150  -17.9000   16.0409 H   0  0  0  0  0  0
  -26.3685  -17.2124   17.5705 H   0  0  0  0  0  0
  -24.2430  -17.7949   16.7065 H   0  0  0  0  0  0
  -24.8870  -19.1597   15.8001 H   0  0  0  0  0  0
  -25.9522  -20.7034   19.0604 H   0  0  0  0  0  0
  -25.7831  -19.0135   19.5322 H   0  0  0  0  0  0
  -27.2600  -20.0797   17.0705 H   0  0  0  0  0  0
  -29.9189  -23.8149   19.5045 H   0  0  0  0  0  0
  -29.8145  -23.9380   21.2125 H   0  0  0  0  0  0
  -31.3170  -17.5607   20.7006 H   0  0  0  0  0  0
  -30.5794  -17.4289   19.1620 H   0  0  0  0  0  0
  -27.3161  -24.5358   20.9894 H   0  0  0  0  0  0
  -27.5182  -24.4833   19.2624 H   0  0  0  0  0  0
  -28.4475  -17.8620   18.4790 H   0  0  0  0  0  0
  -28.8657  -15.9464   20.8031 H   0  0  0  0  0  0
  -23.8853  -19.2139   18.4070 H   0  0  0  0  0  0
  -24.4021  -20.4396   17.4620 H   0  0  0  0  0  0
  1 25  1  0  0  0
  1 30  2  0  0  0
  1 85  1  0  0  0
  2  3  1  0  0  0
  2 25  1  0  0  0
  2 87  1  0  0  0
  2 88  1  0  0  0
  3  4  1  0  0  0
  3 89  1  0  0  0
  3 90  1  0  0  0
  4  5  1  0  0  0
  4 91  1  0  0  0
  4 92  1  0  0  0
  5  6  1  0  0  0
  5 26  1  0  0  0
  5 93  1  0  0  0
  6 25  1  0  0  0
  6 94  1  0  0  0
  6 95  1  0  0  0
  7  8  2  0  0  0
  7 26  1  0  0  0
  7 29  1  0  0  0
  8  9  1  0  0  0
  8 22  1  0  0  0
  9 10  1  0  0  0
  9 27  2  0  0  0
 10 11  2  0  0  0
 10 15  1  0  0  0
 11 12  1  0  0  0
 11 96  1  0  0  0
 12 13  2  0  0  0
 12 97  1  0  0  0
 13 14  1  0  0  0
 13 31  1  0  0  0
 14 15  2  0  0  0
 14 98  1  0  0  0
 15 99  1  0  0  0
 16 17  2  0  0  0
 16 21  1  0  0  0
 16 31  1  0  0  0
 17 18  1  0  0  0
 17100  1  0  0  0
 18 19  2  0  0  0
 18101  1  0  0  0
 19 20  1  0  0  0
 19 24  1  0  0  0
 20 21  2  0  0  0
 20102  1  0  0  0
 21 23  1  0  0  0
 22 28  1  0  0  0
 22 32  2  0  0  0
 26 27  1  0  0  0
 28103  1  0  0  0
 28104  1  0  0  0
 29105  1  0  0  0
 29106  1  0  0  0
 33 34  1  0  0  0
 33 66  1  0  0  0
 33 70  2  0  0  0
 34 36  1  0  0  0
 34 59  1  0  0  0
 34107  1  0  0  0
 35 44  2  0  0  0
 35 45  1  0  0  0
 35 68  1  0  0  0
 36 56  1  0  0  0
 36108  1  0  0  0
 37 39  1  0  0  0
 37 47  1  0  0  0
 37 66  1  0  0  0
 37109  1  0  0  0
 38 43  2  0  0  0
 38 46  1  0  0  0
 38 47  1  0  0  0
 39 64  1  0  0  0
 39 67  2  0  0  0
 40 52  1  0  0  0
 40 53  2  0  0  0
 40 58  1  0  0  0
 41110  1  0  0  0
 41111  1  0  0  0
 41112  1  0  0  0
 41 48  1  0  0  0
 42 43  1  0  0  0
 42 66  1  0  0  0
 42113  1  0  0  0
 42114  1  0  0  0
 43 44  1  0  0  0
 44115  1  0  0  0
 45 46  2  0  0  0
 45116  1  0  0  0
 46117  1  0  0  0
 47118  1  0  0  0
 47119  1  0  0  0
 48 56  1  0  0  0
 48 65  1  0  0  0
 48120  1  0  0  0
 49 50  1  0  0  0
 49 53  1  0  0  0
 49 64  1  0  0  0
 49121  1  0  0  0
 50 51  1  0  0  0
 50122  1  0  0  0
 50123  1  0  0  0
 51 52  1  0  0  0
 51124  1  0  0  0
 51125  1  0  0  0
 52126  1  0  0  0
 52127  1  0  0  0
 53 54  1  0  0  0
 54 55  2  0  0  0
 54128  1  0  0  0
 55 57  1  0  0  0
 55129  1  0  0  0
 56 69  2  0  0  0
 57 58  2  0  0  0
 57130  1  0  0  0
 58131  1  0  0  0
 59 60  1  0  0  0
 59 61  1  0  0  0
 59 62  1  0  0  0
 60132  1  0  0  0
 60133  1  0  0  0
 60134  1  0  0  0
 61135  1  0  0  0
 61136  1  0  0  0
 61137  1  0  0  0
 62138  1  0  0  0
 62139  1  0  0  0
 62140  1  0  0  0
 63 65  1  0  0  0
 63141  1  0  0  0
 63142  1  0  0  0
 63143  1  0  0  0
 64144  1  0  0  0
 65145  1  0  0  0
 68 83  1  0  0  0
 71 72  2  0  0  0
 71 74  1  0  0  0
 71146  1  0  0  0
 72 75  1  0  0  0
 72147  1  0  0  0
 73 74  2  0  0  0
 73 76  1  0  0  0
 73148  1  0  0  0
 74 81  1  0  0  0
 75 76  2  0  0  0
 75 82  1  0  0  0
 76 84  1  0  0  0
 77 78  1  0  0  0
 77 80  1  0  0  0
 77149  1  0  0  0
 77150  1  0  0  0
 78 86  1  0  0  0
 78151  1  0  0  0
 78152  1  0  0  0
 79 80  1  0  0  0
 79 86  1  0  0  0
 79153  1  0  0  0
 79154  1  0  0  0
 80 84  1  0  0  0
 80155  1  0  0  0
 81 83  1  0  0  0
 81156  1  0  0  0
 81157  1  0  0  0
 82 85  1  0  0  0
 82158  1  0  0  0
 82159  1  0  0  0
 83160  1  0  0  0
 83161  1  0  0  0
 84162  1  0  0  0
 85163  1  0  0  0
 86164  1  0  0  0
 86165  1  0  0  0
M  CHG  1  86   1
M  ISO  4   1 100  68 101  83 101  85 100
M  END
> <chiral flag>
0

> <version>
0

> <s_m_source_file>
/data/baiqing/PycharmProjects/Reinvent-master-3.2/result/LINK_invent/BTK/process_docking_weight1_custom_sum_contain_oxygen_bond_distance_aromatic_linkinvent_7_9_3/rearranged_h_0136.sdf

> <i_m_source_file_index>
46

> <r_mmod_Potential_Energy-OPLS-2005>
227.37483215332

> <r_mmod_Stretch_Energy-OPLS-2005>
183.825637817383

> <r_mmod_Bend_Energy-OPLS-2005>
269.690521240234

> <r_mmod_Torsional_Energy-OPLS-2005>
286.238433837891

> <r_mmod_Improper_Torsional_Energy-OPLS-2005>
11.1258687973022

> <r_mmod_Van_der_Waal_Energy-OPLS-2005>
131.36360168457

> <r_mmod_Electrostatic_Energy-OPLS-2005>
-303.962310791016

> <r_mmod_Solvation_Energy-OPLS-2005>
-490.269653320312

> <b_mmod_Minimization_Converged-OPLS-2005>
0

> <r_mmod_RMS_Derivative-OPLS-2005>
1.80389308929443

$$$$
49
                    3D
 Structure written by MMmdl.
166176  0  0  1  0            999 V2000
  -30.7299  -14.4725   20.4809 C   0  0  0  0  0  0
  -30.4145  -12.2877   19.4345 C   0  0  0  0  0  0
  -29.4903  -12.4633   18.2121 C   0  0  0  0  0  0
  -28.0149  -12.3330   18.6309 C   0  0  0  0  0  0
  -27.6563  -13.2081   19.8614 C   0  0  2  0  0  0
  -28.7025  -13.0584   20.9904 C   0  0  0  0  0  0
  -25.2600  -13.8157   20.5672 C   0  0  0  0  0  0
  -24.1848  -13.0445   20.9188 C   0  0  0  0  0  0
  -24.6397  -11.6908   20.8758 C   0  0  0  0  0  0
  -23.9058  -10.4298   21.0425 C   0  0  0  0  0  0
  -24.3605   -9.4215   21.9206 C   0  0  0  0  0  0
  -23.6284   -8.2249   22.0756 C   0  0  0  0  0  0
  -22.4275   -8.0287   21.3539 C   0  0  0  0  0  0
  -21.9912   -9.0258   20.4644 C   0  0  0  0  0  0
  -22.7232  -10.2143   20.3065 C   0  0  0  0  0  0
  -21.6861   -6.0743   22.5284 C   0  0  0  0  0  0
  -21.4012   -6.5637   23.8216 C   0  0  0  0  0  0
  -21.3666   -5.6785   24.9179 C   0  0  0  0  0  0
  -21.6052   -4.3048   24.7227 C   0  0  0  0  0  0
  -21.8823   -3.8150   23.4348 C   0  0  0  0  0  0
  -21.9191   -4.6965   22.3403 C   0  0  0  0  0  0
  -22.7873  -13.5262   21.1851 C   0  0  0  0  0  0
  -22.1657   -4.2154   21.0981 F   0  0  0  0  0  0
  -21.5631   -3.4529   25.7736 F   0  0  0  0  0  0
  -30.0308  -13.3114   20.4182 N   0  0  0  0  0  0
  -26.3018  -12.9324   20.3339 N   0  0  0  0  0  0
  -25.9323  -11.6484   20.5781 N   0  0  0  0  0  0
  -22.0486  -12.8251   22.0379 N   0  0  0  0  0  0
  -25.4357  -15.1863   20.4040 N   0  0  0  0  0  0
  -31.9352  -14.5377   20.2387 O   0  0  0  0  0  0
  -21.6644   -6.8876   21.4233 O   0  0  0  0  0  0
  -22.3581  -14.5581   20.6703 O   0  0  0  0  0  0
  -24.6118  -31.8696   23.2109 C   0  0  0  0  0  0
  -25.9021  -32.4837   23.8395 C   0  0  1  0  0  0
  -27.2402  -27.4527   20.1146 C   0  0  0  0  0  0
  -25.5902  -33.8630   24.2347 N   0  0  0  0  0  0
  -23.3994  -30.4915   21.5491 C   0  0  2  0  0  0
  -24.8525  -28.9585   20.1141 C   0  0  0  0  0  0
  -22.7401  -29.4672   22.4990 C   0  0  0  0  0  0
  -18.0267  -28.1381   22.8489 C   0  0  0  0  0  0
  -24.1482  -36.7302   23.2627 C   0  0  0  0  0  0
  -25.9235  -30.8414   21.3616 C   0  0  0  0  0  0
  -26.0060  -29.4731   20.7208 C   0  0  0  0  0  0
  -27.2027  -28.7253   20.7281 C   0  0  0  0  0  0
  -26.0816  -26.9551   19.4876 C   0  0  0  0  0  0
  -24.8839  -27.6968   19.4937 C   0  0  0  0  0  0
  -23.6101  -29.8197   20.1640 C   0  0  0  0  0  0
  -25.4097  -36.3118   24.0345 C   0  0  1  0  0  0
  -20.5854  -28.3667   23.1314 C   0  0  2  0  0  0
  -20.6764  -26.9399   22.5427 C   0  0  0  0  0  0
  -19.5756  -26.6387   21.5214 C   0  0  0  0  0  0
  -18.1923  -26.7937   22.1602 C   0  0  0  0  0  0
  -19.1514  -28.8839   23.2908 C   0  0  0  0  0  0
  -18.9452  -30.1443   23.8927 C   0  0  0  0  0  0
  -17.6452  -30.6589   24.0561 C   0  0  0  0  0  0
  -25.9031  -34.9487   23.5140 C   0  0  0  0  0  0
  -16.5340  -29.9093   23.6322 C   0  0  0  0  0  0
  -16.7252  -28.6508   23.0346 C   0  0  0  0  0  0
  -26.4457  -31.6591   25.0703 C   0  0  0  0  0  0
  -25.3733  -31.3673   26.1458 C   0  0  0  0  0  0
  -27.0272  -30.3048   24.6020 C   0  0  0  0  0  0
  -27.6044  -32.4291   25.7467 C   0  0  0  0  0  0
  -27.5596  -37.1780   24.8444 C   0  0  0  0  0  0
  -21.4131  -29.3037   22.3728 N   0  0  0  0  0  0
  -26.4270  -37.3821   23.9442 N   0  0  0  0  0  0
  -24.6626  -31.0809   22.1000 N   0  0  0  0  0  0
  -23.4173  -28.8209   23.3024 O   0  0  0  0  0  0
  -28.3673  -26.6681   20.0991 O   0  0  0  0  0  0
  -26.5583  -34.8933   22.4694 O   0  0  0  0  0  0
  -23.5318  -32.1435   23.7525 O   0  0  0  0  0  0
  -31.0364  -23.2168   21.9754 C   0  0  0  0  0  0
  -27.8091  -21.6768   21.0029 C   0  0  0  0  0  0
  -28.1504  -20.3082   20.9700 C   0  0  0  0  0  0
  -30.6733  -24.5765   21.9056 C   0  0  0  0  0  0
  -30.4182  -20.8680   21.6437 C   0  0  0  0  0  0
  -30.0726  -22.2397   21.6569 C   0  0  0  0  0  0
  -28.7639  -22.6663   21.3107 C   0  0  0  0  0  0
  -29.4744  -19.8986   21.2461 C   0  0  0  0  0  0
  -29.3644  -24.9175   21.5161 C   0  0  0  0  0  0
  -30.9160  -17.3203   17.0768 C   0  0  0  0  0  0
  -30.0770  -18.5844   17.2181 C   0  0  0  0  0  0
  -30.4053  -16.2608   18.0514 C   0  0  0  0  0  0
  -30.1530  -19.0955   18.6578 C   0  0  0  0  0  0
  -30.4504  -16.7220   19.5373 C   0  0  1  0  0  0
  -29.6657  -18.0616   19.7229 C   0  0  1  0  0  0
  -28.9340  -26.3806   21.3832 C   0  0  0  0  0  0
  -28.4267  -23.9760   21.2488 N   0  0  0  0  0  0
  -29.9886  -15.5923   20.3748 N   0  0  0  0  0  0
  -29.9011  -18.6009   21.0386 O   0  0  0  0  0  0
  -31.4593  -12.3692   19.1273 H   0  0  0  0  0  0
  -30.3051  -11.2906   19.8638 H   0  0  0  0  0  0
  -29.7283  -11.7201   17.4511 H   0  0  0  0  0  0
  -29.6545  -13.4344   17.7472 H   0  0  0  0  0  0
  -27.8342  -11.2834   18.8615 H   0  0  0  0  0  0
  -27.3602  -12.5759   17.7942 H   0  0  0  0  0  0
  -27.6815  -14.2405   19.5160 H   0  0  0  0  0  0
  -28.6746  -12.0536   21.4145 H   0  0  0  0  0  0
  -28.4900  -13.7459   21.8115 H   0  0  0  0  0  0
  -25.2742   -9.5684   22.4778 H   0  0  0  0  0  0
  -23.9995   -7.4642   22.7469 H   0  0  0  0  0  0
  -21.0849   -8.8764   19.8942 H   0  0  0  0  0  0
  -22.3686  -10.9679   19.6171 H   0  0  0  0  0  0
  -21.1988   -7.6145   23.9720 H   0  0  0  0  0  0
  -21.1488   -6.0513   25.9074 H   0  0  0  0  0  0
  -22.0595   -2.7614   23.2844 H   0  0  0  0  0  0
  -22.4060  -11.9876   22.4725 H   0  0  0  0  0  0
  -21.1107  -13.1309   22.2572 H   0  0  0  0  0  0
  -24.6736  -15.8464   20.5069 H   0  0  0  0  0  0
  -26.2880  -15.6177   20.0705 H   0  0  0  0  0  0
  -26.7091  -32.5576   23.1158 H   0  0  0  0  0  0
  -25.0110  -33.9797   25.0535 H   0  0  0  0  0  0
  -22.6884  -31.3082   21.4077 H   0  0  0  0  0  0
  -23.3780  -35.9595   23.3236 H   0  0  0  0  0  0
  -24.3605  -36.8964   22.2055 H   0  0  0  0  0  0
  -23.7172  -37.6465   23.6667 H   0  0  0  0  0  0
  -26.0227  -31.6004   20.5848 H   0  0  0  0  0  0
  -26.8164  -30.9081   21.9694 H   0  0  0  0  0  0
  -28.0893  -29.1221   21.2030 H   0  0  0  0  0  0
  -26.1054  -25.9840   19.0133 H   0  0  0  0  0  0
  -23.9999  -27.2969   19.0158 H   0  0  0  0  0  0
  -23.7103  -30.5916   19.4006 H   0  0  0  0  0  0
  -22.7389  -29.2317   19.8712 H   0  0  0  0  0  0
  -25.1259  -36.1964   25.0835 H   0  0  0  0  0  0
  -20.9941  -28.3235   24.1434 H   0  0  0  0  0  0
  -20.5650  -26.2276   23.3619 H   0  0  0  0  0  0
  -21.6633  -26.7451   22.1205 H   0  0  0  0  0  0
  -19.6907  -25.6303   21.1231 H   0  0  0  0  0  0
  -19.6696  -27.3209   20.6755 H   0  0  0  0  0  0
  -17.4198  -26.6706   21.3994 H   0  0  0  0  0  0
  -18.0296  -26.0063   22.8971 H   0  0  0  0  0  0
  -19.7933  -30.7250   24.2305 H   0  0  0  0  0  0
  -17.5014  -31.6279   24.5156 H   0  0  0  0  0  0
  -15.5345  -30.3002   23.7662 H   0  0  0  0  0  0
  -15.8643  -28.0843   22.7046 H   0  0  0  0  0  0
  -24.5967  -30.6935   25.7814 H   0  0  0  0  0  0
  -24.8841  -32.2806   26.4856 H   0  0  0  0  0  0
  -25.8113  -30.8914   27.0241 H   0  0  0  0  0  0
  -26.2794  -29.6839   24.1071 H   0  0  0  0  0  0
  -27.4069  -29.7239   25.4432 H   0  0  0  0  0  0
  -27.8615  -30.4388   23.9131 H   0  0  0  0  0  0
  -27.2683  -33.3597   26.2044 H   0  0  0  0  0  0
  -28.3862  -32.6829   25.0298 H   0  0  0  0  0  0
  -28.0692  -31.8401   26.5381 H   0  0  0  0  0  0
  -28.2526  -38.0168   24.7640 H   0  0  0  0  0  0
  -28.1185  -36.2712   24.6073 H   0  0  0  0  0  0
  -27.2348  -37.1174   25.8849 H   0  0  0  0  0  0
  -20.9298  -29.8768   21.6955 H   0  0  0  0  0  0
  -26.0158  -38.2878   24.1538 H   0  0  0  0  0  0
  -32.0435  -22.9336   22.2467 H   0  0  0  0  0  0
  -26.8043  -21.9801   20.7473 H   0  0  0  0  0  0
  -27.4035  -19.5826   20.6807 H   0  0  0  0  0  0
  -31.4018  -25.3470   22.1299 H   0  0  0  0  0  0
  -31.4331  -20.5633   21.8616 H   0  0  0  0  0  0
  -31.9659  -17.5412   17.2794 H   0  0  0  0  0  0
  -30.8684  -16.9465   16.0535 H   0  0  0  0  0  0
  -29.0394  -18.3827   16.9461 H   0  0  0  0  0  0
  -30.4362  -19.3515   16.5309 H   0  0  0  0  0  0
  -31.0148  -15.3697   17.8996 H   0  0  0  0  0  0
  -29.3843  -15.9835   17.7807 H   0  0  0  0  0  0
  -29.5787  -20.0203   18.6971 H   0  0  0  0  0  0
  -31.1842  -19.3753   18.8796 H   0  0  0  0  0  0
  -31.4905  -16.9436   19.7899 H   0  0  0  0  0  0
  -28.5992  -17.8725   19.5860 H   0  0  0  0  0  0
  -29.7924  -27.0356   21.5349 H   0  0  0  0  0  0
  -28.2352  -26.5939   22.1953 H   0  0  0  0  0  0
  -28.9993  -15.5151   20.5523 H   0  0  0  0  0  0
  1 25  1  0  0  0
  1 30  2  0  0  0
  1 88  1  0  0  0
  2  3  1  0  0  0
  2 25  1  0  0  0
  2 90  1  0  0  0
  2 91  1  0  0  0
  3  4  1  0  0  0
  3 92  1  0  0  0
  3 93  1  0  0  0
  4  5  1  0  0  0
  4 94  1  0  0  0
  4 95  1  0  0  0
  5  6  1  0  0  0
  5 26  1  0  0  0
  5 96  1  0  0  0
  6 25  1  0  0  0
  6 97  1  0  0  0
  6 98  1  0  0  0
  7  8  2  0  0  0
  7 26  1  0  0  0
  7 29  1  0  0  0
  8  9  1  0  0  0
  8 22  1  0  0  0
  9 10  1  0  0  0
  9 27  2  0  0  0
 10 11  2  0  0  0
 10 15  1  0  0  0
 11 12  1  0  0  0
 11 99  1  0  0  0
 12 13  2  0  0  0
 12100  1  0  0  0
 13 14  1  0  0  0
 13 31  1  0  0  0
 14 15  2  0  0  0
 14101  1  0  0  0
 15102  1  0  0  0
 16 17  2  0  0  0
 16 21  1  0  0  0
 16 31  1  0  0  0
 17 18  1  0  0  0
 17103  1  0  0  0
 18 19  2  0  0  0
 18104  1  0  0  0
 19 20  1  0  0  0
 19 24  1  0  0  0
 20 21  2  0  0  0
 20105  1  0  0  0
 21 23  1  0  0  0
 22 28  1  0  0  0
 22 32  2  0  0  0
 26 27  1  0  0  0
 28106  1  0  0  0
 28107  1  0  0  0
 29108  1  0  0  0
 29109  1  0  0  0
 33 34  1  0  0  0
 33 66  1  0  0  0
 33 70  2  0  0  0
 34 36  1  0  0  0
 34 59  1  0  0  0
 34110  1  0  0  0
 35 44  2  0  0  0
 35 45  1  0  0  0
 35 68  1  0  0  0
 36 56  1  0  0  0
 36111  1  0  0  0
 37 39  1  0  0  0
 37 47  1  0  0  0
 37 66  1  0  0  0
 37112  1  0  0  0
 38 43  2  0  0  0
 38 46  1  0  0  0
 38 47  1  0  0  0
 39 64  1  0  0  0
 39 67  2  0  0  0
 40 52  1  0  0  0
 40 53  2  0  0  0
 40 58  1  0  0  0
 41113  1  0  0  0
 41114  1  0  0  0
 41115  1  0  0  0
 41 48  1  0  0  0
 42 43  1  0  0  0
 42 66  1  0  0  0
 42116  1  0  0  0
 42117  1  0  0  0
 43 44  1  0  0  0
 44118  1  0  0  0
 45 46  2  0  0  0
 45119  1  0  0  0
 46120  1  0  0  0
 47121  1  0  0  0
 47122  1  0  0  0
 48 56  1  0  0  0
 48 65  1  0  0  0
 48123  1  0  0  0
 49 50  1  0  0  0
 49 53  1  0  0  0
 49 64  1  0  0  0
 49124  1  0  0  0
 50 51  1  0  0  0
 50125  1  0  0  0
 50126  1  0  0  0
 51 52  1  0  0  0
 51127  1  0  0  0
 51128  1  0  0  0
 52129  1  0  0  0
 52130  1  0  0  0
 53 54  1  0  0  0
 54 55  2  0  0  0
 54131  1  0  0  0
 55 57  1  0  0  0
 55132  1  0  0  0
 56 69  2  0  0  0
 57 58  2  0  0  0
 57133  1  0  0  0
 58134  1  0  0  0
 59 60  1  0  0  0
 59 61  1  0  0  0
 59 62  1  0  0  0
 60135  1  0  0  0
 60136  1  0  0  0
 60137  1  0  0  0
 61138  1  0  0  0
 61139  1  0  0  0
 61140  1  0  0  0
 62141  1  0  0  0
 62142  1  0  0  0
 62143  1  0  0  0
 63 65  1  0  0  0
 63144  1  0  0  0
 63145  1  0  0  0
 63146  1  0  0  0
 64147  1  0  0  0
 65148  1  0  0  0
 68 86  1  0  0  0
 71 74  2  0  0  0
 71 76  1  0  0  0
 71149  1  0  0  0
 72 73  1  0  0  0
 72 77  2  0  0  0
 72150  1  0  0  0
 73 78  2  0  0  0
 73151  1  0  0  0
 74 79  1  0  0  0
 74152  1  0  0  0
 75 76  2  0  0  0
 75 78  1  0  0  0
 75153  1  0  0  0
 76 77  1  0  0  0
 77 87  1  0  0  0
 78 89  1  0  0  0
 79 86  1  0  0  0
 79 87  2  0  0  0
 80 81  1  0  0  0
 80 82  1  0  0  0
 80154  1  0  0  0
 80155  1  0  0  0
 81 83  1  0  0  0
 81156  1  0  0  0
 81157  1  0  0  0
 82 84  1  0  0  0
 82158  1  0  0  0
 82159  1  0  0  0
 83 85  1  0  0  0
 83160  1  0  0  0
 83161  1  0  0  0
 84 85  1  0  0  0
 84 88  1  0  0  0
 84162  1  0  0  0
 85 89  1  0  0  0
 85163  1  0  0  0
 86164  1  0  0  0
 86165  1  0  0  0
 88166  1  0  0  0
M  ISO  4   1 100  68 101  86 101  88 100
M  END
> <chiral flag>
0

> <version>
0

> <s_m_source_file>
/data/baiqing/PycharmProjects/Reinvent-master-3.2/result/LINK_invent/BTK/process_docking_weight1_custom_sum_contain_oxygen_bond_distance_aromatic_linkinvent_7_9_3/rearranged_h_0136.sdf

> <i_m_source_file_index>
47

> <r_mmod_Potential_Energy-OPLS-2005>
-133.762268066406

> <r_mmod_Stretch_Energy-OPLS-2005>
39.9514198303223

> <r_mmod_Bend_Energy-OPLS-2005>
97.5062026977539

> <r_mmod_Torsional_Energy-OPLS-2005>
284.789459228516

> <r_mmod_Improper_Torsional_Energy-OPLS-2005>
14.6255674362183

> <r_mmod_Van_der_Waal_Energy-OPLS-2005>
178.558578491211

> <r_mmod_Electrostatic_Energy-OPLS-2005>
-544.108764648438

> <r_mmod_Solvation_Energy-OPLS-2005>
-228.329483032227

> <b_mmod_Minimization_Converged-OPLS-2005>
0

> <r_mmod_RMS_Derivative-OPLS-2005>
2.23891067504883

$$$$
50
                    3D
 Structure written by MMmdl.
154163  0  0  1  0            999 V2000
  -30.2063  -15.8922   20.3251 C   0  0  0  0  0  0
  -30.4040  -13.2674   19.5682 C   0  0  0  0  0  0
  -29.5615  -12.7395   18.3618 C   0  0  0  0  0  0
  -28.1522  -12.3263   18.8005 C   0  0  0  0  0  0
  -27.5901  -13.3377   19.8183 C   0  0  2  0  0  0
  -28.5864  -13.7495   20.9344 C   0  0  0  0  0  0
  -25.2193  -13.8302   20.5671 C   0  0  0  0  0  0
  -24.1652  -13.0423   20.9285 C   0  0  0  0  0  0
  -24.6429  -11.6967   20.8786 C   0  0  0  0  0  0
  -23.9139  -10.4301   21.0415 C   0  0  0  0  0  0
  -24.3663   -9.4224   21.9202 C   0  0  0  0  0  0
  -23.6311   -8.2270   22.0779 C   0  0  0  0  0  0
  -22.4301   -8.0307   21.3556 C   0  0  0  0  0  0
  -21.9951   -9.0284   20.4663 C   0  0  0  0  0  0
  -22.7303  -10.2151   20.3065 C   0  0  0  0  0  0
  -21.6863   -6.0761   22.5271 C   0  0  0  0  0  0
  -21.4028   -6.5657   23.8206 C   0  0  0  0  0  0
  -21.3653   -5.6805   24.9159 C   0  0  0  0  0  0
  -21.6037   -4.3067   24.7212 C   0  0  0  0  0  0
  -21.8810   -3.8169   23.4325 C   0  0  0  0  0  0
  -21.9201   -4.6987   22.3392 C   0  0  0  0  0  0
  -22.7655  -13.5151   21.1872 C   0  0  0  0  0  0
  -22.1671   -4.2179   21.0964 F   0  0  0  0  0  0
  -21.5617   -3.4543   25.7718 F   0  0  0  0  0  0
  -29.7291  -14.4684   20.2943 N   0  0  0  0  0  0
  -26.2738  -12.9726   20.3249 N   0  0  0  0  0  0
  -25.9393  -11.6766   20.5710 N   0  0  0  0  0  0
  -22.0307  -12.8170   22.0455 N   0  0  0  0  0  0
  -25.3579  -15.1999   20.3807 N   0  0  0  0  0  0
  -31.4124  -15.8007   19.9992 O   0  0  0  0  0  0
  -21.6647   -6.8910   21.4243 O   0  0  0  0  0  0
  -22.3326  -14.5412   20.6651 O   0  0  0  0  0  0
  -24.7020  -31.7819   23.1377 C   0  0  0  0  0  0
  -25.9516  -32.4387   23.7996 C   0  0  1  0  0  0
  -27.2265  -26.5292   20.2316 C   0  0  0  0  0  0
  -25.6028  -33.8219   24.1876 N   0  0  0  0  0  0
  -23.5339  -30.3764   21.4972 C   0  0  2  0  0  0
  -24.9878  -28.6766   20.1291 C   0  0  0  0  0  0
  -22.7851  -29.4217   22.4686 C   0  0  0  0  0  0
  -18.0353  -28.1435   22.8453 C   0  0  0  0  0  0
  -24.1485  -36.7109   23.2653 C   0  0  0  0  0  0
  -26.1225  -30.4597   21.4225 C   0  0  0  0  0  0
  -26.1834  -29.0030   20.7791 C   0  0  0  0  0  0
  -27.2826  -27.9658   20.7837 C   0  0  0  0  0  0
  -25.9930  -26.4550   19.5226 C   0  0  0  0  0  0
  -24.9420  -27.4321   19.4753 C   0  0  0  0  0  0
  -23.7951  -29.6559   20.1407 C   0  0  0  0  0  0
  -25.4146  -36.2857   24.0270 C   0  0  1  0  0  0
  -20.5998  -28.3802   23.1122 C   0  0  2  0  0  0
  -20.6808  -26.9448   22.5409 C   0  0  0  0  0  0
  -19.5783  -26.6372   21.5225 C   0  0  0  0  0  0
  -18.1966  -26.7961   22.1624 C   0  0  0  0  0  0
  -19.1624  -28.8947   23.2760 C   0  0  0  0  0  0
  -18.9524  -30.1528   23.8810 C   0  0  0  0  0  0
  -17.6511  -30.6615   24.0544 C   0  0  0  0  0  0
  -25.9135  -34.9244   23.4916 C   0  0  0  0  0  0
  -16.5399  -29.9088   23.6356 C   0  0  0  0  0  0
  -16.7331  -28.6510   23.0378 C   0  0  0  0  0  0
  -26.4629  -31.6495   25.0690 C   0  0  0  0  0  0
  -25.3644  -31.3887   26.1276 C   0  0  0  0  0  0
  -27.0571  -30.2816   24.6693 C   0  0  0  0  0  0
  -27.6061  -32.4379   25.7513 C   0  0  0  0  0  0
  -27.5546  -37.1732   24.8476 C   0  0  0  0  0  0
  -21.4485  -29.3016   22.3433 N   0  0  0  0  0  0
  -26.4271  -37.3624   23.9391 N   0  0  0  0  0  0
  -24.8121  -30.9099   22.0713 N   0  0  0  0  0  0
  -23.4216  -28.7844   23.3103 O   0  0  0  0  0  0
  -28.2024  -25.2589   20.2451 O   0  0  0  0  0  0
  -26.5784  -34.8848   22.4540 O   0  0  0  0  0  0
  -23.6004  -32.0968   23.6229 O   0  0  0  0  0  0
  -28.1803  -18.2359   22.7076 C   0  0  0  0  0  0
  -27.6864  -16.8679   22.3638 C   0  0  0  0  0  0
  -29.7253  -20.6053   21.1403 C   0  0  0  0  0  0
  -28.0760  -20.2249   19.6989 C   0  0  0  0  0  0
  -29.5511  -22.3684   20.8280 C   0  0  0  0  0  0
  -27.9497  -22.0076   19.4002 C   0  0  0  0  0  0
  -29.0975  -17.2620   21.9847 C   0  0  0  0  0  0
  -29.3976  -19.1752   20.1878 C   0  0  2  0  0  0
  -28.2197  -23.4081   20.4100 C   0  0  2  0  0  0
  -29.4757  -17.3279   20.5887 N   0  0  0  0  0  0
  -31.3802  -13.5555   19.1783 H   0  0  0  0  0  0
  -30.6237  -12.4590   20.2679 H   0  0  0  0  0  0
  -30.0673  -11.9055   17.8730 H   0  0  0  0  0  0
  -29.4863  -13.5329   17.6157 H   0  0  0  0  0  0
  -28.2151  -11.3418   19.2653 H   0  0  0  0  0  0
  -27.4905  -12.2296   17.9393 H   0  0  0  0  0  0
  -27.4291  -14.2370   19.2221 H   0  0  0  0  0  0
  -28.8935  -12.8947   21.5385 H   0  0  0  0  0  0
  -28.0907  -14.4260   21.6237 H   0  0  0  0  0  0
  -25.2787   -9.5711   22.4816 H   0  0  0  0  0  0
  -24.0005   -7.4675   22.7522 H   0  0  0  0  0  0
  -21.0880   -8.8824   19.8967 H   0  0  0  0  0  0
  -22.3756  -10.9704   19.6193 H   0  0  0  0  0  0
  -21.2027   -7.6166   23.9713 H   0  0  0  0  0  0
  -21.1477   -6.0534   25.9061 H   0  0  0  0  0  0
  -22.0589   -2.7635   23.2803 H   0  0  0  0  0  0
  -22.3896  -11.9863   22.4911 H   0  0  0  0  0  0
  -21.0920  -13.1230   22.2592 H   0  0  0  0  0  0
  -24.5635  -15.8281   20.4356 H   0  0  0  0  0  0
  -26.1762  -15.6368   19.9789 H   0  0  0  0  0  0
  -26.7620  -32.4828   23.0722 H   0  0  0  0  0  0
  -25.0121  -33.9234   25.0000 H   0  0  0  0  0  0
  -22.8679  -31.2180   21.2930 H   0  0  0  0  0  0
  -23.3760  -35.9431   23.3324 H   0  0  0  0  0  0
  -24.3517  -36.8764   22.2062 H   0  0  0  0  0  0
  -23.7247  -37.6292   23.6726 H   0  0  0  0  0  0
  -26.3398  -31.1722   20.6247 H   0  0  0  0  0  0
  -26.9684  -30.5371   22.0928 H   0  0  0  0  0  0
  -28.1928  -28.2392   21.2984 H   0  0  0  0  0  0
  -25.8014  -25.5302   18.9972 H   0  0  0  0  0  0
  -24.0462  -27.1756   18.9258 H   0  0  0  0  0  0
  -23.9886  -30.4077   19.3745 H   0  0  0  0  0  0
  -22.8950  -29.1328   19.8122 H   0  0  0  0  0  0
  -25.1368  -36.1612   25.0763 H   0  0  0  0  0  0
  -21.0072  -28.3434   24.1253 H   0  0  0  0  0  0
  -20.5664  -26.2431   23.3685 H   0  0  0  0  0  0
  -21.6667  -26.7364   22.1236 H   0  0  0  0  0  0
  -19.6928  -25.6253   21.1327 H   0  0  0  0  0  0
  -19.6735  -27.3120   20.6705 H   0  0  0  0  0  0
  -17.4244  -26.6724   21.4017 H   0  0  0  0  0  0
  -18.0334  -26.0118   22.9032 H   0  0  0  0  0  0
  -19.7995  -30.7374   24.2142 H   0  0  0  0  0  0
  -17.5054  -31.6289   24.5162 H   0  0  0  0  0  0
  -15.5389  -30.2968   23.7720 H   0  0  0  0  0  0
  -15.8734  -28.0793   22.7151 H   0  0  0  0  0  0
  -24.5835  -30.7231   25.7578 H   0  0  0  0  0  0
  -24.8832  -32.3142   26.4445 H   0  0  0  0  0  0
  -25.7770  -30.9215   27.0226 H   0  0  0  0  0  0
  -26.3316  -29.6406   24.1679 H   0  0  0  0  0  0
  -27.3935  -29.7302   25.5484 H   0  0  0  0  0  0
  -27.9324  -30.3914   24.0289 H   0  0  0  0  0  0
  -27.2590  -33.3753   26.1867 H   0  0  0  0  0  0
  -28.3988  -32.6824   25.0430 H   0  0  0  0  0  0
  -28.0606  -31.8664   26.5616 H   0  0  0  0  0  0
  -28.2598  -37.9989   24.7433 H   0  0  0  0  0  0
  -28.1012  -36.2511   24.6432 H   0  0  0  0  0  0
  -27.2245  -37.1522   25.8877 H   0  0  0  0  0  0
  -20.9841  -29.8649   21.6451 H   0  0  0  0  0  0
  -26.0099  -38.2686   24.1354 H   0  0  0  0  0  0
  -28.4179  -18.4440   23.7494 H   0  0  0  0  0  0
  -27.6468  -19.0246   22.1963 H   0  0  0  0  0  0
  -26.9252  -16.8386   21.5932 H   0  0  0  0  0  0
  -27.5640  -16.1526   23.1760 H   0  0  0  0  0  0
  -29.2255  -20.4849   22.0970 H   0  0  0  0  0  0
  -30.7758  -20.4950   21.4117 H   0  0  0  0  0  0
  -27.7044  -19.7786   18.7756 H   0  0  0  0  0  0
  -27.2568  -20.0283   20.3884 H   0  0  0  0  0  0
  -30.2980  -22.5774   20.0599 H   0  0  0  0  0  0
  -29.9753  -22.8412   21.7142 H   0  0  0  0  0  0
  -26.9363  -22.1482   19.0216 H   0  0  0  0  0  0
  -28.5533  -22.1813   18.5077 H   0  0  0  0  0  0
  -29.8777  -16.8688   22.6374 H   0  0  0  0  0  0
  -30.1041  -19.2173   19.3577 H   0  0  0  0  0  0
  -27.4996  -23.2870   21.2213 H   0  0  0  0  0  0
  1 25  1  0  0  0
  1 30  2  0  0  0
  1 80  1  0  0  0
  2  3  1  0  0  0
  2 25  1  0  0  0
  2 81  1  0  0  0
  2 82  1  0  0  0
  3  4  1  0  0  0
  3 83  1  0  0  0
  3 84  1  0  0  0
  4  5  1  0  0  0
  4 85  1  0  0  0
  4 86  1  0  0  0
  5  6  1  0  0  0
  5 26  1  0  0  0
  5 87  1  0  0  0
  6 25  1  0  0  0
  6 88  1  0  0  0
  6 89  1  0  0  0
  7  8  2  0  0  0
  7 26  1  0  0  0
  7 29  1  0  0  0
  8  9  1  0  0  0
  8 22  1  0  0  0
  9 10  1  0  0  0
  9 27  2  0  0  0
 10 11  2  0  0  0
 10 15  1  0  0  0
 11 12  1  0  0  0
 11 90  1  0  0  0
 12 13  2  0  0  0
 12 91  1  0  0  0
 13 14  1  0  0  0
 13 31  1  0  0  0
 14 15  2  0  0  0
 14 92  1  0  0  0
 15 93  1  0  0  0
 16 17  2  0  0  0
 16 21  1  0  0  0
 16 31  1  0  0  0
 17 18  1  0  0  0
 17 94  1  0  0  0
 18 19  2  0  0  0
 18 95  1  0  0  0
 19 20  1  0  0  0
 19 24  1  0  0  0
 20 21  2  0  0  0
 20 96  1  0  0  0
 21 23  1  0  0  0
 22 28  1  0  0  0
 22 32  2  0  0  0
 26 27  1  0  0  0
 28 97  1  0  0  0
 28 98  1  0  0  0
 29 99  1  0  0  0
 29100  1  0  0  0
 33 34  1  0  0  0
 33 66  1  0  0  0
 33 70  2  0  0  0
 34 36  1  0  0  0
 34 59  1  0  0  0
 34101  1  0  0  0
 35 44  2  0  0  0
 35 45  1  0  0  0
 35 68  1  0  0  0
 36 56  1  0  0  0
 36102  1  0  0  0
 37 39  1  0  0  0
 37 47  1  0  0  0
 37 66  1  0  0  0
 37103  1  0  0  0
 38 43  2  0  0  0
 38 46  1  0  0  0
 38 47  1  0  0  0
 39 64  1  0  0  0
 39 67  2  0  0  0
 40 52  1  0  0  0
 40 53  2  0  0  0
 40 58  1  0  0  0
 41104  1  0  0  0
 41105  1  0  0  0
 41106  1  0  0  0
 41 48  1  0  0  0
 42 43  1  0  0  0
 42 66  1  0  0  0
 42107  1  0  0  0
 42108  1  0  0  0
 43 44  1  0  0  0
 44109  1  0  0  0
 45 46  2  0  0  0
 45110  1  0  0  0
 46111  1  0  0  0
 47112  1  0  0  0
 47113  1  0  0  0
 48 56  1  0  0  0
 48 65  1  0  0  0
 48114  1  0  0  0
 49 50  1  0  0  0
 49 53  1  0  0  0
 49 64  1  0  0  0
 49115  1  0  0  0
 50 51  1  0  0  0
 50116  1  0  0  0
 50117  1  0  0  0
 51 52  1  0  0  0
 51118  1  0  0  0
 51119  1  0  0  0
 52120  1  0  0  0
 52121  1  0  0  0
 53 54  1  0  0  0
 54 55  2  0  0  0
 54122  1  0  0  0
 55 57  1  0  0  0
 55123  1  0  0  0
 56 69  2  0  0  0
 57 58  2  0  0  0
 57124  1  0  0  0
 58125  1  0  0  0
 59 60  1  0  0  0
 59 61  1  0  0  0
 59 62  1  0  0  0
 60126  1  0  0  0
 60127  1  0  0  0
 60128  1  0  0  0
 61129  1  0  0  0
 61130  1  0  0  0
 61131  1  0  0  0
 62132  1  0  0  0
 62133  1  0  0  0
 62134  1  0  0  0
 63 65  1  0  0  0
 63135  1  0  0  0
 63136  1  0  0  0
 63137  1  0  0  0
 64138  1  0  0  0
 65139  1  0  0  0
 68 79  1  0  0  0
 71 72  1  0  0  0
 71 77  1  0  0  0
 71140  1  0  0  0
 71141  1  0  0  0
 72 77  1  0  0  0
 72142  1  0  0  0
 72143  1  0  0  0
 73 75  1  0  0  0
 73 78  1  0  0  0
 73144  1  0  0  0
 73145  1  0  0  0
 74 76  1  0  0  0
 74 78  1  0  0  0
 74146  1  0  0  0
 74147  1  0  0  0
 75 79  1  0  0  0
 75148  1  0  0  0
 75149  1  0  0  0
 76 79  1  0  0  0
 76150  1  0  0  0
 76151  1  0  0  0
 77 80  1  0  0  0
 77152  1  0  0  0
 78 80  1  0  0  0
 78153  1  0  0  0
 79154  1  0  0  0
M  ISO  4   1 100  68 101  79 101  80 100
M  END
> <chiral flag>
0

> <version>
0

> <s_m_source_file>
/data/baiqing/PycharmProjects/Reinvent-master-3.2/result/LINK_invent/BTK/process_docking_weight1_custom_sum_contain_oxygen_bond_distance_aromatic_linkinvent_7_9_3/rearranged_h_0136.sdf

> <i_m_source_file_index>
48

> <r_mmod_Potential_Energy-OPLS-2005>
3770.79711914062

> <r_mmod_Stretch_Energy-OPLS-2005>
1417.61669921875

> <r_mmod_Bend_Energy-OPLS-2005>
997.322631835938

> <r_mmod_Torsional_Energy-OPLS-2005>
403.376647949219

> <r_mmod_Improper_Torsional_Energy-OPLS-2005>
5.17465925216675

> <r_mmod_Van_der_Waal_Energy-OPLS-2005>
128.919799804688

> <r_mmod_Electrostatic_Energy-OPLS-2005>
-279.386962890625

> <r_mmod_Solvation_Energy-OPLS-2005>
-199.274765014648

> <b_mmod_Minimization_Converged-OPLS-2005>
0

> <r_mmod_RMS_Derivative-OPLS-2005>
2.80461311340332

$$$$
51
                    3D
 Structure written by MMmdl.
158167  0  0  1  0            999 V2000
  -30.5321  -15.0140   20.3874 C   0  0  0  0  0  0
  -30.4322  -12.6311   19.4999 C   0  0  0  0  0  0
  -29.5149  -12.5260   18.2601 C   0  0  0  0  0  0
  -28.0556  -12.2962   18.6888 C   0  0  0  0  0  0
  -27.6200  -13.2526   19.8287 C   0  0  2  0  0  0
  -28.6606  -13.3297   20.9652 C   0  0  0  0  0  0
  -25.2424  -13.8219   20.5714 C   0  0  0  0  0  0
  -24.1757  -13.0438   20.9237 C   0  0  0  0  0  0
  -24.6384  -11.6926   20.8770 C   0  0  0  0  0  0
  -23.9076  -10.4294   21.0411 C   0  0  0  0  0  0
  -24.3624   -9.4209   21.9189 C   0  0  0  0  0  0
  -23.6292   -8.2246   22.0760 C   0  0  0  0  0  0
  -22.4277   -8.0284   21.3545 C   0  0  0  0  0  0
  -21.9919   -9.0256   20.4646 C   0  0  0  0  0  0
  -22.7251  -10.2130   20.3055 C   0  0  0  0  0  0
  -21.6853   -6.0733   22.5275 C   0  0  0  0  0  0
  -21.4015   -6.5640   23.8207 C   0  0  0  0  0  0
  -21.3659   -5.6794   24.9169 C   0  0  0  0  0  0
  -21.6044   -4.3058   24.7221 C   0  0  0  0  0  0
  -21.8821   -3.8146   23.4345 C   0  0  0  0  0  0
  -21.9191   -4.6960   22.3401 C   0  0  0  0  0  0
  -22.7776  -13.5199   21.1894 C   0  0  0  0  0  0
  -22.1662   -4.2147   21.0977 F   0  0  0  0  0  0
  -21.5626   -3.4546   25.7735 F   0  0  0  0  0  0
  -29.9278  -13.7509   20.3545 N   0  0  0  0  0  0
  -26.2838  -12.9460   20.3221 N   0  0  0  0  0  0
  -25.9312  -11.6589   20.5744 N   0  0  0  0  0  0
  -22.0428  -12.8179   22.0438 N   0  0  0  0  0  0
  -25.4086  -15.1949   20.4126 N   0  0  0  0  0  0
  -31.7454  -15.0168   20.1521 O   0  0  0  0  0  0
  -21.6641   -6.8880   21.4238 O   0  0  0  0  0  0
  -22.3464  -14.5504   20.6733 O   0  0  0  0  0  0
  -24.6490  -31.8381   23.1843 C   0  0  0  0  0  0
  -25.9243  -32.4665   23.8230 C   0  0  1  0  0  0
  -27.2100  -27.0848   20.1532 C   0  0  0  0  0  0
  -25.5978  -33.8476   24.2139 N   0  0  0  0  0  0
  -23.4531  -30.4572   21.5320 C   0  0  2  0  0  0
  -24.9010  -28.8768   20.1086 C   0  0  0  0  0  0
  -22.7577  -29.4511   22.4845 C   0  0  0  0  0  0
  -18.0305  -28.1399   22.8452 C   0  0  0  0  0  0
  -24.1496  -36.7241   23.2637 C   0  0  0  0  0  0
  -26.0133  -30.6970   21.3883 C   0  0  0  0  0  0
  -26.0831  -29.3038   20.7280 C   0  0  0  0  0  0
  -27.2385  -28.4273   20.7281 C   0  0  0  0  0  0
  -25.9964  -26.7686   19.5027 C   0  0  0  0  0  0
  -24.8741  -27.6246   19.4787 C   0  0  0  0  0  0
  -23.6805  -29.7859   20.1516 C   0  0  0  0  0  0
  -25.4130  -36.3010   24.0304 C   0  0  1  0  0  0
  -20.5917  -28.3723   23.1226 C   0  0  2  0  0  0
  -20.6794  -26.9426   22.5396 C   0  0  0  0  0  0
  -19.5772  -26.6385   21.5199 C   0  0  0  0  0  0
  -18.1948  -26.7932   22.1607 C   0  0  0  0  0  0
  -19.1560  -28.8878   23.2824 C   0  0  0  0  0  0
  -18.9481  -30.1467   23.8864 C   0  0  0  0  0  0
  -17.6481  -30.6588   24.0557 C   0  0  0  0  0  0
  -25.9095  -34.9395   23.5029 C   0  0  0  0  0  0
  -16.5369  -29.9079   23.6352 C   0  0  0  0  0  0
  -16.7289  -28.6506   23.0351 C   0  0  0  0  0  0
  -26.4553  -31.6555   25.0696 C   0  0  0  0  0  0
  -25.3713  -31.3757   26.1364 C   0  0  0  0  0  0
  -27.0432  -30.2953   24.6304 C   0  0  0  0  0  0
  -27.6063  -32.4335   25.7501 C   0  0  0  0  0  0
  -27.5573  -37.1765   24.8455 C   0  0  0  0  0  0
  -21.4263  -29.3043   22.3594 N   0  0  0  0  0  0
  -26.4273  -37.3736   23.9419 N   0  0  0  0  0  0
  -24.7259  -31.0181   22.0914 N   0  0  0  0  0  0
  -23.4193  -28.8052   23.3008 O   0  0  0  0  0  0
  -28.2512  -26.0708   20.2100 O   0  0  0  0  0  0
  -26.5676  -34.8905   22.4608 O   0  0  0  0  0  0
  -23.5603  -32.1289   23.7043 O   0  0  0  0  0  0
  -31.8383  -19.3962   19.6780 C   0  0  0  0  0  0
  -31.4131  -18.0746   19.8932 C   0  0  0  0  0  0
  -29.2412  -18.9897   20.4064 C   0  0  0  0  0  0
  -31.0194  -20.5428   19.8232 C   0  0  0  0  0  0
  -30.1008  -17.7545   20.2840 C   0  0  0  0  0  0
  -29.6348  -20.4347   20.1856 C   0  0  0  0  0  0
  -32.0743  -23.5738   17.5535 C   0  0  0  0  0  0
  -32.7562  -22.3043   17.1157 C   0  0  0  0  0  0
  -31.5710  -22.2387   18.0533 C   0  0  0  0  0  0
  -31.7494  -21.8424   19.5106 C   0  0  0  0  0  0
  -27.9600  -24.5168   20.1237 C   0  0  0  0  0  0
  -29.0279  -23.1786   20.2031 C   0  0  0  0  0  0
  -29.7748  -16.2405   20.4871 N   0  0  0  0  0  0
  -28.7330  -21.6234   20.2839 O   0  0  0  0  0  0
  -31.4618  -12.7906   19.1755 H   0  0  0  0  0  0
  -30.4413  -11.6942   20.0590 H   0  0  0  0  0  0
  -29.8456  -11.7144   17.6111 H   0  0  0  0  0  0
  -29.5834  -13.4412   17.6698 H   0  0  0  0  0  0
  -27.9763  -11.2623   19.0284 H   0  0  0  0  0  0
  -27.3841  -12.3861   17.8338 H   0  0  0  0  0  0
  -27.5694  -14.2415   19.3719 H   0  0  0  0  0  0
  -28.7635  -12.3709   21.4751 H   0  0  0  0  0  0
  -28.3469  -14.0523   21.7203 H   0  0  0  0  0  0
  -25.2764   -9.5683   22.4777 H   0  0  0  0  0  0
  -23.9993   -7.4640   22.7493 H   0  0  0  0  0  0
  -21.0852   -8.8780   19.8953 H   0  0  0  0  0  0
  -22.3717  -10.9670   19.6170 H   0  0  0  0  0  0
  -21.2013   -7.6150   23.9707 H   0  0  0  0  0  0
  -21.1475   -6.0527   25.9070 H   0  0  0  0  0  0
  -22.0599   -2.7609   23.2844 H   0  0  0  0  0  0
  -22.4047  -11.9830   22.4804 H   0  0  0  0  0  0
  -21.1042  -13.1189   22.2647 H   0  0  0  0  0  0
  -24.6371  -15.8443   20.5224 H   0  0  0  0  0  0
  -26.2460  -15.6352   20.0549 H   0  0  0  0  0  0
  -26.7291  -32.5244   23.0935 H   0  0  0  0  0  0
  -25.0109  -33.9589   25.0274 H   0  0  0  0  0  0
  -22.7588  -31.2856   21.3756 H   0  0  0  0  0  0
  -23.3774  -35.9556   23.3270 H   0  0  0  0  0  0
  -24.3579  -36.8921   22.2056 H   0  0  0  0  0  0
  -23.7241  -37.6419   23.6711 H   0  0  0  0  0  0
  -26.1666  -31.4502   20.6139 H   0  0  0  0  0  0
  -26.8838  -30.7498   22.0302 H   0  0  0  0  0  0
  -28.1392  -28.7496   21.2309 H   0  0  0  0  0  0
  -25.8728  -25.8116   19.0212 H   0  0  0  0  0  0
  -23.9718  -27.2920   18.9845 H   0  0  0  0  0  0
  -23.8172  -30.5607   19.3964 H   0  0  0  0  0  0
  -22.7933  -29.2312   19.8412 H   0  0  0  0  0  0
  -25.1314  -36.1811   25.0793 H   0  0  0  0  0  0
  -20.9996  -28.3326   24.1353 H   0  0  0  0  0  0
  -20.5720  -26.2322   23.3611 H   0  0  0  0  0  0
  -21.6654  -26.7444   22.1172 H   0  0  0  0  0  0
  -19.6955  -25.6298   21.1233 H   0  0  0  0  0  0
  -19.6738  -27.3192   20.6732 H   0  0  0  0  0  0
  -17.4220  -26.6670   21.4008 H   0  0  0  0  0  0
  -18.0346  -26.0084   22.9020 H   0  0  0  0  0  0
  -19.7964  -30.7274   24.2227 H   0  0  0  0  0  0
  -17.5045  -31.6276   24.5143 H   0  0  0  0  0  0
  -15.5368  -30.2968   23.7715 H   0  0  0  0  0  0
  -15.8685  -28.0823   22.7083 H   0  0  0  0  0  0
  -24.5908  -30.7105   25.7658 H   0  0  0  0  0  0
  -24.8890  -32.2949   26.4704 H   0  0  0  0  0  0
  -25.7963  -30.8967   27.0194 H   0  0  0  0  0  0
  -26.3058  -29.6658   24.1310 H   0  0  0  0  0  0
  -27.4042  -29.7270   25.4887 H   0  0  0  0  0  0
  -27.8970  -30.4191   23.9632 H   0  0  0  0  0  0
  -27.2645  -33.3671   26.1980 H   0  0  0  0  0  0
  -28.3935  -32.6835   25.0376 H   0  0  0  0  0  0
  -28.0662  -31.8522   26.5504 H   0  0  0  0  0  0
  -28.2526  -38.0112   24.7539 H   0  0  0  0  0  0
  -28.1119  -36.2641   24.6225 H   0  0  0  0  0  0
  -27.2294  -37.1338   25.8851 H   0  0  0  0  0  0
  -20.9482  -29.8749   21.6764 H   0  0  0  0  0  0
  -26.0130  -38.2796   24.1460 H   0  0  0  0  0  0
  -32.8659  -19.5258   19.3688 H   0  0  0  0  0  0
  -32.1515  -17.3067   19.7327 H   0  0  0  0  0  0
  -28.2100  -18.8235   20.6844 H   0  0  0  0  0  0
  -31.4700  -24.0933   16.8116 H   0  0  0  0  0  0
  -32.5926  -24.2149   18.2640 H   0  0  0  0  0  0
  -33.7470  -22.1087   17.5210 H   0  0  0  0  0  0
  -32.5978  -21.9662   16.0935 H   0  0  0  0  0  0
  -30.6139  -21.9408   17.6262 H   0  0  0  0  0  0
  -32.8158  -21.7132   19.7022 H   0  0  0  0  0  0
  -31.4883  -22.6448   20.1898 H   0  0  0  0  0  0
  -27.1997  -24.3364   20.8826 H   0  0  0  0  0  0
  -27.4498  -24.3771   19.1725 H   0  0  0  0  0  0
  -29.6708  -23.3854   21.0573 H   0  0  0  0  0  0
  -29.6255  -23.3266   19.3115 H   0  0  0  0  0  0
  -28.8037  -16.0595   20.6923 H   0  0  0  0  0  0
  1 25  1  0  0  0
  1 30  2  0  0  0
  1 83  1  0  0  0
  2  3  1  0  0  0
  2 25  1  0  0  0
  2 85  1  0  0  0
  2 86  1  0  0  0
  3  4  1  0  0  0
  3 87  1  0  0  0
  3 88  1  0  0  0
  4  5  1  0  0  0
  4 89  1  0  0  0
  4 90  1  0  0  0
  5  6  1  0  0  0
  5 26  1  0  0  0
  5 91  1  0  0  0
  6 25  1  0  0  0
  6 92  1  0  0  0
  6 93  1  0  0  0
  7  8  2  0  0  0
  7 26  1  0  0  0
  7 29  1  0  0  0
  8  9  1  0  0  0
  8 22  1  0  0  0
  9 10  1  0  0  0
  9 27  2  0  0  0
 10 11  2  0  0  0
 10 15  1  0  0  0
 11 12  1  0  0  0
 11 94  1  0  0  0
 12 13  2  0  0  0
 12 95  1  0  0  0
 13 14  1  0  0  0
 13 31  1  0  0  0
 14 15  2  0  0  0
 14 96  1  0  0  0
 15 97  1  0  0  0
 16 17  2  0  0  0
 16 21  1  0  0  0
 16 31  1  0  0  0
 17 18  1  0  0  0
 17 98  1  0  0  0
 18 19  2  0  0  0
 18 99  1  0  0  0
 19 20  1  0  0  0
 19 24  1  0  0  0
 20 21  2  0  0  0
 20100  1  0  0  0
 21 23  1  0  0  0
 22 28  1  0  0  0
 22 32  2  0  0  0
 26 27  1  0  0  0
 28101  1  0  0  0
 28102  1  0  0  0
 29103  1  0  0  0
 29104  1  0  0  0
 33 34  1  0  0  0
 33 66  1  0  0  0
 33 70  2  0  0  0
 34 36  1  0  0  0
 34 59  1  0  0  0
 34105  1  0  0  0
 35 44  2  0  0  0
 35 45  1  0  0  0
 35 68  1  0  0  0
 36 56  1  0  0  0
 36106  1  0  0  0
 37 39  1  0  0  0
 37 47  1  0  0  0
 37 66  1  0  0  0
 37107  1  0  0  0
 38 43  2  0  0  0
 38 46  1  0  0  0
 38 47  1  0  0  0
 39 64  1  0  0  0
 39 67  2  0  0  0
 40 52  1  0  0  0
 40 53  2  0  0  0
 40 58  1  0  0  0
 41108  1  0  0  0
 41109  1  0  0  0
 41110  1  0  0  0
 41 48  1  0  0  0
 42 43  1  0  0  0
 42 66  1  0  0  0
 42111  1  0  0  0
 42112  1  0  0  0
 43 44  1  0  0  0
 44113  1  0  0  0
 45 46  2  0  0  0
 45114  1  0  0  0
 46115  1  0  0  0
 47116  1  0  0  0
 47117  1  0  0  0
 48 56  1  0  0  0
 48 65  1  0  0  0
 48118  1  0  0  0
 49 50  1  0  0  0
 49 53  1  0  0  0
 49 64  1  0  0  0
 49119  1  0  0  0
 50 51  1  0  0  0
 50120  1  0  0  0
 50121  1  0  0  0
 51 52  1  0  0  0
 51122  1  0  0  0
 51123  1  0  0  0
 52124  1  0  0  0
 52125  1  0  0  0
 53 54  1  0  0  0
 54 55  2  0  0  0
 54126  1  0  0  0
 55 57  1  0  0  0
 55127  1  0  0  0
 56 69  2  0  0  0
 57 58  2  0  0  0
 57128  1  0  0  0
 58129  1  0  0  0
 59 60  1  0  0  0
 59 61  1  0  0  0
 59 62  1  0  0  0
 60130  1  0  0  0
 60131  1  0  0  0
 60132  1  0  0  0
 61133  1  0  0  0
 61134  1  0  0  0
 61135  1  0  0  0
 62136  1  0  0  0
 62137  1  0  0  0
 62138  1  0  0  0
 63 65  1  0  0  0
 63139  1  0  0  0
 63140  1  0  0  0
 63141  1  0  0  0
 64142  1  0  0  0
 65143  1  0  0  0
 68 81  1  0  0  0
 71 72  2  0  0  0
 71 74  1  0  0  0
 71144  1  0  0  0
 72 75  1  0  0  0
 72145  1  0  0  0
 73 75  2  0  0  0
 73 76  1  0  0  0
 73146  1  0  0  0
 74 76  2  0  0  0
 74 80  1  0  0  0
 75 83  1  0  0  0
 76 84  1  0  0  0
 77 78  1  0  0  0
 77 79  1  0  0  0
 77147  1  0  0  0
 77148  1  0  0  0
 78 79  1  0  0  0
 78149  1  0  0  0
 78150  1  0  0  0
 79 80  1  0  0  0
 79151  1  0  0  0
 80152  1  0  0  0
 80153  1  0  0  0
 81 82  1  0  0  0
 81154  1  0  0  0
 81155  1  0  0  0
 82 84  1  0  0  0
 82156  1  0  0  0
 82157  1  0  0  0
 83158  1  0  0  0
M  ISO  4   1 100  68 101  81 101  83 100
M  END
> <chiral flag>
0

> <version>
0

> <s_m_source_file>
/data/baiqing/PycharmProjects/Reinvent-master-3.2/result/LINK_invent/BTK/process_docking_weight1_custom_sum_contain_oxygen_bond_distance_aromatic_linkinvent_7_9_3/rearranged_h_0136.sdf

> <i_m_source_file_index>
49

> <r_mmod_Potential_Energy-OPLS-2005>
725.363403320312

> <r_mmod_Stretch_Energy-OPLS-2005>
337.942169189453

> <r_mmod_Bend_Energy-OPLS-2005>
309.159210205078

> <r_mmod_Torsional_Energy-OPLS-2005>
250.626327514648

> <r_mmod_Improper_Torsional_Energy-OPLS-2005>
4.11131000518799

> <r_mmod_Van_der_Waal_Energy-OPLS-2005>
145.947113037109

> <r_mmod_Electrostatic_Energy-OPLS-2005>
-351.325347900391

> <r_mmod_Solvation_Energy-OPLS-2005>
-211.188858032227

> <b_mmod_Minimization_Converged-OPLS-2005>
0

> <r_mmod_RMS_Derivative-OPLS-2005>
1.79455006122589

$$$$
52
                    3D
 Structure written by MMmdl.
165173  0  0  1  0            999 V2000
  -30.6026  -14.7971   20.4685 C   0  0  0  0  0  0
  -30.4447  -12.4983   19.4732 C   0  0  0  0  0  0
  -29.5151  -12.5476   18.2389 C   0  0  0  0  0  0
  -28.0503  -12.3280   18.6686 C   0  0  0  0  0  0
  -27.6486  -13.2319   19.8634 C   0  0  2  0  0  0
  -28.6984  -13.1766   20.9986 C   0  0  0  0  0  0
  -25.2555  -13.8181   20.5700 C   0  0  0  0  0  0
  -24.1836  -13.0439   20.9226 C   0  0  0  0  0  0
  -24.6428  -11.6920   20.8806 C   0  0  0  0  0  0
  -23.9089  -10.4321   21.0418 C   0  0  0  0  0  0
  -24.3617   -9.4226   21.9199 C   0  0  0  0  0  0
  -23.6287   -8.2260   22.0756 C   0  0  0  0  0  0
  -22.4261   -8.0304   21.3565 C   0  0  0  0  0  0
  -21.9924   -9.0281   20.4652 C   0  0  0  0  0  0
  -22.7253  -10.2160   20.3047 C   0  0  0  0  0  0
  -21.6826   -6.0752   22.5303 C   0  0  0  0  0  0
  -21.4002   -6.5641   23.8251 C   0  0  0  0  0  0
  -21.3661   -5.6778   24.9184 C   0  0  0  0  0  0
  -21.6056   -4.3044   24.7205 C   0  0  0  0  0  0
  -21.8824   -3.8154   23.4335 C   0  0  0  0  0  0
  -21.9172   -4.6990   22.3394 C   0  0  0  0  0  0
  -22.7849  -13.5255   21.1813 C   0  0  0  0  0  0
  -22.1641   -4.2181   21.0981 F   0  0  0  0  0  0
  -21.5651   -3.4532   25.7721 F   0  0  0  0  0  0
  -29.9911  -13.5570   20.4149 N   0  0  0  0  0  0
  -26.2996  -12.9375   20.3364 N   0  0  0  0  0  0
  -25.9366  -11.6524   20.5831 N   0  0  0  0  0  0
  -22.0414  -12.8321   22.0364 N   0  0  0  0  0  0
  -25.4202  -15.1888   20.4037 N   0  0  0  0  0  0
  -31.7813  -14.9013   20.1243 O   0  0  0  0  0  0
  -21.6618   -6.8900   21.4270 O   0  0  0  0  0  0
  -22.3606  -14.5573   20.6597 O   0  0  0  0  0  0
  -24.6296  -31.8546   23.2031 C   0  0  0  0  0  0
  -25.9120  -32.4758   23.8372 C   0  0  1  0  0  0
  -27.2038  -27.2538   20.1323 C   0  0  0  0  0  0
  -25.5919  -33.8561   24.2282 N   0  0  0  0  0  0
  -23.4266  -30.4764   21.5478 C   0  0  2  0  0  0
  -24.8729  -28.9284   20.1079 C   0  0  0  0  0  0
  -22.7510  -29.4569   22.4962 C   0  0  0  0  0  0
  -18.0294  -28.1366   22.8501 C   0  0  0  0  0  0
  -24.1474  -36.7278   23.2639 C   0  0  0  0  0  0
  -25.9737  -30.7637   21.3858 C   0  0  0  0  0  0
  -26.0440  -29.3864   20.7242 C   0  0  0  0  0  0
  -27.2166  -28.5628   20.7220 C   0  0  0  0  0  0
  -26.0177  -26.8694   19.4717 C   0  0  0  0  0  0
  -24.8664  -27.6804   19.4647 C   0  0  0  0  0  0
  -23.6435  -29.8148   20.1614 C   0  0  0  0  0  0
  -25.4103  -36.3078   24.0334 C   0  0  1  0  0  0
  -20.5894  -28.3664   23.1312 C   0  0  2  0  0  0
  -20.6781  -26.9387   22.5422 C   0  0  0  0  0  0
  -19.5761  -26.6374   21.5228 C   0  0  0  0  0  0
  -18.1934  -26.7912   22.1616 C   0  0  0  0  0  0
  -19.1541  -28.8835   23.2883 C   0  0  0  0  0  0
  -18.9456  -30.1447   23.8891 C   0  0  0  0  0  0
  -17.6448  -30.6574   24.0544 C   0  0  0  0  0  0
  -25.9049  -34.9451   23.5116 C   0  0  0  0  0  0
  -16.5342  -29.9052   23.6334 C   0  0  0  0  0  0
  -16.7274  -28.6473   23.0370 C   0  0  0  0  0  0
  -26.4500  -31.6581   25.0759 C   0  0  0  0  0  0
  -25.3734  -31.3701   26.1489 C   0  0  0  0  0  0
  -27.0339  -30.3000   24.6222 C   0  0  0  0  0  0
  -27.6033  -32.4336   25.7529 C   0  0  0  0  0  0
  -27.5584  -37.1791   24.8453 C   0  0  0  0  0  0
  -21.4213  -29.2997   22.3712 N   0  0  0  0  0  0
  -26.4278  -37.3792   23.9421 N   0  0  0  0  0  0
  -24.6962  -31.0499   22.1011 N   0  0  0  0  0  0
  -23.4229  -28.8122   23.3060 O   0  0  0  0  0  0
  -28.2795  -26.3395   20.1572 O   0  0  0  0  0  0
  -26.5628  -34.8914   22.4683 O   0  0  0  0  0  0
  -23.5447  -32.1379   23.7318 O   0  0  0  0  0  0
  -28.3271  -19.5008   19.8653 C   0  0  0  0  0  0
  -30.2968  -20.0120   21.2710 C   0  0  0  0  0  0
  -29.0335  -18.1317   19.4348 C   0  0  0  0  0  0
  -30.1615  -18.4504   21.6207 C   0  0  0  0  0  0
  -29.2520  -20.7013   20.2929 C   0  0  2  0  0  0
  -30.0708  -17.4455   20.4119 C   0  0  1  0  0  0
  -28.3204  -22.1954   22.2762 C   0  0  0  0  0  0
  -31.0448  -24.2695   21.0255 C   0  0  0  0  0  0
  -28.0218  -24.9390   20.6677 C   0  0  0  0  0  0
  -28.4932  -22.1119   20.7465 C   0  0  1  0  0  0
  -28.7785  -23.6040   20.0889 C   0  0  2  0  0  0
  -29.8227  -15.9372   20.7012 N   0  0  0  0  0  0
  -30.2187  -23.8832   19.8592 N   0  3  0  0  0  0
  -31.4820  -12.6388   19.1640 H   0  0  0  0  0  0
  -30.4019  -11.5151   19.9438 H   0  0  0  0  0  0
  -29.8121  -11.7998   17.5043 H   0  0  0  0  0  0
  -29.6126  -13.5158   17.7417 H   0  0  0  0  0  0
  -27.9602  -11.2813   18.9628 H   0  0  0  0  0  0
  -27.3640  -12.4634   17.8320 H   0  0  0  0  0  0
  -27.6432  -14.2525   19.4801 H   0  0  0  0  0  0
  -28.7618  -12.1748   21.4310 H   0  0  0  0  0  0
  -28.4300  -13.8427   21.8193 H   0  0  0  0  0  0
  -25.2724   -9.5695   22.4799 H   0  0  0  0  0  0
  -23.9983   -7.4645   22.7472 H   0  0  0  0  0  0
  -21.0844   -8.8760   19.8969 H   0  0  0  0  0  0
  -22.3663  -10.9685   19.6167 H   0  0  0  0  0  0
  -21.1976   -7.6144   23.9768 H   0  0  0  0  0  0
  -21.1491   -6.0488   25.9103 H   0  0  0  0  0  0
  -22.0590   -2.7618   23.2790 H   0  0  0  0  0  0
  -22.3851  -11.9954   22.4842 H   0  0  0  0  0  0
  -21.1044  -13.1468   22.2446 H   0  0  0  0  0  0
  -24.6423  -15.8308   20.5031 H   0  0  0  0  0  0
  -26.2521  -15.6362   20.0434 H   0  0  0  0  0  0
  -26.7178  -32.5402   23.1102 H   0  0  0  0  0  0
  -25.0066  -33.9709   25.0428 H   0  0  0  0  0  0
  -22.7208  -31.2976   21.4067 H   0  0  0  0  0  0
  -23.3777  -35.9566   23.3242 H   0  0  0  0  0  0
  -24.3590  -36.8960   22.2069 H   0  0  0  0  0  0
  -23.7167  -37.6432   23.6701 H   0  0  0  0  0  0
  -26.1156  -31.5276   20.6208 H   0  0  0  0  0  0
  -26.8502  -30.8088   22.0209 H   0  0  0  0  0  0
  -28.1162  -28.9057   21.2159 H   0  0  0  0  0  0
  -25.9665  -25.9204   18.9563 H   0  0  0  0  0  0
  -23.9747  -27.3370   18.9581 H   0  0  0  0  0  0
  -23.7660  -30.5941   19.4092 H   0  0  0  0  0  0
  -22.7613  -29.2484   19.8579 H   0  0  0  0  0  0
  -25.1275  -36.1929   25.0831 H   0  0  0  0  0  0
  -20.9962  -28.3198   24.1433 H   0  0  0  0  0  0
  -20.5704  -26.2244   23.3605 H   0  0  0  0  0  0
  -21.6637  -26.7428   22.1191 H   0  0  0  0  0  0
  -19.6912  -25.6290   21.1228 H   0  0  0  0  0  0
  -19.6700  -27.3201   20.6774 H   0  0  0  0  0  0
  -17.4216  -26.6698   21.4000 H   0  0  0  0  0  0
  -18.0296  -26.0034   22.8993 H   0  0  0  0  0  0
  -19.7927  -30.7269   24.2244 H   0  0  0  0  0  0
  -17.4998  -31.6264   24.5122 H   0  0  0  0  0  0
  -15.5340  -30.2938   23.7680 H   0  0  0  0  0  0
  -15.8673  -28.0775   22.7097 H   0  0  0  0  0  0
  -24.5910  -30.7049   25.7828 H   0  0  0  0  0  0
  -24.8935  -32.2851   26.4963 H   0  0  0  0  0  0
  -25.8083  -30.8857   27.0241 H   0  0  0  0  0  0
  -26.2920  -29.6767   24.1224 H   0  0  0  0  0  0
  -27.3997  -29.7241   25.4729 H   0  0  0  0  0  0
  -27.8813  -30.4283   23.9485 H   0  0  0  0  0  0
  -27.2625  -33.3648   26.2069 H   0  0  0  0  0  0
  -28.3869  -32.6881   25.0381 H   0  0  0  0  0  0
  -28.0675  -31.8496   26.5486 H   0  0  0  0  0  0
  -28.2544  -38.0150   24.7588 H   0  0  0  0  0  0
  -28.1142  -36.2683   24.6158 H   0  0  0  0  0  0
  -27.2326  -37.1281   25.8863 H   0  0  0  0  0  0
  -20.9422  -29.8699   21.6882 H   0  0  0  0  0  0
  -26.0148  -38.2853   24.1475 H   0  0  0  0  0  0
  -27.6371  -19.2774   20.6813 H   0  0  0  0  0  0
  -27.6930  -19.8344   19.0440 H   0  0  0  0  0  0
  -31.2850  -20.1798   20.8394 H   0  0  0  0  0  0
  -30.3203  -20.5501   22.2160 H   0  0  0  0  0  0
  -29.5382  -18.3002   18.4834 H   0  0  0  0  0  0
  -28.2482  -17.4116   19.2113 H   0  0  0  0  0  0
  -29.2796  -18.3240   22.2489 H   0  0  0  0  0  0
  -31.0059  -18.1671   22.2486 H   0  0  0  0  0  0
  -29.7974  -20.9548   19.3838 H   0  0  0  0  0  0
  -31.0454  -17.4977   19.9234 H   0  0  0  0  0  0
  -27.9594  -21.2481   22.6782 H   0  0  0  0  0  0
  -27.5879  -22.9484   22.5702 H   0  0  0  0  0  0
  -29.2481  -22.4486   22.7873 H   0  0  0  0  0  0
  -32.0713  -24.4188   20.6875 H   0  0  0  0  0  0
  -31.0606  -23.4942   21.7910 H   0  0  0  0  0  0
  -30.7137  -25.2081   21.4756 H   0  0  0  0  0  0
  -28.2560  -25.0073   21.7292 H   0  0  0  0  0  0
  -26.9520  -24.7277   20.6535 H   0  0  0  0  0  0
  -27.4661  -21.9358   20.4184 H   0  0  0  0  0  0
  -28.3858  -23.5126   19.0751 H   0  0  0  0  0  0
  -28.8855  -15.7163   20.9947 H   0  0  0  0  0  0
  -30.6440  -23.0883   19.4122 H   0  0  0  0  0  0
  -30.2689  -24.6469   19.1998 H   0  0  0  0  0  0
  1 25  1  0  0  0
  1 30  2  0  0  0
  1 82  1  0  0  0
  2  3  1  0  0  0
  2 25  1  0  0  0
  2 84  1  0  0  0
  2 85  1  0  0  0
  3  4  1  0  0  0
  3 86  1  0  0  0
  3 87  1  0  0  0
  4  5  1  0  0  0
  4 88  1  0  0  0
  4 89  1  0  0  0
  5  6  1  0  0  0
  5 26  1  0  0  0
  5 90  1  0  0  0
  6 25  1  0  0  0
  6 91  1  0  0  0
  6 92  1  0  0  0
  7  8  2  0  0  0
  7 26  1  0  0  0
  7 29  1  0  0  0
  8  9  1  0  0  0
  8 22  1  0  0  0
  9 10  1  0  0  0
  9 27  2  0  0  0
 10 11  2  0  0  0
 10 15  1  0  0  0
 11 12  1  0  0  0
 11 93  1  0  0  0
 12 13  2  0  0  0
 12 94  1  0  0  0
 13 14  1  0  0  0
 13 31  1  0  0  0
 14 15  2  0  0  0
 14 95  1  0  0  0
 15 96  1  0  0  0
 16 17  2  0  0  0
 16 21  1  0  0  0
 16 31  1  0  0  0
 17 18  1  0  0  0
 17 97  1  0  0  0
 18 19  2  0  0  0
 18 98  1  0  0  0
 19 20  1  0  0  0
 19 24  1  0  0  0
 20 21  2  0  0  0
 20 99  1  0  0  0
 21 23  1  0  0  0
 22 28  1  0  0  0
 22 32  2  0  0  0
 26 27  1  0  0  0
 28100  1  0  0  0
 28101  1  0  0  0
 29102  1  0  0  0
 29103  1  0  0  0
 33 34  1  0  0  0
 33 66  1  0  0  0
 33 70  2  0  0  0
 34 36  1  0  0  0
 34 59  1  0  0  0
 34104  1  0  0  0
 35 44  2  0  0  0
 35 45  1  0  0  0
 35 68  1  0  0  0
 36 56  1  0  0  0
 36105  1  0  0  0
 37 39  1  0  0  0
 37 47  1  0  0  0
 37 66  1  0  0  0
 37106  1  0  0  0
 38 43  2  0  0  0
 38 46  1  0  0  0
 38 47  1  0  0  0
 39 64  1  0  0  0
 39 67  2  0  0  0
 40 52  1  0  0  0
 40 53  2  0  0  0
 40 58  1  0  0  0
 41107  1  0  0  0
 41108  1  0  0  0
 41109  1  0  0  0
 41 48  1  0  0  0
 42 43  1  0  0  0
 42 66  1  0  0  0
 42110  1  0  0  0
 42111  1  0  0  0
 43 44  1  0  0  0
 44112  1  0  0  0
 45 46  2  0  0  0
 45113  1  0  0  0
 46114  1  0  0  0
 47115  1  0  0  0
 47116  1  0  0  0
 48 56  1  0  0  0
 48 65  1  0  0  0
 48117  1  0  0  0
 49 50  1  0  0  0
 49 53  1  0  0  0
 49 64  1  0  0  0
 49118  1  0  0  0
 50 51  1  0  0  0
 50119  1  0  0  0
 50120  1  0  0  0
 51 52  1  0  0  0
 51121  1  0  0  0
 51122  1  0  0  0
 52123  1  0  0  0
 52124  1  0  0  0
 53 54  1  0  0  0
 54 55  2  0  0  0
 54125  1  0  0  0
 55 57  1  0  0  0
 55126  1  0  0  0
 56 69  2  0  0  0
 57 58  2  0  0  0
 57127  1  0  0  0
 58128  1  0  0  0
 59 60  1  0  0  0
 59 61  1  0  0  0
 59 62  1  0  0  0
 60129  1  0  0  0
 60130  1  0  0  0
 60131  1  0  0  0
 61132  1  0  0  0
 61133  1  0  0  0
 61134  1  0  0  0
 62135  1  0  0  0
 62136  1  0  0  0
 62137  1  0  0  0
 63 65  1  0  0  0
 63138  1  0  0  0
 63139  1  0  0  0
 63140  1  0  0  0
 64141  1  0  0  0
 65142  1  0  0  0
 68 79  1  0  0  0
 71 73  1  0  0  0
 71143  1  0  0  0
 71144  1  0  0  0
 71 75  1  0  0  0
 72 74  1  0  0  0
 72 75  1  0  0  0
 72145  1  0  0  0
 72146  1  0  0  0
 73 76  1  0  0  0
 73147  1  0  0  0
 73148  1  0  0  0
 74 76  1  0  0  0
 74149  1  0  0  0
 74150  1  0  0  0
 75 80  1  0  0  0
 75151  1  0  0  0
 76 82  1  0  0  0
 76152  1  0  0  0
 77153  1  0  0  0
 77154  1  0  0  0
 77155  1  0  0  0
 77 80  1  0  0  0
 78 83  1  0  0  0
 78156  1  0  0  0
 78157  1  0  0  0
 78158  1  0  0  0
 79159  1  0  0  0
 79160  1  0  0  0
 79 81  1  0  0  0
 80 81  1  0  0  0
 80161  1  0  0  0
 81 83  1  0  0  0
 81162  1  0  0  0
 82163  1  0  0  0
 83164  1  0  0  0
 83165  1  0  0  0
M  CHG  1  83   1
M  ISO  4   1 100  68 101  79 101  82 100
M  END
> <chiral flag>
0

> <version>
0

> <s_m_source_file>
/data/baiqing/PycharmProjects/Reinvent-master-3.2/result/LINK_invent/BTK/process_docking_weight1_custom_sum_contain_oxygen_bond_distance_aromatic_linkinvent_7_9_3/rearranged_h_0136.sdf

> <i_m_source_file_index>
50

> <r_mmod_Potential_Energy-OPLS-2005>
205.572708129883

> <r_mmod_Stretch_Energy-OPLS-2005>
160.368667602539

> <r_mmod_Bend_Energy-OPLS-2005>
215.580871582031

> <r_mmod_Torsional_Energy-OPLS-2005>
314.004272460938

> <r_mmod_Improper_Torsional_Energy-OPLS-2005>
5.01752662658691

> <r_mmod_Van_der_Waal_Energy-OPLS-2005>
119.431343078613

> <r_mmod_Electrostatic_Energy-OPLS-2005>
-277.399780273438

> <r_mmod_Solvation_Energy-OPLS-2005>
-431.400543212891

> <b_mmod_Minimization_Converged-OPLS-2005>
0

> <r_mmod_RMS_Derivative-OPLS-2005>
5.20967292785645

$$$$
53
                    3D
 Structure written by MMmdl.
163172  0  0  1  0            999 V2000
  -30.6563  -14.4940   20.5630 C   0  0  0  0  0  0
  -30.4390  -12.3160   19.4237 C   0  0  0  0  0  0
  -29.5022  -12.5076   18.2102 C   0  0  0  0  0  0
  -28.0230  -12.3601   18.6223 C   0  0  0  0  0  0
  -27.6664  -13.1961   19.8797 C   0  0  2  0  0  0
  -28.7077  -12.9600   20.9996 C   0  0  0  0  0  0
  -25.2614  -13.8126   20.5675 C   0  0  0  0  0  0
  -24.1850  -13.0426   20.9172 C   0  0  0  0  0  0
  -24.6390  -11.6887   20.8729 C   0  0  0  0  0  0
  -23.9053  -10.4283   21.0403 C   0  0  0  0  0  0
  -24.3607   -9.4200   21.9182 C   0  0  0  0  0  0
  -23.6282   -8.2238   22.0754 C   0  0  0  0  0  0
  -22.4262   -8.0280   21.3547 C   0  0  0  0  0  0
  -21.9897   -9.0251   20.4649 C   0  0  0  0  0  0
  -22.7222  -10.2132   20.3054 C   0  0  0  0  0  0
  -21.6853   -6.0729   22.5279 C   0  0  0  0  0  0
  -21.4013   -6.5637   23.8210 C   0  0  0  0  0  0
  -21.3654   -5.6789   24.9174 C   0  0  0  0  0  0
  -21.6045   -4.3052   24.7225 C   0  0  0  0  0  0
  -21.8819   -3.8144   23.4345 C   0  0  0  0  0  0
  -21.9190   -4.6959   22.3403 C   0  0  0  0  0  0
  -22.7879  -13.5244   21.1837 C   0  0  0  0  0  0
  -22.1662   -4.2144   21.0978 F   0  0  0  0  0  0
  -21.5628   -3.4538   25.7739 F   0  0  0  0  0  0
  -30.0412  -13.2844   20.4576 N   0  0  0  0  0  0
  -26.3043  -12.9277   20.3373 N   0  0  0  0  0  0
  -25.9316  -11.6452   20.5763 N   0  0  0  0  0  0
  -22.0509  -12.8247   22.0392 N   0  0  0  0  0  0
  -25.4352  -15.1844   20.4086 N   0  0  0  0  0  0
  -31.7644  -14.7407   20.0790 O   0  0  0  0  0  0
  -21.6636   -6.8873   21.4240 O   0  0  0  0  0  0
  -22.3573  -14.5552   20.6681 O   0  0  0  0  0  0
  -24.6123  -31.8701   23.2103 C   0  0  0  0  0  0
  -25.9021  -32.4847   23.8395 C   0  0  1  0  0  0
  -27.2461  -27.4400   20.1012 C   0  0  0  0  0  0
  -25.5872  -33.8643   24.2340 N   0  0  0  0  0  0
  -23.4001  -30.4906   21.5495 C   0  0  2  0  0  0
  -24.8495  -28.9456   20.1264 C   0  0  0  0  0  0
  -22.7409  -29.4671   22.4994 C   0  0  0  0  0  0
  -18.0285  -28.1383   22.8520 C   0  0  0  0  0  0
  -24.1471  -36.7319   23.2632 C   0  0  0  0  0  0
  -25.9264  -30.8354   21.3616 C   0  0  0  0  0  0
  -26.0059  -29.4626   20.7229 C   0  0  0  0  0  0
  -27.2056  -28.7149   20.7114 C   0  0  0  0  0  0
  -26.0705  -26.9294   19.5093 C   0  0  0  0  0  0
  -24.8743  -27.6738   19.5217 C   0  0  0  0  0  0
  -23.6109  -29.8131   20.1671 C   0  0  0  0  0  0
  -25.4091  -36.3136   24.0349 C   0  0  1  0  0  0
  -20.5877  -28.3680   23.1334 C   0  0  2  0  0  0
  -20.6759  -26.9415   22.5432 C   0  0  0  0  0  0
  -19.5738  -26.6401   21.5223 C   0  0  0  0  0  0
  -18.1930  -26.7938   22.1638 C   0  0  0  0  0  0
  -19.1537  -28.8849   23.2929 C   0  0  0  0  0  0
  -18.9447  -30.1455   23.8945 C   0  0  0  0  0  0
  -17.6448  -30.6591   24.0575 C   0  0  0  0  0  0
  -25.9021  -34.9500   23.5152 C   0  0  0  0  0  0
  -16.5345  -29.9097   23.6311 C   0  0  0  0  0  0
  -16.7277  -28.6504   23.0358 C   0  0  0  0  0  0
  -26.4445  -31.6618   25.0709 C   0  0  0  0  0  0
  -25.3723  -31.3700   26.1463 C   0  0  0  0  0  0
  -27.0256  -30.3077   24.6042 C   0  0  0  0  0  0
  -27.6045  -32.4308   25.7458 C   0  0  0  0  0  0
  -27.5586  -37.1810   24.8471 C   0  0  0  0  0  0
  -21.4146  -29.3049   22.3735 N   0  0  0  0  0  0
  -26.4295  -37.3809   23.9419 N   0  0  0  0  0  0
  -24.6646  -31.0795   22.0998 N   0  0  0  0  0  0
  -23.4186  -28.8218   23.3034 O   0  0  0  0  0  0
  -28.4483  -26.7764   19.9911 O   0  0  0  0  0  0
  -26.5573  -34.8945   22.4706 O   0  0  0  0  0  0
  -23.5323  -32.1460   23.7494 O   0  0  0  0  0  0
  -29.5646  -23.9947   22.1562 C   0  0  0  0  0  0
  -28.6691  -23.0608   20.1036 C   0  0  0  0  0  0
  -29.2336  -25.2946   21.7177 C   0  0  0  0  0  0
  -28.3454  -24.3666   19.6613 C   0  0  0  0  0  0
  -29.2945  -22.8583   21.3570 C   0  0  0  0  0  0
  -28.6217  -25.4949   20.4662 C   0  0  0  0  0  0
  -28.9468  -21.1126   23.1946 C   0  0  0  0  0  0
  -29.5244  -20.1916   21.0452 C   0  0  0  0  0  0
  -29.6821  -21.4732   21.9106 C   0  0  1  0  0  0
  -29.2785  -19.6294   23.3688 C   0  0  1  0  0  0
  -28.2800  -18.9075   24.2887 C   0  0  0  0  0  0
  -29.8101  -16.8949   20.7155 C   0  0  0  0  0  0
  -30.1919  -17.8416   21.8839 C   0  0  0  0  0  0
  -29.8618  -15.4601   21.0608 N   0  0  0  0  0  0
  -29.3217  -19.0569   21.9983 N   0  3  2  0  0  0
  -31.4806  -12.4381   19.1209 H   0  0  0  0  0  0
  -30.3601  -11.3001   19.8140 H   0  0  0  0  0  0
  -29.7454  -11.7846   17.4302 H   0  0  0  0  0  0
  -29.6637  -13.4932   17.7703 H   0  0  0  0  0  0
  -27.8380  -11.3030   18.8191 H   0  0  0  0  0  0
  -27.3710  -12.6316   17.7914 H   0  0  0  0  0  0
  -27.7139  -14.2448   19.5857 H   0  0  0  0  0  0
  -28.6889  -11.9176   21.3209 H   0  0  0  0  0  0
  -28.4623  -13.5367   21.8926 H   0  0  0  0  0  0
  -25.2753   -9.5679   22.4753 H   0  0  0  0  0  0
  -23.9992   -7.4630   22.7471 H   0  0  0  0  0  0
  -21.0827   -8.8766   19.8960 H   0  0  0  0  0  0
  -22.3675  -10.9670   19.6165 H   0  0  0  0  0  0
  -21.2008   -7.6144   23.9712 H   0  0  0  0  0  0
  -21.1478   -6.0520   25.9075 H   0  0  0  0  0  0
  -22.0602   -2.7604   23.2848 H   0  0  0  0  0  0
  -22.4111  -11.9906   22.4786 H   0  0  0  0  0  0
  -21.1130  -13.1289   22.2591 H   0  0  0  0  0  0
  -24.6646  -15.8366   20.5053 H   0  0  0  0  0  0
  -26.2795  -15.6185   20.0581 H   0  0  0  0  0  0
  -26.7095  -32.5547   23.1161 H   0  0  0  0  0  0
  -25.0028  -33.9807   25.0489 H   0  0  0  0  0  0
  -22.6889  -31.3064   21.4069 H   0  0  0  0  0  0
  -23.3742  -35.9646   23.3317 H   0  0  0  0  0  0
  -24.3560  -36.8905   22.2042 H   0  0  0  0  0  0
  -23.7224  -37.6530   23.6627 H   0  0  0  0  0  0
  -26.0304  -31.5953   20.5856 H   0  0  0  0  0  0
  -26.8174  -30.9027   21.9738 H   0  0  0  0  0  0
  -28.1063  -29.1193   21.1508 H   0  0  0  0  0  0
  -26.0832  -25.9689   19.0159 H   0  0  0  0  0  0
  -23.9861  -27.2699   19.0556 H   0  0  0  0  0  0
  -23.7204  -30.5831   19.4023 H   0  0  0  0  0  0
  -22.7360  -29.2311   19.8714 H   0  0  0  0  0  0
  -25.1274  -36.2011   25.0848 H   0  0  0  0  0  0
  -21.0004  -28.3254   24.1440 H   0  0  0  0  0  0
  -20.5676  -26.2292   23.3622 H   0  0  0  0  0  0
  -21.6626  -26.7465   22.1211 H   0  0  0  0  0  0
  -19.6894  -25.6321   21.1233 H   0  0  0  0  0  0
  -19.6658  -27.3223   20.6758 H   0  0  0  0  0  0
  -17.4199  -26.6731   21.4041 H   0  0  0  0  0  0
  -18.0316  -26.0065   22.9008 H   0  0  0  0  0  0
  -19.7920  -30.7264   24.2349 H   0  0  0  0  0  0
  -17.4991  -31.6274   24.5163 H   0  0  0  0  0  0
  -15.5350  -30.3001   23.7598 H   0  0  0  0  0  0
  -15.8677  -28.0817   22.7061 H   0  0  0  0  0  0
  -24.5905  -30.7037   25.7792 H   0  0  0  0  0  0
  -24.8887  -32.2840   26.4935 H   0  0  0  0  0  0
  -25.8093  -30.8855   27.0209 H   0  0  0  0  0  0
  -26.2785  -29.6868   24.1089 H   0  0  0  0  0  0
  -27.4042  -29.7284   25.4471 H   0  0  0  0  0  0
  -27.8611  -30.4399   23.9164 H   0  0  0  0  0  0
  -27.2700  -33.3598   26.2079 H   0  0  0  0  0  0
  -28.3829  -32.6884   25.0265 H   0  0  0  0  0  0
  -28.0733  -31.8393   26.5332 H   0  0  0  0  0  0
  -28.2620  -38.0087   24.7517 H   0  0  0  0  0  0
  -28.1075  -36.2634   24.6311 H   0  0  0  0  0  0
  -27.2311  -37.1482   25.8874 H   0  0  0  0  0  0
  -20.9320  -29.8755   21.6929 H   0  0  0  0  0  0
  -26.0204  -38.2901   24.1403 H   0  0  0  0  0  0
  -30.0428  -23.8785   23.1186 H   0  0  0  0  0  0
  -28.4395  -22.2303   19.4531 H   0  0  0  0  0  0
  -29.4842  -26.1461   22.3342 H   0  0  0  0  0  0
  -27.9096  -24.5035   18.6823 H   0  0  0  0  0  0
  -27.8723  -21.2521   23.0631 H   0  0  0  0  0  0
  -29.2615  -21.7139   24.0491 H   0  0  0  0  0  0
  -30.3723  -20.0464   20.3736 H   0  0  0  0  0  0
  -28.6257  -20.2381   20.4310 H   0  0  0  0  0  0
  -30.7437  -21.5457   22.1570 H   0  0  0  0  0  0
  -30.2783  -19.5630   23.8013 H   0  0  0  0  0  0
  -27.2663  -18.9382   23.8866 H   0  0  0  0  0  0
  -28.2595  -19.3760   25.2733 H   0  0  0  0  0  0
  -28.5494  -17.8619   24.4387 H   0  0  0  0  0  0
  -30.4351  -17.1047   19.8455 H   0  0  0  0  0  0
  -28.7858  -17.0924   20.3967 H   0  0  0  0  0  0
  -31.2381  -18.1417   21.8106 H   0  0  0  0  0  0
  -30.1128  -17.2781   22.8132 H   0  0  0  0  0  0
  -29.0170  -15.0959   21.4765 H   0  0  0  0  0  0
  -28.3805  -18.7399   21.8209 H   0  0  0  0  0  0
  1 25  1  0  0  0
  1 30  2  0  0  0
  1 84  1  0  0  0
  2  3  1  0  0  0
  2 25  1  0  0  0
  2 86  1  0  0  0
  2 87  1  0  0  0
  3  4  1  0  0  0
  3 88  1  0  0  0
  3 89  1  0  0  0
  4  5  1  0  0  0
  4 90  1  0  0  0
  4 91  1  0  0  0
  5  6  1  0  0  0
  5 26  1  0  0  0
  5 92  1  0  0  0
  6 25  1  0  0  0
  6 93  1  0  0  0
  6 94  1  0  0  0
  7  8  2  0  0  0
  7 26  1  0  0  0
  7 29  1  0  0  0
  8  9  1  0  0  0
  8 22  1  0  0  0
  9 10  1  0  0  0
  9 27  2  0  0  0
 10 11  2  0  0  0
 10 15  1  0  0  0
 11 12  1  0  0  0
 11 95  1  0  0  0
 12 13  2  0  0  0
 12 96  1  0  0  0
 13 14  1  0  0  0
 13 31  1  0  0  0
 14 15  2  0  0  0
 14 97  1  0  0  0
 15 98  1  0  0  0
 16 17  2  0  0  0
 16 21  1  0  0  0
 16 31  1  0  0  0
 17 18  1  0  0  0
 17 99  1  0  0  0
 18 19  2  0  0  0
 18100  1  0  0  0
 19 20  1  0  0  0
 19 24  1  0  0  0
 20 21  2  0  0  0
 20101  1  0  0  0
 21 23  1  0  0  0
 22 28  1  0  0  0
 22 32  2  0  0  0
 26 27  1  0  0  0
 28102  1  0  0  0
 28103  1  0  0  0
 29104  1  0  0  0
 29105  1  0  0  0
 33 34  1  0  0  0
 33 66  1  0  0  0
 33 70  2  0  0  0
 34 36  1  0  0  0
 34 59  1  0  0  0
 34106  1  0  0  0
 35 44  2  0  0  0
 35 45  1  0  0  0
 35 68  1  0  0  0
 36 56  1  0  0  0
 36107  1  0  0  0
 37 39  1  0  0  0
 37 47  1  0  0  0
 37 66  1  0  0  0
 37108  1  0  0  0
 38 43  2  0  0  0
 38 46  1  0  0  0
 38 47  1  0  0  0
 39 64  1  0  0  0
 39 67  2  0  0  0
 40 52  1  0  0  0
 40 53  2  0  0  0
 40 58  1  0  0  0
 41109  1  0  0  0
 41110  1  0  0  0
 41111  1  0  0  0
 41 48  1  0  0  0
 42 43  1  0  0  0
 42 66  1  0  0  0
 42112  1  0  0  0
 42113  1  0  0  0
 43 44  1  0  0  0
 44114  1  0  0  0
 45 46  2  0  0  0
 45115  1  0  0  0
 46116  1  0  0  0
 47117  1  0  0  0
 47118  1  0  0  0
 48 56  1  0  0  0
 48 65  1  0  0  0
 48119  1  0  0  0
 49 50  1  0  0  0
 49 53  1  0  0  0
 49 64  1  0  0  0
 49120  1  0  0  0
 50 51  1  0  0  0
 50121  1  0  0  0
 50122  1  0  0  0
 51 52  1  0  0  0
 51123  1  0  0  0
 51124  1  0  0  0
 52125  1  0  0  0
 52126  1  0  0  0
 53 54  1  0  0  0
 54 55  2  0  0  0
 54127  1  0  0  0
 55 57  1  0  0  0
 55128  1  0  0  0
 56 69  2  0  0  0
 57 58  2  0  0  0
 57129  1  0  0  0
 58130  1  0  0  0
 59 60  1  0  0  0
 59 61  1  0  0  0
 59 62  1  0  0  0
 60131  1  0  0  0
 60132  1  0  0  0
 60133  1  0  0  0
 61134  1  0  0  0
 61135  1  0  0  0
 61136  1  0  0  0
 62137  1  0  0  0
 62138  1  0  0  0
 62139  1  0  0  0
 63 65  1  0  0  0
 63140  1  0  0  0
 63141  1  0  0  0
 63142  1  0  0  0
 64143  1  0  0  0
 65144  1  0  0  0
 68 76  1  0  0  0
 71 73  2  0  0  0
 71 75  1  0  0  0
 71145  1  0  0  0
 72 74  1  0  0  0
 72 75  2  0  0  0
 72146  1  0  0  0
 73 76  1  0  0  0
 73147  1  0  0  0
 74 76  2  0  0  0
 74148  1  0  0  0
 75 79  1  0  0  0
 77 79  1  0  0  0
 77 80  1  0  0  0
 77149  1  0  0  0
 77150  1  0  0  0
 78 79  1  0  0  0
 78 85  1  0  0  0
 78151  1  0  0  0
 78152  1  0  0  0
 79153  1  0  0  0
 80 81  1  0  0  0
 80 85  1  0  0  0
 80154  1  0  0  0
 81155  1  0  0  0
 81156  1  0  0  0
 81157  1  0  0  0
 82 83  1  0  0  0
 82 84  1  0  0  0
 82158  1  0  0  0
 82159  1  0  0  0
 83160  1  0  0  0
 83161  1  0  0  0
 83 85  1  0  0  0
 84162  1  0  0  0
 85163  1  0  0  0
M  CHG  1  85   1
M  ISO  4   1 100  68 101  76 101  84 100
M  END
> <chiral flag>
0

> <version>
0

> <s_m_source_file>
/data/baiqing/PycharmProjects/Reinvent-master-3.2/result/LINK_invent/BTK/process_docking_weight1_custom_sum_contain_oxygen_bond_distance_aromatic_linkinvent_7_9_3/rearranged_h_0136.sdf

> <i_m_source_file_index>
51

> <r_mmod_Potential_Energy-OPLS-2005>
-88.9231491088867

> <r_mmod_Stretch_Energy-OPLS-2005>
38.967170715332

> <r_mmod_Bend_Energy-OPLS-2005>
133.392852783203

> <r_mmod_Torsional_Energy-OPLS-2005>
303.393493652344

> <r_mmod_Improper_Torsional_Energy-OPLS-2005>
6.96671199798584

> <r_mmod_Van_der_Waal_Energy-OPLS-2005>
140.609848022461

> <r_mmod_Electrostatic_Energy-OPLS-2005>
-265.500701904297

> <r_mmod_Solvation_Energy-OPLS-2005>
-459.972137451172

> <b_mmod_Minimization_Converged-OPLS-2005>
0

> <r_mmod_RMS_Derivative-OPLS-2005>
2.22796273231506

$$$$
54
                    3D
 Structure written by MMmdl.
171180  0  0  1  0            999 V2000
  -30.6689  -14.5458   20.5385 C   0  0  0  0  0  0
  -30.4285  -12.3401   19.4415 C   0  0  0  0  0  0
  -29.5048  -12.5034   18.2156 C   0  0  0  0  0  0
  -28.0266  -12.3453   18.6242 C   0  0  0  0  0  0
  -27.6556  -13.2022   19.8626 C   0  0  2  0  0  0
  -28.6955  -13.0308   20.9935 C   0  0  0  0  0  0
  -25.2559  -13.8121   20.5666 C   0  0  0  0  0  0
  -24.1801  -13.0416   20.9184 C   0  0  0  0  0  0
  -24.6352  -11.6883   20.8707 C   0  0  0  0  0  0
  -23.9013  -10.4278   21.0383 C   0  0  0  0  0  0
  -24.3579   -9.4219   21.9164 C   0  0  0  0  0  0
  -23.6273   -8.2234   22.0719 C   0  0  0  0  0  0
  -22.4263   -8.0244   21.3525 C   0  0  0  0  0  0
  -21.9877   -9.0215   20.4627 C   0  0  0  0  0  0
  -22.7179  -10.2104   20.3042 C   0  0  0  0  0  0
  -21.6849   -6.0713   22.5284 C   0  0  0  0  0  0
  -21.4007   -6.5622   23.8218 C   0  0  0  0  0  0
  -21.3668   -5.6780   24.9177 C   0  0  0  0  0  0
  -21.6056   -4.3042   24.7235 C   0  0  0  0  0  0
  -21.8820   -3.8131   23.4351 C   0  0  0  0  0  0
  -21.9195   -4.6945   22.3403 C   0  0  0  0  0  0
  -22.7839  -13.5233   21.1863 C   0  0  0  0  0  0
  -22.1665   -4.2130   21.0982 F   0  0  0  0  0  0
  -21.5630   -3.4538   25.7753 F   0  0  0  0  0  0
  -30.0202  -13.3477   20.4380 N   0  0  0  0  0  0
  -26.2970  -12.9292   20.3266 N   0  0  0  0  0  0
  -25.9267  -11.6454   20.5699 N   0  0  0  0  0  0
  -22.0454  -12.8235   22.0414 N   0  0  0  0  0  0
  -25.4284  -15.1831   20.4093 N   0  0  0  0  0  0
  -31.8161  -14.7050   20.1150 O   0  0  0  0  0  0
  -21.6623   -6.8851   21.4240 O   0  0  0  0  0  0
  -22.3552  -14.5564   20.6741 O   0  0  0  0  0  0
  -24.6200  -31.8657   23.2078 C   0  0  0  0  0  0
  -25.9080  -32.4807   23.8374 C   0  0  1  0  0  0
  -27.2289  -27.3930   20.1119 C   0  0  0  0  0  0
  -25.5919  -33.8603   24.2310 N   0  0  0  0  0  0
  -23.4078  -30.4925   21.5484 C   0  0  2  0  0  0
  -24.8547  -28.9578   20.1127 C   0  0  0  0  0  0
  -22.7430  -29.4667   22.4959 C   0  0  0  0  0  0
  -18.0278  -28.1401   22.8489 C   0  0  0  0  0  0
  -24.1481  -36.7309   23.2640 C   0  0  0  0  0  0
  -25.9423  -30.8221   21.3652 C   0  0  0  0  0  0
  -26.0187  -29.4543   20.7121 C   0  0  0  0  0  0
  -27.2095  -28.6821   20.7042 C   0  0  0  0  0  0
  -26.0438  -26.9327   19.4878 C   0  0  0  0  0  0
  -24.8657  -27.6986   19.4933 C   0  0  0  0  0  0
  -23.6173  -29.8272   20.1627 C   0  0  0  0  0  0
  -25.4103  -36.3097   24.0330 C   0  0  1  0  0  0
  -20.5874  -28.3685   23.1306 C   0  0  2  0  0  0
  -20.6769  -26.9417   22.5416 C   0  0  0  0  0  0
  -19.5747  -26.6396   21.5215 C   0  0  0  0  0  0
  -18.1923  -26.7948   22.1621 C   0  0  0  0  0  0
  -19.1531  -28.8860   23.2896 C   0  0  0  0  0  0
  -18.9458  -30.1464   23.8905 C   0  0  0  0  0  0
  -17.6460  -30.6602   24.0574 C   0  0  0  0  0  0
  -25.9035  -34.9464   23.5113 C   0  0  0  0  0  0
  -16.5348  -29.9104   23.6346 C   0  0  0  0  0  0
  -16.7268  -28.6526   23.0350 C   0  0  0  0  0  0
  -26.4493  -31.6601   25.0722 C   0  0  0  0  0  0
  -25.3744  -31.3735   26.1465 C   0  0  0  0  0  0
  -27.0330  -30.3032   24.6137 C   0  0  0  0  0  0
  -27.6055  -32.4320   25.7498 C   0  0  0  0  0  0
  -27.5573  -37.1811   24.8464 C   0  0  0  0  0  0
  -21.4154  -29.3046   22.3701 N   0  0  0  0  0  0
  -26.4287  -37.3783   23.9406 N   0  0  0  0  0  0
  -24.6751  -31.0738   22.0984 N   0  0  0  0  0  0
  -23.4186  -28.8197   23.3004 O   0  0  0  0  0  0
  -28.3689  -26.5983   20.1569 O   0  0  0  0  0  0
  -26.5597  -34.8923   22.4677 O   0  0  0  0  0  0
  -23.5382  -32.1410   23.7461 O   0  0  0  0  0  0
  -28.6299  -16.0977   15.5308 C   0  0  0  0  0  0
  -27.4562  -15.6769   16.3870 C   0  0  0  0  0  0
  -29.3568  -21.5270   19.0439 C   0  0  0  0  0  0
  -28.7226  -20.1394   19.0867 C   0  0  0  0  0  0
  -29.6530  -20.3652   21.1395 C   0  0  0  0  0  0
  -28.2186  -16.9367   16.7143 C   0  0  0  0  0  0
  -29.8430  -21.7757   20.4714 C   0  0  2  0  0  0
  -29.1020  -17.0307   17.9407 C   0  0  0  0  0  0
  -28.2911  -17.3533   19.2098 C   0  0  0  0  0  0
  -30.2771  -17.0480   20.8279 C   0  0  0  0  0  0
  -29.4056  -24.3033   20.6058 C   0  0  0  0  0  0
  -28.1358  -25.1770   20.3722 C   0  0  0  0  0  0
  -29.1012  -17.9958   20.3699 C   0  0  1  0  0  0
  -29.5520  -19.3859   20.0338 N   0  0  0  0  0  0
  -29.9237  -15.6027   20.9512 N   0  0  0  0  0  0
  -29.1015  -22.9145   21.1086 N   0  3  0  0  0  0
  -31.4738  -12.4396   19.1454 H   0  0  0  0  0  0
  -30.3324  -11.3359   19.8576 H   0  0  0  0  0  0
  -29.7610  -11.7711   17.4484 H   0  0  0  0  0  0
  -29.6617  -13.4856   17.7648 H   0  0  0  0  0  0
  -27.8528  -11.2913   18.8398 H   0  0  0  0  0  0
  -27.3737  -12.5879   17.7853 H   0  0  0  0  0  0
  -27.6884  -14.2380   19.5325 H   0  0  0  0  0  0
  -28.6851  -12.0037   21.3646 H   0  0  0  0  0  0
  -28.4489  -13.6567   21.8510 H   0  0  0  0  0  0
  -25.2708   -9.5732   22.4753 H   0  0  0  0  0  0
  -24.0012   -7.4643   22.7421 H   0  0  0  0  0  0
  -21.0815   -8.8716   19.8943 H   0  0  0  0  0  0
  -22.3611  -10.9638   19.6162 H   0  0  0  0  0  0
  -21.1994   -7.6133   23.9723 H   0  0  0  0  0  0
  -21.1489   -6.0495   25.9090 H   0  0  0  0  0  0
  -22.0602   -2.7593   23.2841 H   0  0  0  0  0  0
  -22.4046  -11.9899   22.4822 H   0  0  0  0  0  0
  -21.1072  -13.1271   22.2615 H   0  0  0  0  0  0
  -24.6548  -15.8303   20.5142 H   0  0  0  0  0  0
  -26.2600  -15.6165   20.0345 H   0  0  0  0  0  0
  -26.7158  -32.5513   23.1137 H   0  0  0  0  0  0
  -25.0076  -33.9749   25.0460 H   0  0  0  0  0  0
  -22.6968  -31.3099   21.4105 H   0  0  0  0  0  0
  -23.3728  -35.9658   23.3318 H   0  0  0  0  0  0
  -24.3574  -36.8912   22.2052 H   0  0  0  0  0  0
  -23.7246  -37.6523   23.6647 H   0  0  0  0  0  0
  -26.0586  -31.5862   20.5950 H   0  0  0  0  0  0
  -26.8281  -30.8748   21.9863 H   0  0  0  0  0  0
  -28.1032  -29.0606   21.1802 H   0  0  0  0  0  0
  -26.0002  -25.9801   18.9839 H   0  0  0  0  0  0
  -23.9748  -27.3138   19.0156 H   0  0  0  0  0  0
  -23.7247  -30.6027   19.4033 H   0  0  0  0  0  0
  -22.7398  -29.2485   19.8684 H   0  0  0  0  0  0
  -25.1280  -36.1952   25.0822 H   0  0  0  0  0  0
  -20.9975  -28.3268   24.1423 H   0  0  0  0  0  0
  -20.5684  -26.2293   23.3607 H   0  0  0  0  0  0
  -21.6638  -26.7464   22.1206 H   0  0  0  0  0  0
  -19.6905  -25.6305   21.1250 H   0  0  0  0  0  0
  -19.6701  -27.3204   20.6743 H   0  0  0  0  0  0
  -17.4195  -26.6702   21.4020 H   0  0  0  0  0  0
  -18.0323  -26.0098   22.9027 H   0  0  0  0  0  0
  -19.7935  -30.7286   24.2265 H   0  0  0  0  0  0
  -17.5019  -31.6288   24.5172 H   0  0  0  0  0  0
  -15.5347  -30.3005   23.7674 H   0  0  0  0  0  0
  -15.8668  -28.0854   22.7046 H   0  0  0  0  0  0
  -24.5889  -30.7119   25.7803 H   0  0  0  0  0  0
  -24.8979  -32.2915   26.4914 H   0  0  0  0  0  0
  -25.8081  -30.8892   27.0221 H   0  0  0  0  0  0
  -26.2898  -29.6785   24.1174 H   0  0  0  0  0  0
  -27.4066  -29.7280   25.4620 H   0  0  0  0  0  0
  -27.8744  -30.4331   23.9323 H   0  0  0  0  0  0
  -27.2662  -33.3612   26.2084 H   0  0  0  0  0  0
  -28.3869  -32.6891   25.0337 H   0  0  0  0  0  0
  -28.0719  -31.8441   26.5411 H   0  0  0  0  0  0
  -28.2597  -38.0100   24.7488 H   0  0  0  0  0  0
  -28.1053  -36.2627   24.6305 H   0  0  0  0  0  0
  -27.2297  -37.1494   25.8871 H   0  0  0  0  0  0
  -20.9306  -29.8764   21.6927 H   0  0  0  0  0  0
  -26.0170  -38.2862   24.1392 H   0  0  0  0  0  0
  -28.4196  -16.5010   14.5425 H   0  0  0  0  0  0
  -29.5480  -15.5173   15.6120 H   0  0  0  0  0  0
  -27.5898  -14.8214   17.0447 H   0  0  0  0  0  0
  -26.4608  -15.7843   15.9614 H   0  0  0  0  0  0
  -28.6515  -22.2734   18.6788 H   0  0  0  0  0  0
  -30.2049  -21.5264   18.3574 H   0  0  0  0  0  0
  -28.6900  -19.7065   18.0880 H   0  0  0  0  0  0
  -27.6962  -20.2122   19.4577 H   0  0  0  0  0  0
  -28.7259  -20.3468   21.7176 H   0  0  0  0  0  0
  -30.4661  -20.1214   21.8249 H   0  0  0  0  0  0
  -27.7068  -17.8682   16.4790 H   0  0  0  0  0  0
  -30.9064  -22.0213   20.4580 H   0  0  0  0  0  0
  -29.8562  -17.7954   17.7540 H   0  0  0  0  0  0
  -29.6487  -16.0964   18.0737 H   0  0  0  0  0  0
  -27.8362  -16.4322   19.5602 H   0  0  0  0  0  0
  -27.4258  -17.9679   18.9598 H   0  0  0  0  0  0
  -30.6587  -17.3824   21.7924 H   0  0  0  0  0  0
  -31.1061  -17.1594   20.1267 H   0  0  0  0  0  0
  -30.0468  -24.7937   21.3393 H   0  0  0  0  0  0
  -29.9802  -24.2599   19.6796 H   0  0  0  0  0  0
  -27.4739  -25.0718   21.2341 H   0  0  0  0  0  0
  -27.6150  -24.7478   19.5167 H   0  0  0  0  0  0
  -28.3999  -18.0826   21.2023 H   0  0  0  0  0  0
  -28.9935  -15.3929   21.2773 H   0  0  0  0  0  0
  -29.3181  -22.9043   22.0939 H   0  0  0  0  0  0
  -28.1131  -22.7354   21.0353 H   0  0  0  0  0  0
  1 25  1  0  0  0
  1 30  2  0  0  0
  1 85  1  0  0  0
  2  3  1  0  0  0
  2 25  1  0  0  0
  2 87  1  0  0  0
  2 88  1  0  0  0
  3  4  1  0  0  0
  3 89  1  0  0  0
  3 90  1  0  0  0
  4  5  1  0  0  0
  4 91  1  0  0  0
  4 92  1  0  0  0
  5  6  1  0  0  0
  5 26  1  0  0  0
  5 93  1  0  0  0
  6 25  1  0  0  0
  6 94  1  0  0  0
  6 95  1  0  0  0
  7  8  2  0  0  0
  7 26  1  0  0  0
  7 29  1  0  0  0
  8  9  1  0  0  0
  8 22  1  0  0  0
  9 10  1  0  0  0
  9 27  2  0  0  0
 10 11  2  0  0  0
 10 15  1  0  0  0
 11 12  1  0  0  0
 11 96  1  0  0  0
 12 13  2  0  0  0
 12 97  1  0  0  0
 13 14  1  0  0  0
 13 31  1  0  0  0
 14 15  2  0  0  0
 14 98  1  0  0  0
 15 99  1  0  0  0
 16 17  2  0  0  0
 16 21  1  0  0  0
 16 31  1  0  0  0
 17 18  1  0  0  0
 17100  1  0  0  0
 18 19  2  0  0  0
 18101  1  0  0  0
 19 20  1  0  0  0
 19 24  1  0  0  0
 20 21  2  0  0  0
 20102  1  0  0  0
 21 23  1  0  0  0
 22 28  1  0  0  0
 22 32  2  0  0  0
 26 27  1  0  0  0
 28103  1  0  0  0
 28104  1  0  0  0
 29105  1  0  0  0
 29106  1  0  0  0
 33 34  1  0  0  0
 33 66  1  0  0  0
 33 70  2  0  0  0
 34 36  1  0  0  0
 34 59  1  0  0  0
 34107  1  0  0  0
 35 44  2  0  0  0
 35 45  1  0  0  0
 35 68  1  0  0  0
 36 56  1  0  0  0
 36108  1  0  0  0
 37 39  1  0  0  0
 37 47  1  0  0  0
 37 66  1  0  0  0
 37109  1  0  0  0
 38 43  2  0  0  0
 38 46  1  0  0  0
 38 47  1  0  0  0
 39 64  1  0  0  0
 39 67  2  0  0  0
 40 52  1  0  0  0
 40 53  2  0  0  0
 40 58  1  0  0  0
 41110  1  0  0  0
 41111  1  0  0  0
 41112  1  0  0  0
 41 48  1  0  0  0
 42 43  1  0  0  0
 42 66  1  0  0  0
 42113  1  0  0  0
 42114  1  0  0  0
 43 44  1  0  0  0
 44115  1  0  0  0
 45 46  2  0  0  0
 45116  1  0  0  0
 46117  1  0  0  0
 47118  1  0  0  0
 47119  1  0  0  0
 48 56  1  0  0  0
 48 65  1  0  0  0
 48120  1  0  0  0
 49 50  1  0  0  0
 49 53  1  0  0  0
 49 64  1  0  0  0
 49121  1  0  0  0
 50 51  1  0  0  0
 50122  1  0  0  0
 50123  1  0  0  0
 51 52  1  0  0  0
 51124  1  0  0  0
 51125  1  0  0  0
 52126  1  0  0  0
 52127  1  0  0  0
 53 54  1  0  0  0
 54 55  2  0  0  0
 54128  1  0  0  0
 55 57  1  0  0  0
 55129  1  0  0  0
 56 69  2  0  0  0
 57 58  2  0  0  0
 57130  1  0  0  0
 58131  1  0  0  0
 59 60  1  0  0  0
 59 61  1  0  0  0
 59 62  1  0  0  0
 60132  1  0  0  0
 60133  1  0  0  0
 60134  1  0  0  0
 61135  1  0  0  0
 61136  1  0  0  0
 61137  1  0  0  0
 62138  1  0  0  0
 62139  1  0  0  0
 62140  1  0  0  0
 63 65  1  0  0  0
 63141  1  0  0  0
 63142  1  0  0  0
 63143  1  0  0  0
 64144  1  0  0  0
 65145  1  0  0  0
 68 82  1  0  0  0
 71 72  1  0  0  0
 71 76  1  0  0  0
 71146  1  0  0  0
 71147  1  0  0  0
 72 76  1  0  0  0
 72148  1  0  0  0
 72149  1  0  0  0
 73 74  1  0  0  0
 73 77  1  0  0  0
 73150  1  0  0  0
 73151  1  0  0  0
 74 84  1  0  0  0
 74152  1  0  0  0
 74153  1  0  0  0
 75 77  1  0  0  0
 75 84  1  0  0  0
 75154  1  0  0  0
 75155  1  0  0  0
 76 78  1  0  0  0
 76156  1  0  0  0
 77 86  1  0  0  0
 77157  1  0  0  0
 78 79  1  0  0  0
 78158  1  0  0  0
 78159  1  0  0  0
 79160  1  0  0  0
 79161  1  0  0  0
 79 83  1  0  0  0
 80 83  1  0  0  0
 80 85  1  0  0  0
 80162  1  0  0  0
 80163  1  0  0  0
 81 82  1  0  0  0
 81 86  1  0  0  0
 81164  1  0  0  0
 81165  1  0  0  0
 82166  1  0  0  0
 82167  1  0  0  0
 83 84  1  0  0  0
 83168  1  0  0  0
 85169  1  0  0  0
 86170  1  0  0  0
 86171  1  0  0  0
M  CHG  1  86   1
M  ISO  4   1 100  68 101  82 101  85 100
M  END
> <chiral flag>
0

> <version>
0

> <s_m_source_file>
/data/baiqing/PycharmProjects/Reinvent-master-3.2/result/LINK_invent/BTK/process_docking_weight1_custom_sum_contain_oxygen_bond_distance_aromatic_linkinvent_7_9_3/rearranged_h_0136.sdf

> <i_m_source_file_index>
52

> <r_mmod_Potential_Energy-OPLS-2005>
-84.0829315185547

> <r_mmod_Stretch_Energy-OPLS-2005>
55.6118545532227

> <r_mmod_Bend_Energy-OPLS-2005>
136.28987121582

> <r_mmod_Torsional_Energy-OPLS-2005>
340.024322509766

> <r_mmod_Improper_Torsional_Energy-OPLS-2005>
4.45435333251953

> <r_mmod_Van_der_Waal_Energy-OPLS-2005>
123.488868713379

> <r_mmod_Electrostatic_Energy-OPLS-2005>
-304.795074462891

> <r_mmod_Solvation_Energy-OPLS-2005>
-463.329132080078

> <b_mmod_Minimization_Converged-OPLS-2005>
0

> <r_mmod_RMS_Derivative-OPLS-2005>
2.66296768188477

$$$$
55
                    3D
 Structure written by MMmdl.
166175  0  0  1  0            999 V2000
  -30.7529  -14.3879   20.6589 C   0  0  0  0  0  0
  -30.4195  -12.2901   19.4029 C   0  0  0  0  0  0
  -29.4884  -12.5242   18.1976 C   0  0  0  0  0  0
  -28.0117  -12.3809   18.6124 C   0  0  0  0  0  0
  -27.6671  -13.2043   19.8814 C   0  0  2  0  0  0
  -28.7058  -12.9497   20.9974 C   0  0  0  0  0  0
  -25.2599  -13.8154   20.5666 C   0  0  0  0  0  0
  -24.1847  -13.0434   20.9165 C   0  0  0  0  0  0
  -24.6401  -11.6902   20.8729 C   0  0  0  0  0  0
  -23.9063  -10.4289   21.0402 C   0  0  0  0  0  0
  -24.3619   -9.4204   21.9182 C   0  0  0  0  0  0
  -23.6296   -8.2240   22.0753 C   0  0  0  0  0  0
  -22.4274   -8.0278   21.3545 C   0  0  0  0  0  0
  -21.9908   -9.0252   20.4649 C   0  0  0  0  0  0
  -22.7236  -10.2130   20.3053 C   0  0  0  0  0  0
  -21.6853   -6.0733   22.5280 C   0  0  0  0  0  0
  -21.4012   -6.5638   23.8215 C   0  0  0  0  0  0
  -21.3658   -5.6793   24.9178 C   0  0  0  0  0  0
  -21.6046   -4.3056   24.7231 C   0  0  0  0  0  0
  -21.8819   -3.8143   23.4353 C   0  0  0  0  0  0
  -21.9195   -4.6959   22.3405 C   0  0  0  0  0  0
  -22.7873  -13.5234   21.1845 C   0  0  0  0  0  0
  -22.1663   -4.2145   21.0983 F   0  0  0  0  0  0
  -21.5632   -3.4538   25.7743 F   0  0  0  0  0  0
  -30.0487  -13.2420   20.4601 N   0  0  0  0  0  0
  -26.3054  -12.9325   20.3389 N   0  0  0  0  0  0
  -25.9329  -11.6484   20.5765 N   0  0  0  0  0  0
  -22.0518  -12.8225   22.0404 N   0  0  0  0  0  0
  -25.4320  -15.1865   20.4040 N   0  0  0  0  0  0
  -31.7971  -14.6564   20.0582 O   0  0  0  0  0  0
  -21.6640   -6.8875   21.4243 O   0  0  0  0  0  0
  -22.3559  -14.5550   20.6709 O   0  0  0  0  0  0
  -24.6144  -31.8692   23.2112 C   0  0  0  0  0  0
  -25.9044  -32.4834   23.8407 C   0  0  1  0  0  0
  -27.2282  -27.4385   20.0869 C   0  0  0  0  0  0
  -25.5896  -33.8631   24.2335 N   0  0  0  0  0  0
  -23.4017  -30.4955   21.5508 C   0  0  2  0  0  0
  -24.8455  -28.9641   20.1125 C   0  0  0  0  0  0
  -22.7416  -29.4668   22.4972 C   0  0  0  0  0  0
  -18.0276  -28.1391   22.8508 C   0  0  0  0  0  0
  -24.1477  -36.7315   23.2637 C   0  0  0  0  0  0
  -25.9311  -30.8324   21.3663 C   0  0  0  0  0  0
  -26.0053  -29.4666   20.7165 C   0  0  0  0  0  0
  -27.1978  -28.7068   20.7098 C   0  0  0  0  0  0
  -26.0525  -26.9601   19.4616 C   0  0  0  0  0  0
  -24.8621  -27.7075   19.4861 C   0  0  0  0  0  0
  -23.6093  -29.8323   20.1638 C   0  0  0  0  0  0
  -25.4096  -36.3117   24.0346 C   0  0  1  0  0  0
  -20.5872  -28.3669   23.1316 C   0  0  2  0  0  0
  -20.6767  -26.9407   22.5413 C   0  0  0  0  0  0
  -19.5733  -26.6385   21.5229 C   0  0  0  0  0  0
  -18.1914  -26.7937   22.1640 C   0  0  0  0  0  0
  -19.1526  -28.8844   23.2918 C   0  0  0  0  0  0
  -18.9459  -30.1450   23.8926 C   0  0  0  0  0  0
  -17.6462  -30.6595   24.0570 C   0  0  0  0  0  0
  -25.9021  -34.9484   23.5131 C   0  0  0  0  0  0
  -16.5353  -29.9101   23.6330 C   0  0  0  0  0  0
  -16.7266  -28.6520   23.0347 C   0  0  0  0  0  0
  -26.4468  -31.6612   25.0735 C   0  0  0  0  0  0
  -25.3740  -31.3752   26.1498 C   0  0  0  0  0  0
  -27.0276  -30.3041   24.6104 C   0  0  0  0  0  0
  -27.6041  -32.4336   25.7501 C   0  0  0  0  0  0
  -27.5580  -37.1800   24.8466 C   0  0  0  0  0  0
  -21.4141  -29.3043   22.3726 N   0  0  0  0  0  0
  -26.4285  -37.3798   23.9425 N   0  0  0  0  0  0
  -24.6676  -31.0800   22.1013 N   0  0  0  0  0  0
  -23.4198  -28.8195   23.2995 O   0  0  0  0  0  0
  -28.3982  -26.7032   20.0844 O   0  0  0  0  0  0
  -26.5580  -34.8940   22.4687 O   0  0  0  0  0  0
  -23.5341  -32.1442   23.7502 O   0  0  0  0  0  0
  -28.9828  -23.2931   18.7763 C   0  0  0  0  0  0
  -29.0953  -24.6848   18.9721 C   0  0  0  0  0  0
  -27.5222  -24.5431   20.8167 C   0  0  0  0  0  0
  -28.1052  -22.5176   19.5674 C   0  0  0  0  0  0
  -27.3774  -23.1512   20.6096 C   0  0  0  0  0  0
  -28.3406  -25.3275   19.9718 C   0  0  0  0  0  0
  -30.5907  -19.0670   21.1481 C   0  0  0  0  0  0
  -28.5470  -17.6625   20.8993 C   0  0  0  0  0  0
  -29.9950  -20.0979   20.1623 C   0  0  0  0  0  0
  -27.9764  -18.6985   19.9126 C   0  0  0  0  0  0
  -30.0849  -17.6407   20.8599 C   0  0  2  0  0  0
  -26.4060  -22.3861   21.4973 C   0  0  0  0  0  0
  -27.8997  -21.0428   19.2043 C   0  0  0  0  0  0
  -30.6887  -16.5970   21.8292 C   0  0  0  0  0  0
  -30.2171  -15.2414   21.5408 N   0  0  0  0  0  0
  -28.5065  -20.0689   20.1508 N   0  3  2  0  0  0
  -31.4641  -12.3867   19.1006 H   0  0  0  0  0  0
  -30.3143  -11.2688   19.7722 H   0  0  0  0  0  0
  -29.7210  -11.8188   17.3988 H   0  0  0  0  0  0
  -29.6613  -13.5206   17.7872 H   0  0  0  0  0  0
  -27.8182  -11.3228   18.7931 H   0  0  0  0  0  0
  -27.3595  -12.6715   17.7880 H   0  0  0  0  0  0
  -27.7236  -14.2580   19.6066 H   0  0  0  0  0  0
  -28.6693  -11.9067   21.3153 H   0  0  0  0  0  0
  -28.4550  -13.5263   21.8881 H   0  0  0  0  0  0
  -25.2772   -9.5676   22.4750 H   0  0  0  0  0  0
  -24.0008   -7.4628   22.7468 H   0  0  0  0  0  0
  -21.0840   -8.8769   19.8958 H   0  0  0  0  0  0
  -22.3703  -10.9665   19.6154 H   0  0  0  0  0  0
  -21.1996   -7.6147   23.9716 H   0  0  0  0  0  0
  -21.1482   -6.0524   25.9083 H   0  0  0  0  0  0
  -22.0599   -2.7606   23.2854 H   0  0  0  0  0  0
  -22.4124  -11.9870   22.4768 H   0  0  0  0  0  0
  -21.1142  -13.1249   22.2625 H   0  0  0  0  0  0
  -24.6619  -15.8404   20.4940 H   0  0  0  0  0  0
  -26.2835  -15.6156   20.0685 H   0  0  0  0  0  0
  -26.7120  -32.5540   23.1176 H   0  0  0  0  0  0
  -25.0090  -33.9795   25.0512 H   0  0  0  0  0  0
  -22.6907  -31.3125   21.4126 H   0  0  0  0  0  0
  -23.3752  -35.9629   23.3278 H   0  0  0  0  0  0
  -24.3592  -36.8940   22.2056 H   0  0  0  0  0  0
  -23.7201  -37.6506   23.6658 H   0  0  0  0  0  0
  -26.0422  -31.5937   20.5928 H   0  0  0  0  0  0
  -26.8211  -30.8874   21.9820 H   0  0  0  0  0  0
  -28.0941  -29.0856   21.1806 H   0  0  0  0  0  0
  -26.0442  -26.0060   18.9538 H   0  0  0  0  0  0
  -23.9732  -27.3178   19.0090 H   0  0  0  0  0  0
  -23.7210  -30.6087   19.4057 H   0  0  0  0  0  0
  -22.7315  -29.2547   19.8672 H   0  0  0  0  0  0
  -25.1261  -36.1985   25.0839 H   0  0  0  0  0  0
  -20.9980  -28.3234   24.1430 H   0  0  0  0  0  0
  -20.5684  -26.2280   23.3600 H   0  0  0  0  0  0
  -21.6628  -26.7446   22.1186 H   0  0  0  0  0  0
  -19.6887  -25.6301   21.1239 H   0  0  0  0  0  0
  -19.6671  -27.3211   20.6778 H   0  0  0  0  0  0
  -17.4183  -26.6701   21.4043 H   0  0  0  0  0  0
  -18.0300  -26.0085   22.9038 H   0  0  0  0  0  0
  -19.7940  -30.7257   24.2303 H   0  0  0  0  0  0
  -17.5025  -31.6284   24.5154 H   0  0  0  0  0  0
  -15.5353  -30.3008   23.7649 H   0  0  0  0  0  0
  -15.8668  -28.0852   22.7033 H   0  0  0  0  0  0
  -24.5902  -30.7092   25.7870 H   0  0  0  0  0  0
  -24.8951  -32.2930   26.4926 H   0  0  0  0  0  0
  -25.8102  -30.8957   27.0269 H   0  0  0  0  0  0
  -26.2804  -29.6822   24.1155 H   0  0  0  0  0  0
  -27.4039  -29.7259   25.4551 H   0  0  0  0  0  0
  -27.8650  -30.4344   23.9244 H   0  0  0  0  0  0
  -27.2670  -33.3679   26.2008 H   0  0  0  0  0  0
  -28.3899  -32.6819   25.0355 H   0  0  0  0  0  0
  -28.0644  -31.8500   26.5482 H   0  0  0  0  0  0
  -28.2576  -38.0118   24.7537 H   0  0  0  0  0  0
  -28.1093  -36.2649   24.6247 H   0  0  0  0  0  0
  -27.2317  -37.1394   25.8873 H   0  0  0  0  0  0
  -20.9286  -29.8817   21.7007 H   0  0  0  0  0  0
  -26.0180  -38.2874   24.1440 H   0  0  0  0  0  0
  -29.5437  -22.8318   17.9750 H   0  0  0  0  0  0
  -29.7387  -25.2677   18.3281 H   0  0  0  0  0  0
  -26.9541  -25.0302   21.5972 H   0  0  0  0  0  0
  -30.3433  -19.3522   22.1718 H   0  0  0  0  0  0
  -31.6791  -19.0948   21.0833 H   0  0  0  0  0  0
  -28.1454  -16.6810   20.6481 H   0  0  0  0  0  0
  -28.2036  -17.8794   21.9121 H   0  0  0  0  0  0
  -30.3725  -19.9016   19.1574 H   0  0  0  0  0  0
  -30.3407  -21.0963   20.4336 H   0  0  0  0  0  0
  -26.8885  -18.7062   19.9955 H   0  0  0  0  0  0
  -28.2065  -18.3947   18.8897 H   0  0  0  0  0  0
  -30.3982  -17.3774   19.8468 H   0  0  0  0  0  0
  -25.7710  -23.0702   22.0612 H   0  0  0  0  0  0
  -26.9396  -21.7694   22.2203 H   0  0  0  0  0  0
  -25.7397  -21.7475   20.9178 H   0  0  0  0  0  0
  -28.2838  -20.8550   18.1999 H   0  0  0  0  0  0
  -26.8262  -20.8679   19.1284 H   0  0  0  0  0  0
  -30.4135  -16.8391   22.8564 H   0  0  0  0  0  0
  -31.7796  -16.6314   21.7924 H   0  0  0  0  0  0
  -29.3856  -14.9291   22.0198 H   0  0  0  0  0  0
  -28.1984  -20.3438   21.0700 H   0  0  0  0  0  0
  1 25  1  0  0  0
  1 30  2  0  0  0
  1 85  1  0  0  0
  2  3  1  0  0  0
  2 25  1  0  0  0
  2 87  1  0  0  0
  2 88  1  0  0  0
  3  4  1  0  0  0
  3 89  1  0  0  0
  3 90  1  0  0  0
  4  5  1  0  0  0
  4 91  1  0  0  0
  4 92  1  0  0  0
  5  6  1  0  0  0
  5 26  1  0  0  0
  5 93  1  0  0  0
  6 25  1  0  0  0
  6 94  1  0  0  0
  6 95  1  0  0  0
  7  8  2  0  0  0
  7 26  1  0  0  0
  7 29  1  0  0  0
  8  9  1  0  0  0
  8 22  1  0  0  0
  9 10  1  0  0  0
  9 27  2  0  0  0
 10 11  2  0  0  0
 10 15  1  0  0  0
 11 12  1  0  0  0
 11 96  1  0  0  0
 12 13  2  0  0  0
 12 97  1  0  0  0
 13 14  1  0  0  0
 13 31  1  0  0  0
 14 15  2  0  0  0
 14 98  1  0  0  0
 15 99  1  0  0  0
 16 17  2  0  0  0
 16 21  1  0  0  0
 16 31  1  0  0  0
 17 18  1  0  0  0
 17100  1  0  0  0
 18 19  2  0  0  0
 18101  1  0  0  0
 19 20  1  0  0  0
 19 24  1  0  0  0
 20 21  2  0  0  0
 20102  1  0  0  0
 21 23  1  0  0  0
 22 28  1  0  0  0
 22 32  2  0  0  0
 26 27  1  0  0  0
 28103  1  0  0  0
 28104  1  0  0  0
 29105  1  0  0  0
 29106  1  0  0  0
 33 34  1  0  0  0
 33 66  1  0  0  0
 33 70  2  0  0  0
 34 36  1  0  0  0
 34 59  1  0  0  0
 34107  1  0  0  0
 35 44  2  0  0  0
 35 45  1  0  0  0
 35 68  1  0  0  0
 36 56  1  0  0  0
 36108  1  0  0  0
 37 39  1  0  0  0
 37 47  1  0  0  0
 37 66  1  0  0  0
 37109  1  0  0  0
 38 43  2  0  0  0
 38 46  1  0  0  0
 38 47  1  0  0  0
 39 64  1  0  0  0
 39 67  2  0  0  0
 40 52  1  0  0  0
 40 53  2  0  0  0
 40 58  1  0  0  0
 41110  1  0  0  0
 41111  1  0  0  0
 41112  1  0  0  0
 41 48  1  0  0  0
 42 43  1  0  0  0
 42 66  1  0  0  0
 42113  1  0  0  0
 42114  1  0  0  0
 43 44  1  0  0  0
 44115  1  0  0  0
 45 46  2  0  0  0
 45116  1  0  0  0
 46117  1  0  0  0
 47118  1  0  0  0
 47119  1  0  0  0
 48 56  1  0  0  0
 48 65  1  0  0  0
 48120  1  0  0  0
 49 50  1  0  0  0
 49 53  1  0  0  0
 49 64  1  0  0  0
 49121  1  0  0  0
 50 51  1  0  0  0
 50122  1  0  0  0
 50123  1  0  0  0
 51 52  1  0  0  0
 51124  1  0  0  0
 51125  1  0  0  0
 52126  1  0  0  0
 52127  1  0  0  0
 53 54  1  0  0  0
 54 55  2  0  0  0
 54128  1  0  0  0
 55 57  1  0  0  0
 55129  1  0  0  0
 56 69  2  0  0  0
 57 58  2  0  0  0
 57130  1  0  0  0
 58131  1  0  0  0
 59 60  1  0  0  0
 59 61  1  0  0  0
 59 62  1  0  0  0
 60132  1  0  0  0
 60133  1  0  0  0
 60134  1  0  0  0
 61135  1  0  0  0
 61136  1  0  0  0
 61137  1  0  0  0
 62138  1  0  0  0
 62139  1  0  0  0
 62140  1  0  0  0
 63 65  1  0  0  0
 63141  1  0  0  0
 63142  1  0  0  0
 63143  1  0  0  0
 64144  1  0  0  0
 65145  1  0  0  0
 68 76  1  0  0  0
 71 72  2  0  0  0
 71 74  1  0  0  0
 71146  1  0  0  0
 72 76  1  0  0  0
 72147  1  0  0  0
 73 75  1  0  0  0
 73 76  2  0  0  0
 73148  1  0  0  0
 74 75  2  0  0  0
 74 83  1  0  0  0
 75 82  1  0  0  0
 77 79  1  0  0  0
 77 81  1  0  0  0
 77149  1  0  0  0
 77150  1  0  0  0
 78 80  1  0  0  0
 78 81  1  0  0  0
 78151  1  0  0  0
 78152  1  0  0  0
 79 86  1  0  0  0
 79153  1  0  0  0
 79154  1  0  0  0
 80 86  1  0  0  0
 80155  1  0  0  0
 80156  1  0  0  0
 81 84  1  0  0  0
 81157  1  0  0  0
 82158  1  0  0  0
 82159  1  0  0  0
 82160  1  0  0  0
 83161  1  0  0  0
 83162  1  0  0  0
 83 86  1  0  0  0
 84 85  1  0  0  0
 84163  1  0  0  0
 84164  1  0  0  0
 85165  1  0  0  0
 86166  1  0  0  0
M  CHG  1  86   1
M  ISO  4   1 100  68 101  76 101  85 100
M  END
> <chiral flag>
0

> <version>
0

> <s_m_source_file>
/data/baiqing/PycharmProjects/Reinvent-master-3.2/result/LINK_invent/BTK/process_docking_weight1_custom_sum_contain_oxygen_bond_distance_aromatic_linkinvent_7_9_3/rearranged_h_0136.sdf

> <i_m_source_file_index>
53

> <r_mmod_Potential_Energy-OPLS-2005>
-197.741256713867

> <r_mmod_Stretch_Energy-OPLS-2005>
36.2221755981445

> <r_mmod_Bend_Energy-OPLS-2005>
91.5556945800781

> <r_mmod_Torsional_Energy-OPLS-2005>
218.339492797852

> <r_mmod_Improper_Torsional_Energy-OPLS-2005>
2.24962544441223

> <r_mmod_Van_der_Waal_Energy-OPLS-2005>
154.956100463867

> <r_mmod_Electrostatic_Energy-OPLS-2005>
-267.804931640625

> <r_mmod_Solvation_Energy-OPLS-2005>
-441.834197998047

> <b_mmod_Minimization_Converged-OPLS-2005>
0

> <r_mmod_RMS_Derivative-OPLS-2005>
1.26406633853912

$$$$
56
                    3D
 Structure written by MMmdl.
156165  0  0  1  0            999 V2000
  -30.6794  -14.6137   20.4491 C   0  0  0  0  0  0
  -30.4126  -12.3684   19.4593 C   0  0  0  0  0  0
  -29.5034  -12.5036   18.2203 C   0  0  0  0  0  0
  -28.0227  -12.3585   18.6246 C   0  0  0  0  0  0
  -27.6451  -13.2313   19.8548 C   0  0  2  0  0  0
  -28.6909  -13.1300   20.9875 C   0  0  0  0  0  0
  -25.2504  -13.8161   20.5660 C   0  0  0  0  0  0
  -24.1790  -13.0404   20.9154 C   0  0  0  0  0  0
  -24.6397  -11.6898   20.8719 C   0  0  0  0  0  0
  -23.9061  -10.4289   21.0384 C   0  0  0  0  0  0
  -24.3624   -9.4206   21.9159 C   0  0  0  0  0  0
  -23.6306   -8.2234   22.0748 C   0  0  0  0  0  0
  -22.4283   -8.0272   21.3548 C   0  0  0  0  0  0
  -21.9914   -9.0219   20.4632 C   0  0  0  0  0  0
  -22.7235  -10.2104   20.3035 C   0  0  0  0  0  0
  -21.6832   -6.0727   22.5279 C   0  0  0  0  0  0
  -21.4009   -6.5637   23.8207 C   0  0  0  0  0  0
  -21.3670   -5.6788   24.9173 C   0  0  0  0  0  0
  -21.6048   -4.3054   24.7214 C   0  0  0  0  0  0
  -21.8814   -3.8148   23.4332 C   0  0  0  0  0  0
  -21.9194   -4.6961   22.3405 C   0  0  0  0  0  0
  -22.7818  -13.5197   21.1820 C   0  0  0  0  0  0
  -22.1658   -4.2157   21.0972 F   0  0  0  0  0  0
  -21.5646   -3.4540   25.7720 F   0  0  0  0  0  0
  -30.0061  -13.4238   20.4059 N   0  0  0  0  0  0
  -26.2944  -12.9388   20.3298 N   0  0  0  0  0  0
  -25.9341  -11.6531   20.5738 N   0  0  0  0  0  0
  -22.0479  -12.8188   22.0401 N   0  0  0  0  0  0
  -25.4138  -15.1857   20.4028 N   0  0  0  0  0  0
  -31.8881  -14.6627   20.2046 O   0  0  0  0  0  0
  -21.6654   -6.8867   21.4236 O   0  0  0  0  0  0
  -22.3496  -14.5501   20.6685 O   0  0  0  0  0  0
  -24.6275  -31.8598   23.2084 C   0  0  0  0  0  0
  -25.9118  -32.4791   23.8406 C   0  0  1  0  0  0
  -27.2204  -27.3436   20.1034 C   0  0  0  0  0  0
  -25.5940  -33.8590   24.2335 N   0  0  0  0  0  0
  -23.4222  -30.4852   21.5506 C   0  0  2  0  0  0
  -24.8687  -28.9508   20.1095 C   0  0  0  0  0  0
  -22.7490  -29.4619   22.4979 C   0  0  0  0  0  0
  -18.0280  -28.1399   22.8485 C   0  0  0  0  0  0
  -24.1494  -36.7297   23.2630 C   0  0  0  0  0  0
  -25.9622  -30.7982   21.3771 C   0  0  0  0  0  0
  -26.0369  -29.4281   20.7176 C   0  0  0  0  0  0
  -27.2207  -28.6357   20.7067 C   0  0  0  0  0  0
  -26.0407  -26.9262   19.4514 C   0  0  0  0  0  0
  -24.8707  -27.7050   19.4672 C   0  0  0  0  0  0
  -23.6365  -29.8268   20.1640 C   0  0  0  0  0  0
  -25.4107  -36.3096   24.0336 C   0  0  1  0  0  0
  -20.5883  -28.3694   23.1299 C   0  0  2  0  0  0
  -20.6796  -26.9413   22.5433 C   0  0  0  0  0  0
  -19.5762  -26.6394   21.5236 C   0  0  0  0  0  0
  -18.1934  -26.7949   22.1610 C   0  0  0  0  0  0
  -19.1541  -28.8862   23.2888 C   0  0  0  0  0  0
  -18.9454  -30.1471   23.8904 C   0  0  0  0  0  0
  -17.6458  -30.6600   24.0562 C   0  0  0  0  0  0
  -25.9048  -34.9461   23.5132 C   0  0  0  0  0  0
  -16.5347  -29.9101   23.6315 C   0  0  0  0  0  0
  -16.7266  -28.6513   23.0328 C   0  0  0  0  0  0
  -26.4509  -31.6569   25.0759 C   0  0  0  0  0  0
  -25.3738  -31.3666   26.1489 C   0  0  0  0  0  0
  -27.0332  -30.2996   24.6161 C   0  0  0  0  0  0
  -27.6117  -32.4263   25.7493 C   0  0  0  0  0  0
  -27.5592  -37.1783   24.8449 C   0  0  0  0  0  0
  -21.4207  -29.3049   22.3702 N   0  0  0  0  0  0
  -26.4291  -37.3789   23.9429 N   0  0  0  0  0  0
  -24.6884  -31.0629   22.1025 N   0  0  0  0  0  0
  -23.4213  -28.8141   23.3035 O   0  0  0  0  0  0
  -28.3105  -26.4727   20.1429 O   0  0  0  0  0  0
  -26.5591  -34.8893   22.4686 O   0  0  0  0  0  0
  -23.5422  -32.1414   23.7397 O   0  0  0  0  0  0
  -30.5843  -19.6657   19.9892 C   0  0  0  0  0  0
  -30.0877  -20.9964   20.0798 C   0  0  0  0  0  0
  -28.0815  -20.1348   21.0826 C   0  0  0  0  0  0
  -29.8642  -18.5263   20.4487 C   0  0  0  0  0  0
  -28.6050  -18.8031   21.0451 C   0  0  0  0  0  0
  -28.8049  -21.2616   20.6038 C   0  0  0  0  0  0
  -29.8545  -16.4001   19.0599 C   0  0  0  0  0  0
  -30.5032  -17.1267   20.1884 C   0  0  2  0  0  0
  -27.8014  -17.6763   21.6628 C   0  0  0  0  0  0
  -28.8244  -23.8475   20.1918 C   0  0  0  0  0  0
  -28.0212  -25.1257   20.6776 C   0  0  0  0  0  0
  -29.9330  -15.7628   20.3406 N   0  0  0  0  0  0
  -28.2309  -22.5670   20.6786 N   0  0  0  0  0  0
  -31.4622  -12.4405   19.1696 H   0  0  0  0  0  0
  -30.2924  -11.3843   19.9174 H   0  0  0  0  0  0
  -29.7653  -11.7482   17.4779 H   0  0  0  0  0  0
  -29.6627  -13.4682   17.7389 H   0  0  0  0  0  0
  -27.8432  -11.3047   18.8434 H   0  0  0  0  0  0
  -27.3770  -12.6070   17.7819 H   0  0  0  0  0  0
  -27.6487  -14.2646   19.5066 H   0  0  0  0  0  0
  -28.6900  -12.1310   21.4280 H   0  0  0  0  0  0
  -28.4499  -13.8266   21.7928 H   0  0  0  0  0  0
  -25.2763   -9.5683   22.4730 H   0  0  0  0  0  0
  -24.0015   -7.4623   22.7460 H   0  0  0  0  0  0
  -21.0850   -8.8694   19.8935 H   0  0  0  0  0  0
  -22.3659  -10.9622   19.6148 H   0  0  0  0  0  0
  -21.1990   -7.6139   23.9715 H   0  0  0  0  0  0
  -21.1508   -6.0518   25.9070 H   0  0  0  0  0  0
  -22.0595   -2.7613   23.2825 H   0  0  0  0  0  0
  -22.4142  -11.9893   22.4836 H   0  0  0  0  0  0
  -21.1071  -13.1174   22.2558 H   0  0  0  0  0  0
  -24.6472  -15.8386   20.5141 H   0  0  0  0  0  0
  -26.2656  -15.6235   20.0793 H   0  0  0  0  0  0
  -26.7204  -32.5462   23.1157 H   0  0  0  0  0  0
  -25.0114  -33.9754   25.0503 H   0  0  0  0  0  0
  -22.7155  -31.3057   21.4090 H   0  0  0  0  0  0
  -23.3783  -35.9605   23.3246 H   0  0  0  0  0  0
  -24.3622  -36.8962   22.2065 H   0  0  0  0  0  0
  -23.7213  -37.6462   23.6677 H   0  0  0  0  0  0
  -26.0925  -31.5605   20.6093 H   0  0  0  0  0  0
  -26.8436  -30.8460   22.0052 H   0  0  0  0  0  0
  -28.1199  -28.9926   21.1894 H   0  0  0  0  0  0
  -26.0111  -25.9786   18.9336 H   0  0  0  0  0  0
  -23.9764  -27.3433   18.9764 H   0  0  0  0  0  0
  -23.7630  -30.6068   19.4121 H   0  0  0  0  0  0
  -22.7571  -29.2597   19.8524 H   0  0  0  0  0  0
  -25.1284  -36.1948   25.0829 H   0  0  0  0  0  0
  -20.9951  -28.3262   24.1419 H   0  0  0  0  0  0
  -20.5748  -26.2283   23.3625 H   0  0  0  0  0  0
  -21.6656  -26.7494   22.1173 H   0  0  0  0  0  0
  -19.6942  -25.6311   21.1244 H   0  0  0  0  0  0
  -19.6721  -27.3221   20.6780 H   0  0  0  0  0  0
  -17.4225  -26.6704   21.3996 H   0  0  0  0  0  0
  -18.0307  -26.0102   22.9004 H   0  0  0  0  0  0
  -19.7940  -30.7285   24.2281 H   0  0  0  0  0  0
  -17.5002  -31.6274   24.5176 H   0  0  0  0  0  0
  -15.5341  -30.2989   23.7679 H   0  0  0  0  0  0
  -15.8654  -28.0848   22.7030 H   0  0  0  0  0  0
  -24.5963  -30.6963   25.7788 H   0  0  0  0  0  0
  -24.8867  -32.2804   26.4895 H   0  0  0  0  0  0
  -25.8075  -30.8852   27.0267 H   0  0  0  0  0  0
  -26.2873  -29.6757   24.1222 H   0  0  0  0  0  0
  -27.4094  -29.7237   25.4627 H   0  0  0  0  0  0
  -27.8724  -30.4305   23.9331 H   0  0  0  0  0  0
  -27.2811  -33.3594   26.2052 H   0  0  0  0  0  0
  -28.3916  -32.6751   25.0287 H   0  0  0  0  0  0
  -28.0789  -31.8379   26.5399 H   0  0  0  0  0  0
  -28.2551  -38.0135   24.7576 H   0  0  0  0  0  0
  -28.1148  -36.2678   24.6167 H   0  0  0  0  0  0
  -27.2323  -37.1269   25.8845 H   0  0  0  0  0  0
  -20.9423  -29.8726   21.6860 H   0  0  0  0  0  0
  -26.0173  -38.2857   24.1466 H   0  0  0  0  0  0
  -31.5547  -19.5275   19.5360 H   0  0  0  0  0  0
  -30.7024  -21.8093   19.7242 H   0  0  0  0  0  0
  -27.0923  -20.2901   21.4946 H   0  0  0  0  0  0
  -30.4954  -16.0348   18.2591 H   0  0  0  0  0  0
  -28.8564  -16.6999   18.7485 H   0  0  0  0  0  0
  -31.5896  -17.2050   20.1971 H   0  0  0  0  0  0
  -27.0095  -18.0536   22.3094 H   0  0  0  0  0  0
  -28.4452  -17.0441   22.2780 H   0  0  0  0  0  0
  -27.3543  -17.0637   20.8808 H   0  0  0  0  0  0
  -29.8619  -23.9105   20.5279 H   0  0  0  0  0  0
  -28.8552  -23.8281   19.0991 H   0  0  0  0  0  0
  -28.1582  -25.2096   21.7539 H   0  0  0  0  0  0
  -26.9650  -24.8839   20.5728 H   0  0  0  0  0  0
  -27.2781  -22.6319   21.0291 H   0  0  0  0  0  0
  1 25  1  0  0  0
  1 30  2  0  0  0
  1 82  1  0  0  0
  2  3  1  0  0  0
  2 25  1  0  0  0
  2 84  1  0  0  0
  2 85  1  0  0  0
  3  4  1  0  0  0
  3 86  1  0  0  0
  3 87  1  0  0  0
  4  5  1  0  0  0
  4 88  1  0  0  0
  4 89  1  0  0  0
  5  6  1  0  0  0
  5 26  1  0  0  0
  5 90  1  0  0  0
  6 25  1  0  0  0
  6 91  1  0  0  0
  6 92  1  0  0  0
  7  8  2  0  0  0
  7 26  1  0  0  0
  7 29  1  0  0  0
  8  9  1  0  0  0
  8 22  1  0  0  0
  9 10  1  0  0  0
  9 27  2  0  0  0
 10 11  2  0  0  0
 10 15  1  0  0  0
 11 12  1  0  0  0
 11 93  1  0  0  0
 12 13  2  0  0  0
 12 94  1  0  0  0
 13 14  1  0  0  0
 13 31  1  0  0  0
 14 15  2  0  0  0
 14 95  1  0  0  0
 15 96  1  0  0  0
 16 17  2  0  0  0
 16 21  1  0  0  0
 16 31  1  0  0  0
 17 18  1  0  0  0
 17 97  1  0  0  0
 18 19  2  0  0  0
 18 98  1  0  0  0
 19 20  1  0  0  0
 19 24  1  0  0  0
 20 21  2  0  0  0
 20 99  1  0  0  0
 21 23  1  0  0  0
 22 28  1  0  0  0
 22 32  2  0  0  0
 26 27  1  0  0  0
 28100  1  0  0  0
 28101  1  0  0  0
 29102  1  0  0  0
 29103  1  0  0  0
 33 34  1  0  0  0
 33 66  1  0  0  0
 33 70  2  0  0  0
 34 36  1  0  0  0
 34 59  1  0  0  0
 34104  1  0  0  0
 35 44  2  0  0  0
 35 45  1  0  0  0
 35 68  1  0  0  0
 36 56  1  0  0  0
 36105  1  0  0  0
 37 39  1  0  0  0
 37 47  1  0  0  0
 37 66  1  0  0  0
 37106  1  0  0  0
 38 43  2  0  0  0
 38 46  1  0  0  0
 38 47  1  0  0  0
 39 64  1  0  0  0
 39 67  2  0  0  0
 40 52  1  0  0  0
 40 53  2  0  0  0
 40 58  1  0  0  0
 41107  1  0  0  0
 41108  1  0  0  0
 41109  1  0  0  0
 41 48  1  0  0  0
 42 43  1  0  0  0
 42 66  1  0  0  0
 42110  1  0  0  0
 42111  1  0  0  0
 43 44  1  0  0  0
 44112  1  0  0  0
 45 46  2  0  0  0
 45113  1  0  0  0
 46114  1  0  0  0
 47115  1  0  0  0
 47116  1  0  0  0
 48 56  1  0  0  0
 48 65  1  0  0  0
 48117  1  0  0  0
 49 50  1  0  0  0
 49 53  1  0  0  0
 49 64  1  0  0  0
 49118  1  0  0  0
 50 51  1  0  0  0
 50119  1  0  0  0
 50120  1  0  0  0
 51 52  1  0  0  0
 51121  1  0  0  0
 51122  1  0  0  0
 52123  1  0  0  0
 52124  1  0  0  0
 53 54  1  0  0  0
 54 55  2  0  0  0
 54125  1  0  0  0
 55 57  1  0  0  0
 55126  1  0  0  0
 56 69  2  0  0  0
 57 58  2  0  0  0
 57127  1  0  0  0
 58128  1  0  0  0
 59 60  1  0  0  0
 59 61  1  0  0  0
 59 62  1  0  0  0
 60129  1  0  0  0
 60130  1  0  0  0
 60131  1  0  0  0
 61132  1  0  0  0
 61133  1  0  0  0
 61134  1  0  0  0
 62135  1  0  0  0
 62136  1  0  0  0
 62137  1  0  0  0
 63 65  1  0  0  0
 63138  1  0  0  0
 63139  1  0  0  0
 63140  1  0  0  0
 64141  1  0  0  0
 65142  1  0  0  0
 68 81  1  0  0  0
 71 72  2  0  0  0
 71 74  1  0  0  0
 71143  1  0  0  0
 72 76  1  0  0  0
 72144  1  0  0  0
 73 75  1  0  0  0
 73 76  2  0  0  0
 73145  1  0  0  0
 74 75  2  0  0  0
 74 78  1  0  0  0
 75 79  1  0  0  0
 76 83  1  0  0  0
 77 78  1  0  0  0
 77 82  1  0  0  0
 77146  1  0  0  0
 77147  1  0  0  0
 78 82  1  0  0  0
 78148  1  0  0  0
 79149  1  0  0  0
 79150  1  0  0  0
 79151  1  0  0  0
 80 81  1  0  0  0
 80 83  1  0  0  0
 80152  1  0  0  0
 80153  1  0  0  0
 81154  1  0  0  0
 81155  1  0  0  0
 83156  1  0  0  0
M  ISO  4   1 100  68 101  81 101  82 100
M  END
> <chiral flag>
0

> <version>
0

> <s_m_source_file>
/data/baiqing/PycharmProjects/Reinvent-master-3.2/result/LINK_invent/BTK/process_docking_weight1_custom_sum_contain_oxygen_bond_distance_aromatic_linkinvent_7_9_3/rearranged_h_0136.sdf

> <i_m_source_file_index>
54

> <r_mmod_Potential_Energy-OPLS-2005>
201.616989135742

> <r_mmod_Stretch_Energy-OPLS-2005>
72.1882858276367

> <r_mmod_Bend_Energy-OPLS-2005>
169.226119995117

> <r_mmod_Torsional_Energy-OPLS-2005>
313.013122558594

> <r_mmod_Improper_Torsional_Energy-OPLS-2005>
20.0075778961182

> <r_mmod_Van_der_Waal_Energy-OPLS-2005>
142.420272827148

> <r_mmod_Electrostatic_Energy-OPLS-2005>
-355.953216552734

> <r_mmod_Solvation_Energy-OPLS-2005>
-208.249435424805

> <b_mmod_Minimization_Converged-OPLS-2005>
0

> <r_mmod_RMS_Derivative-OPLS-2005>
4.64584016799927

$$$$
57
                    3D
 Structure written by MMmdl.
157165  0  0  1  0            999 V2000
  -30.6162  -14.7622   20.4443 C   0  0  0  0  0  0
  -30.4305  -12.4632   19.4821 C   0  0  0  0  0  0
  -29.5131  -12.5130   18.2401 C   0  0  0  0  0  0
  -28.0399  -12.3346   18.6511 C   0  0  0  0  0  0
  -27.6429  -13.2370   19.8501 C   0  0  2  0  0  0
  -28.6867  -13.1863   20.9887 C   0  0  0  0  0  0
  -25.2523  -13.8204   20.5699 C   0  0  0  0  0  0
  -24.1821  -13.0443   20.9199 C   0  0  0  0  0  0
  -24.6418  -11.6923   20.8738 C   0  0  0  0  0  0
  -23.9086  -10.4302   21.0394 C   0  0  0  0  0  0
  -24.3633   -9.4219   21.9177 C   0  0  0  0  0  0
  -23.6305   -8.2257   22.0752 C   0  0  0  0  0  0
  -22.4282   -8.0295   21.3549 C   0  0  0  0  0  0
  -21.9920   -9.0262   20.4647 C   0  0  0  0  0  0
  -22.7249  -10.2141   20.3049 C   0  0  0  0  0  0
  -21.6863   -6.0744   22.5274 C   0  0  0  0  0  0
  -21.4015   -6.5643   23.8207 C   0  0  0  0  0  0
  -21.3664   -5.6797   24.9171 C   0  0  0  0  0  0
  -21.6045   -4.3062   24.7220 C   0  0  0  0  0  0
  -21.8823   -3.8158   23.4341 C   0  0  0  0  0  0
  -21.9198   -4.6975   22.3395 C   0  0  0  0  0  0
  -22.7846  -13.5221   21.1862 C   0  0  0  0  0  0
  -22.1668   -4.2166   21.0974 F   0  0  0  0  0  0
  -21.5627   -3.4534   25.7732 F   0  0  0  0  0  0
  -29.9897  -13.5341   20.4087 N   0  0  0  0  0  0
  -26.2957  -12.9425   20.3282 N   0  0  0  0  0  0
  -25.9348  -11.6561   20.5741 N   0  0  0  0  0  0
  -22.0510  -12.8206   22.0428 N   0  0  0  0  0  0
  -25.4195  -15.1925   20.4109 N   0  0  0  0  0  0
  -31.7973  -14.8520   20.1000 O   0  0  0  0  0  0
  -21.6654   -6.8888   21.4235 O   0  0  0  0  0  0
  -22.3523  -14.5525   20.6716 O   0  0  0  0  0  0
  -24.6344  -31.8529   23.1993 C   0  0  0  0  0  0
  -25.9158  -32.4739   23.8343 C   0  0  1  0  0  0
  -27.2188  -27.2411   20.1292 C   0  0  0  0  0  0
  -25.5941  -33.8543   24.2260 N   0  0  0  0  0  0
  -23.4316  -30.4766   21.5434 C   0  0  2  0  0  0
  -24.8784  -28.9245   20.1096 C   0  0  0  0  0  0
  -22.7518  -29.4591   22.4925 C   0  0  0  0  0  0
  -18.0294  -28.1389   22.8485 C   0  0  0  0  0  0
  -24.1486  -36.7281   23.2643 C   0  0  0  0  0  0
  -25.9800  -30.7599   21.3824 C   0  0  0  0  0  0
  -26.0520  -29.3815   20.7216 C   0  0  0  0  0  0
  -27.2243  -28.5538   20.7201 C   0  0  0  0  0  0
  -26.0194  -26.8632   19.4804 C   0  0  0  0  0  0
  -24.8689  -27.6735   19.4777 C   0  0  0  0  0  0
  -23.6500  -29.8134   20.1587 C   0  0  0  0  0  0
  -25.4112  -36.3060   24.0327 C   0  0  1  0  0  0
  -20.5899  -28.3696   23.1270 C   0  0  2  0  0  0
  -20.6780  -26.9410   22.5413 C   0  0  0  0  0  0
  -19.5753  -26.6380   21.5220 C   0  0  0  0  0  0
  -18.1933  -26.7929   22.1630 C   0  0  0  0  0  0
  -19.1547  -28.8862   23.2869 C   0  0  0  0  0  0
  -18.9468  -30.1466   23.8881 C   0  0  0  0  0  0
  -17.6464  -30.6586   24.0561 C   0  0  0  0  0  0
  -25.9058  -34.9429   23.5097 C   0  0  0  0  0  0
  -16.5355  -29.9080   23.6335 C   0  0  0  0  0  0
  -16.7279  -28.6502   23.0351 C   0  0  0  0  0  0
  -26.4512  -31.6575   25.0747 C   0  0  0  0  0  0
  -25.3731  -31.3739   26.1471 C   0  0  0  0  0  0
  -27.0363  -30.2981   24.6265 C   0  0  0  0  0  0
  -27.6057  -32.4327   25.7523 C   0  0  0  0  0  0
  -27.5576  -37.1796   24.8462 C   0  0  0  0  0  0
  -21.4227  -29.3035   22.3661 N   0  0  0  0  0  0
  -26.4284  -37.3764   23.9413 N   0  0  0  0  0  0
  -24.7010  -31.0478   22.0980 N   0  0  0  0  0  0
  -23.4207  -28.8133   23.3034 O   0  0  0  0  0  0
  -28.2974  -26.3180   20.2067 O   0  0  0  0  0  0
  -26.5636  -34.8906   22.4668 O   0  0  0  0  0  0
  -23.5488  -32.1361   23.7276 O   0  0  0  0  0  0
  -30.1742  -24.0081   21.1497 C   0  0  0  0  0  0
  -31.0802  -22.9995   21.5339 C   0  0  0  0  0  0
  -30.8329  -21.6430   21.1783 C   0  0  0  0  0  0
  -29.0217  -23.6814   20.4229 C   0  0  0  0  0  0
  -29.6295  -21.3060   20.5035 C   0  0  0  0  0  0
  -32.3215  -23.4078   22.3118 C   0  0  0  0  0  0
  -31.9064  -20.5942   21.4634 C   0  0  0  0  0  0
  -28.0122  -24.8441   19.9879 C   0  0  0  0  0  0
  -29.4878  -18.6463   20.8873 C   0  0  0  0  0  0
  -30.1660  -17.3469   20.1775 C   0  0  0  0  0  0
  -28.7719  -22.3348   20.1280 N   0  0  0  0  0  0
  -29.3290  -19.9446   20.0997 N   0  0  0  0  0  0
  -29.8559  -15.9115   20.6342 N   0  0  0  0  0  0
  -31.4723  -12.5784   19.1808 H   0  0  0  0  0  0
  -30.3669  -11.4889   19.9693 H   0  0  0  0  0  0
  -29.7985  -11.7397   17.5258 H   0  0  0  0  0  0
  -29.6383  -13.4669   17.7249 H   0  0  0  0  0  0
  -27.8975  -11.2854   18.9123 H   0  0  0  0  0  0
  -27.3849  -12.5264   17.7990 H   0  0  0  0  0  0
  -27.6321  -14.2568   19.4642 H   0  0  0  0  0  0
  -28.7239  -12.1950   21.4432 H   0  0  0  0  0  0
  -28.4182  -13.8802   21.7872 H   0  0  0  0  0  0
  -25.2773   -9.5697   22.4750 H   0  0  0  0  0  0
  -24.0029   -7.4647   22.7458 H   0  0  0  0  0  0
  -21.0859   -8.8762   19.8943 H   0  0  0  0  0  0
  -22.3696  -10.9676   19.6163 H   0  0  0  0  0  0
  -21.1997   -7.6149   23.9712 H   0  0  0  0  0  0
  -21.1484   -6.0527   25.9073 H   0  0  0  0  0  0
  -22.0598   -2.7620   23.2832 H   0  0  0  0  0  0
  -22.4138  -11.9856   22.4792 H   0  0  0  0  0  0
  -21.1124  -13.1214   22.2615 H   0  0  0  0  0  0
  -24.6472  -15.8418   20.5103 H   0  0  0  0  0  0
  -26.2626  -15.6348   20.0675 H   0  0  0  0  0  0
  -26.7225  -32.5375   23.1088 H   0  0  0  0  0  0
  -25.0060  -33.9672   25.0386 H   0  0  0  0  0  0
  -22.7286  -31.2998   21.3990 H   0  0  0  0  0  0
  -23.3746  -35.9614   23.3294 H   0  0  0  0  0  0
  -24.3579  -36.8917   22.2061 H   0  0  0  0  0  0
  -23.7238  -37.6478   23.6675 H   0  0  0  0  0  0
  -26.1221  -31.5216   20.6149 H   0  0  0  0  0  0
  -26.8553  -30.8066   22.0179 H   0  0  0  0  0  0
  -28.1183  -28.8969   21.2214 H   0  0  0  0  0  0
  -25.9284  -25.9100   18.9827 H   0  0  0  0  0  0
  -23.9714  -27.3180   18.9902 H   0  0  0  0  0  0
  -23.7757  -30.5916   19.4051 H   0  0  0  0  0  0
  -22.7669  -29.2499   19.8528 H   0  0  0  0  0  0
  -25.1293  -36.1906   25.0819 H   0  0  0  0  0  0
  -20.9985  -28.3271   24.1398 H   0  0  0  0  0  0
  -20.5683  -26.2305   23.3621 H   0  0  0  0  0  0
  -21.6644  -26.7436   22.1201 H   0  0  0  0  0  0
  -19.6910  -25.6290   21.1253 H   0  0  0  0  0  0
  -19.6689  -27.3191   20.6751 H   0  0  0  0  0  0
  -17.4204  -26.6685   21.4029 H   0  0  0  0  0  0
  -18.0323  -26.0072   22.9025 H   0  0  0  0  0  0
  -19.7941  -30.7294   24.2233 H   0  0  0  0  0  0
  -17.5014  -31.6265   24.5167 H   0  0  0  0  0  0
  -15.5352  -30.2975   23.7670 H   0  0  0  0  0  0
  -15.8682  -28.0821   22.7067 H   0  0  0  0  0  0
  -24.5888  -30.7106   25.7810 H   0  0  0  0  0  0
  -24.8949  -32.2913   26.4909 H   0  0  0  0  0  0
  -25.8047  -30.8907   27.0244 H   0  0  0  0  0  0
  -26.2963  -29.6726   24.1259 H   0  0  0  0  0  0
  -27.3987  -29.7255   25.4814 H   0  0  0  0  0  0
  -27.8865  -30.4243   23.9559 H   0  0  0  0  0  0
  -27.2647  -33.3621   26.2100 H   0  0  0  0  0  0
  -28.3868  -32.6899   25.0356 H   0  0  0  0  0  0
  -28.0722  -31.8457   26.5447 H   0  0  0  0  0  0
  -28.2585  -38.0101   24.7510 H   0  0  0  0  0  0
  -28.1078  -36.2631   24.6277 H   0  0  0  0  0  0
  -27.2299  -37.1432   25.8867 H   0  0  0  0  0  0
  -20.9425  -29.8759   21.6858 H   0  0  0  0  0  0
  -26.0158  -38.2834   24.1419 H   0  0  0  0  0  0
  -30.3606  -25.0446   21.3985 H   0  0  0  0  0  0
  -32.2268  -24.4189   22.7086 H   0  0  0  0  0  0
  -33.2031  -23.3868   21.6708 H   0  0  0  0  0  0
  -32.4900  -22.7424   23.1590 H   0  0  0  0  0  0
  -32.9087  -21.0197   21.4613 H   0  0  0  0  0  0
  -31.9234  -19.8250   20.6924 H   0  0  0  0  0  0
  -31.7447  -20.1245   22.4330 H   0  0  0  0  0  0
  -27.0743  -24.6040   20.4903 H   0  0  0  0  0  0
  -27.8342  -24.7037   18.9216 H   0  0  0  0  0  0
  -29.9824  -18.8420   21.8374 H   0  0  0  0  0  0
  -28.4724  -18.3667   21.1682 H   0  0  0  0  0  0
  -31.2484  -17.4842   20.1813 H   0  0  0  0  0  0
  -29.8846  -17.3683   19.1238 H   0  0  0  0  0  0
  -28.5445  -19.8997   19.4579 H   0  0  0  0  0  0
  -28.9018  -15.7442   20.9191 H   0  0  0  0  0  0
  1 25  1  0  0  0
  1 30  2  0  0  0
  1 83  1  0  0  0
  2  3  1  0  0  0
  2 25  1  0  0  0
  2 84  1  0  0  0
  2 85  1  0  0  0
  3  4  1  0  0  0
  3 86  1  0  0  0
  3 87  1  0  0  0
  4  5  1  0  0  0
  4 88  1  0  0  0
  4 89  1  0  0  0
  5  6  1  0  0  0
  5 26  1  0  0  0
  5 90  1  0  0  0
  6 25  1  0  0  0
  6 91  1  0  0  0
  6 92  1  0  0  0
  7  8  2  0  0  0
  7 26  1  0  0  0
  7 29  1  0  0  0
  8  9  1  0  0  0
  8 22  1  0  0  0
  9 10  1  0  0  0
  9 27  2  0  0  0
 10 11  2  0  0  0
 10 15  1  0  0  0
 11 12  1  0  0  0
 11 93  1  0  0  0
 12 13  2  0  0  0
 12 94  1  0  0  0
 13 14  1  0  0  0
 13 31  1  0  0  0
 14 15  2  0  0  0
 14 95  1  0  0  0
 15 96  1  0  0  0
 16 17  2  0  0  0
 16 21  1  0  0  0
 16 31  1  0  0  0
 17 18  1  0  0  0
 17 97  1  0  0  0
 18 19  2  0  0  0
 18 98  1  0  0  0
 19 20  1  0  0  0
 19 24  1  0  0  0
 20 21  2  0  0  0
 20 99  1  0  0  0
 21 23  1  0  0  0
 22 28  1  0  0  0
 22 32  2  0  0  0
 26 27  1  0  0  0
 28100  1  0  0  0
 28101  1  0  0  0
 29102  1  0  0  0
 29103  1  0  0  0
 33 34  1  0  0  0
 33 66  1  0  0  0
 33 70  2  0  0  0
 34 36  1  0  0  0
 34 59  1  0  0  0
 34104  1  0  0  0
 35 44  2  0  0  0
 35 45  1  0  0  0
 35 68  1  0  0  0
 36 56  1  0  0  0
 36105  1  0  0  0
 37 39  1  0  0  0
 37 47  1  0  0  0
 37 66  1  0  0  0
 37106  1  0  0  0
 38 43  2  0  0  0
 38 46  1  0  0  0
 38 47  1  0  0  0
 39 64  1  0  0  0
 39 67  2  0  0  0
 40 52  1  0  0  0
 40 53  2  0  0  0
 40 58  1  0  0  0
 41107  1  0  0  0
 41108  1  0  0  0
 41109  1  0  0  0
 41 48  1  0  0  0
 42 43  1  0  0  0
 42 66  1  0  0  0
 42110  1  0  0  0
 42111  1  0  0  0
 43 44  1  0  0  0
 44112  1  0  0  0
 45 46  2  0  0  0
 45113  1  0  0  0
 46114  1  0  0  0
 47115  1  0  0  0
 47116  1  0  0  0
 48 56  1  0  0  0
 48 65  1  0  0  0
 48117  1  0  0  0
 49 50  1  0  0  0
 49 53  1  0  0  0
 49 64  1  0  0  0
 49118  1  0  0  0
 50 51  1  0  0  0
 50119  1  0  0  0
 50120  1  0  0  0
 51 52  1  0  0  0
 51121  1  0  0  0
 51122  1  0  0  0
 52123  1  0  0  0
 52124  1  0  0  0
 53 54  1  0  0  0
 54 55  2  0  0  0
 54125  1  0  0  0
 55 57  1  0  0  0
 55126  1  0  0  0
 56 69  2  0  0  0
 57 58  2  0  0  0
 57127  1  0  0  0
 58128  1  0  0  0
 59 60  1  0  0  0
 59 61  1  0  0  0
 59 62  1  0  0  0
 60129  1  0  0  0
 60130  1  0  0  0
 60131  1  0  0  0
 61132  1  0  0  0
 61133  1  0  0  0
 61134  1  0  0  0
 62135  1  0  0  0
 62136  1  0  0  0
 62137  1  0  0  0
 63 65  1  0  0  0
 63138  1  0  0  0
 63139  1  0  0  0
 63140  1  0  0  0
 64141  1  0  0  0
 65142  1  0  0  0
 68 78  1  0  0  0
 71 72  2  0  0  0
 71 74  1  0  0  0
 71143  1  0  0  0
 72 73  1  0  0  0
 72 76  1  0  0  0
 73 75  2  0  0  0
 73 77  1  0  0  0
 74 78  1  0  0  0
 74 81  2  0  0  0
 75 81  1  0  0  0
 75 82  1  0  0  0
 76144  1  0  0  0
 76145  1  0  0  0
 76146  1  0  0  0
 77147  1  0  0  0
 77148  1  0  0  0
 77149  1  0  0  0
 78150  1  0  0  0
 78151  1  0  0  0
 79 80  1  0  0  0
 79 82  1  0  0  0
 79152  1  0  0  0
 79153  1  0  0  0
 80 83  1  0  0  0
 80154  1  0  0  0
 80155  1  0  0  0
 82156  1  0  0  0
 83157  1  0  0  0
M  ISO  4   1 100  68 101  78 101  83 100
M  END
> <chiral flag>
0

> <version>
0

> <s_m_source_file>
/data/baiqing/PycharmProjects/Reinvent-master-3.2/result/LINK_invent/BTK/process_docking_weight1_custom_sum_contain_oxygen_bond_distance_aromatic_linkinvent_7_9_3/rearranged_h_0136.sdf

> <i_m_source_file_index>
55

> <r_mmod_Potential_Energy-OPLS-2005>
-101.578765869141

> <r_mmod_Stretch_Energy-OPLS-2005>
133.387878417969

> <r_mmod_Bend_Energy-OPLS-2005>
177.942001342773

> <r_mmod_Torsional_Energy-OPLS-2005>
215.129470825195

> <r_mmod_Improper_Torsional_Energy-OPLS-2005>
8.81041526794434

> <r_mmod_Van_der_Waal_Energy-OPLS-2005>
148.629684448242

> <r_mmod_Electrostatic_Energy-OPLS-2005>
-637.833923339844

> <r_mmod_Solvation_Energy-OPLS-2005>
-244.929794311523

> <b_mmod_Minimization_Converged-OPLS-2005>
0

> <r_mmod_RMS_Derivative-OPLS-2005>
1.35812675952911

$$$$
58
                    3D
 Structure written by MMmdl.
155164  0  0  1  0            999 V2000
  -30.5097  -15.0768   20.3906 C   0  0  0  0  0  0
  -30.4357  -12.6714   19.5201 C   0  0  0  0  0  0
  -29.5269  -12.5453   18.2738 C   0  0  0  0  0  0
  -28.0659  -12.3067   18.6951 C   0  0  0  0  0  0
  -27.6220  -13.2617   19.8321 C   0  0  2  0  0  0
  -28.6596  -13.3539   20.9714 C   0  0  0  0  0  0
  -25.2436  -13.8240   20.5740 C   0  0  0  0  0  0
  -24.1768  -13.0439   20.9243 C   0  0  0  0  0  0
  -24.6403  -11.6928   20.8767 C   0  0  0  0  0  0
  -23.9094  -10.4292   21.0415 C   0  0  0  0  0  0
  -24.3636   -9.4203   21.9193 C   0  0  0  0  0  0
  -23.6308   -8.2243   22.0761 C   0  0  0  0  0  0
  -22.4292   -8.0287   21.3547 C   0  0  0  0  0  0
  -21.9926   -9.0259   20.4647 C   0  0  0  0  0  0
  -22.7265  -10.2135   20.3060 C   0  0  0  0  0  0
  -21.6854   -6.0742   22.5280 C   0  0  0  0  0  0
  -21.4009   -6.5643   23.8212 C   0  0  0  0  0  0
  -21.3658   -5.6794   24.9171 C   0  0  0  0  0  0
  -21.6052   -4.3055   24.7227 C   0  0  0  0  0  0
  -21.8817   -3.8150   23.4340 C   0  0  0  0  0  0
  -21.9189   -4.6968   22.3392 C   0  0  0  0  0  0
  -22.7785  -13.5198   21.1888 C   0  0  0  0  0  0
  -22.1664   -4.2149   21.0973 F   0  0  0  0  0  0
  -21.5626   -3.4535   25.7733 F   0  0  0  0  0  0
  -29.9221  -13.7977   20.3654 N   0  0  0  0  0  0
  -26.2854  -12.9490   20.3231 N   0  0  0  0  0  0
  -25.9339  -11.6609   20.5744 N   0  0  0  0  0  0
  -22.0440  -12.8178   22.0437 N   0  0  0  0  0  0
  -25.4078  -15.1977   20.4168 N   0  0  0  0  0  0
  -31.7207  -15.0867   20.1357 O   0  0  0  0  0  0
  -21.6648   -6.8891   21.4245 O   0  0  0  0  0  0
  -22.3461  -14.5503   20.6744 O   0  0  0  0  0  0
  -24.6504  -31.8344   23.1803 C   0  0  0  0  0  0
  -25.9246  -32.4641   23.8217 C   0  0  1  0  0  0
  -27.2212  -27.0554   20.1668 C   0  0  0  0  0  0
  -25.5967  -33.8453   24.2131 N   0  0  0  0  0  0
  -23.4589  -30.4498   21.5267 C   0  0  2  0  0  0
  -24.9099  -28.8601   20.1113 C   0  0  0  0  0  0
  -22.7606  -29.4494   22.4829 C   0  0  0  0  0  0
  -18.0308  -28.1410   22.8489 C   0  0  0  0  0  0
  -24.1493  -36.7234   23.2650 C   0  0  0  0  0  0
  -26.0188  -30.6854   21.3890 C   0  0  0  0  0  0
  -26.0889  -29.2868   20.7337 C   0  0  0  0  0  0
  -27.2417  -28.4023   20.7408 C   0  0  0  0  0  0
  -26.0124  -26.7452   19.5075 C   0  0  0  0  0  0
  -24.8886  -27.6053   19.4815 C   0  0  0  0  0  0
  -23.6897  -29.7726   20.1485 C   0  0  0  0  0  0
  -25.4130  -36.2992   24.0301 C   0  0  1  0  0  0
  -20.5925  -28.3732   23.1235 C   0  0  2  0  0  0
  -20.6799  -26.9421   22.5422 C   0  0  0  0  0  0
  -19.5767  -26.6382   21.5245 C   0  0  0  0  0  0
  -18.1941  -26.7956   22.1626 C   0  0  0  0  0  0
  -19.1567  -28.8891   23.2850 C   0  0  0  0  0  0
  -18.9492  -30.1493   23.8863 C   0  0  0  0  0  0
  -17.6486  -30.6602   24.0565 C   0  0  0  0  0  0
  -25.9088  -34.9376   23.5021 C   0  0  0  0  0  0
  -16.5374  -29.9099   23.6346 C   0  0  0  0  0  0
  -16.7290  -28.6521   23.0359 C   0  0  0  0  0  0
  -26.4538  -31.6545   25.0693 C   0  0  0  0  0  0
  -25.3695  -31.3775   26.1372 C   0  0  0  0  0  0
  -27.0423  -30.2929   24.6339 C   0  0  0  0  0  0
  -27.6059  -32.4331   25.7483 C   0  0  0  0  0  0
  -27.5564  -37.1768   24.8466 C   0  0  0  0  0  0
  -21.4289  -29.3041   22.3593 N   0  0  0  0  0  0
  -26.4273  -37.3722   23.9409 N   0  0  0  0  0  0
  -24.7303  -31.0130   22.0867 N   0  0  0  0  0  0
  -23.4215  -28.8054   23.3012 O   0  0  0  0  0  0
  -28.2714  -26.0410   20.2440 O   0  0  0  0  0  0
  -26.5687  -34.8899   22.4607 O   0  0  0  0  0  0
  -23.5608  -32.1255   23.6973 O   0  0  0  0  0  0
  -31.1999  -18.2222   19.6687 C   0  0  0  0  0  0
  -31.5015  -19.5697   19.3743 C   0  0  0  0  0  0
  -29.1312  -19.0662   20.5411 C   0  0  0  0  0  0
  -29.9886  -17.8402   20.2781 C   0  0  0  0  0  0
  -29.4969  -20.4936   20.1865 C   0  0  0  0  0  0
  -27.2556  -23.6645   21.0571 C   0  0  0  0  0  0
  -27.4462  -22.1049   20.8080 C   0  0  0  0  0  0
  -29.2856  -23.2829   19.9923 C   0  0  0  0  0  0
  -28.1050  -24.4648   20.0348 C   0  0  2  0  0  0
  -27.8106  -18.8433   21.2522 C   0  0  0  0  0  0
  -30.7040  -20.6402   19.6119 N   0  0  0  0  0  0
  -28.8101  -21.8404   20.3336 N   0  0  0  0  0  0
  -29.7419  -16.3035   20.5316 N   0  0  0  0  0  0
  -31.4672  -12.8347   19.2050 H   0  0  0  0  0  0
  -30.4491  -11.7383   20.0848 H   0  0  0  0  0  0
  -29.8707  -11.7317   17.6330 H   0  0  0  0  0  0
  -29.5933  -13.4546   17.6753 H   0  0  0  0  0  0
  -27.9919  -11.2743   19.0385 H   0  0  0  0  0  0
  -27.3980  -12.3934   17.8365 H   0  0  0  0  0  0
  -27.5639  -14.2481   19.3716 H   0  0  0  0  0  0
  -28.7756  -12.3977   21.4826 H   0  0  0  0  0  0
  -28.3351  -14.0727   21.7251 H   0  0  0  0  0  0
  -25.2779   -9.5673   22.4765 H   0  0  0  0  0  0
  -24.0003   -7.4633   22.7483 H   0  0  0  0  0  0
  -21.0857   -8.8793   19.8955 H   0  0  0  0  0  0
  -22.3741  -10.9675   19.6169 H   0  0  0  0  0  0
  -21.2009   -7.6155   23.9719 H   0  0  0  0  0  0
  -21.1483   -6.0524   25.9078 H   0  0  0  0  0  0
  -22.0598   -2.7613   23.2838 H   0  0  0  0  0  0
  -22.4058  -11.9844   22.4824 H   0  0  0  0  0  0
  -21.1061  -13.1205   22.2651 H   0  0  0  0  0  0
  -24.6329  -15.8430   20.5209 H   0  0  0  0  0  0
  -26.2406  -15.6365   20.0463 H   0  0  0  0  0  0
  -26.7315  -32.5209   23.0949 H   0  0  0  0  0  0
  -25.0068  -33.9561   25.0243 H   0  0  0  0  0  0
  -22.7655  -31.2768   21.3647 H   0  0  0  0  0  0
  -23.3760  -35.9556   23.3293 H   0  0  0  0  0  0
  -24.3598  -36.8885   22.2070 H   0  0  0  0  0  0
  -23.7238  -37.6415   23.6720 H   0  0  0  0  0  0
  -26.1849  -31.4323   20.6113 H   0  0  0  0  0  0
  -26.8864  -30.7376   22.0348 H   0  0  0  0  0  0
  -28.1382  -28.7240   21.2520 H   0  0  0  0  0  0
  -25.9002  -25.7853   19.0296 H   0  0  0  0  0  0
  -23.9892  -27.2723   18.9831 H   0  0  0  0  0  0
  -23.8312  -30.5434   19.3894 H   0  0  0  0  0  0
  -22.8022  -29.2189   19.8371 H   0  0  0  0  0  0
  -25.1328  -36.1786   25.0789 H   0  0  0  0  0  0
  -21.0018  -28.3323   24.1352 H   0  0  0  0  0  0
  -20.5734  -26.2324   23.3650 H   0  0  0  0  0  0
  -21.6654  -26.7445   22.1185 H   0  0  0  0  0  0
  -19.6933  -25.6294   21.1267 H   0  0  0  0  0  0
  -19.6712  -27.3198   20.6780 H   0  0  0  0  0  0
  -17.4221  -26.6719   21.4022 H   0  0  0  0  0  0
  -18.0307  -26.0111   22.9027 H   0  0  0  0  0  0
  -19.7962  -30.7331   24.2202 H   0  0  0  0  0  0
  -17.5028  -31.6281   24.5178 H   0  0  0  0  0  0
  -15.5375  -30.2984   23.7711 H   0  0  0  0  0  0
  -15.8685  -28.0843   22.7082 H   0  0  0  0  0  0
  -24.5887  -30.7114   25.7695 H   0  0  0  0  0  0
  -24.8874  -32.2973   26.4696 H   0  0  0  0  0  0
  -25.7938  -30.9013   27.0213 H   0  0  0  0  0  0
  -26.3065  -29.6627   24.1334 H   0  0  0  0  0  0
  -27.4003  -29.7266   25.4945 H   0  0  0  0  0  0
  -27.8976  -30.4177   23.9695 H   0  0  0  0  0  0
  -27.2661  -33.3694   26.1941 H   0  0  0  0  0  0
  -28.3928  -32.6782   25.0333 H   0  0  0  0  0  0
  -28.0661  -31.8514   26.5488 H   0  0  0  0  0  0
  -28.2558  -38.0086   24.7502 H   0  0  0  0  0  0
  -28.1058  -36.2598   24.6281 H   0  0  0  0  0  0
  -27.2282  -37.1390   25.8870 H   0  0  0  0  0  0
  -20.9514  -29.8711   21.6732 H   0  0  0  0  0  0
  -26.0112  -38.2768   24.1435 H   0  0  0  0  0  0
  -31.9367  -17.4796   19.4026 H   0  0  0  0  0  0
  -32.4471  -19.8033   18.9065 H   0  0  0  0  0  0
  -27.6126  -23.9010   22.0591 H   0  0  0  0  0  0
  -26.2039  -23.9490   21.0267 H   0  0  0  0  0  0
  -26.7504  -21.7668   20.0386 H   0  0  0  0  0  0
  -27.2313  -21.5450   21.7170 H   0  0  0  0  0  0
  -30.0550  -23.5396   20.7201 H   0  0  0  0  0  0
  -29.7827  -23.2875   19.0220 H   0  0  0  0  0  0
  -27.6027  -24.3727   19.0722 H   0  0  0  0  0  0
  -27.6579  -17.7969   21.5148 H   0  0  0  0  0  0
  -26.9760  -19.1653   20.6293 H   0  0  0  0  0  0
  -27.7895  -19.4116   22.1821 H   0  0  0  0  0  0
  -28.7917  -16.1008   20.7960 H   0  0  0  0  0  0
  1 25  1  0  0  0
  1 30  2  0  0  0
  1 83  1  0  0  0
  2  3  1  0  0  0
  2 25  1  0  0  0
  2 84  1  0  0  0
  2 85  1  0  0  0
  3  4  1  0  0  0
  3 86  1  0  0  0
  3 87  1  0  0  0
  4  5  1  0  0  0
  4 88  1  0  0  0
  4 89  1  0  0  0
  5  6  1  0  0  0
  5 26  1  0  0  0
  5 90  1  0  0  0
  6 25  1  0  0  0
  6 91  1  0  0  0
  6 92  1  0  0  0
  7  8  2  0  0  0
  7 26  1  0  0  0
  7 29  1  0  0  0
  8  9  1  0  0  0
  8 22  1  0  0  0
  9 10  1  0  0  0
  9 27  2  0  0  0
 10 11  2  0  0  0
 10 15  1  0  0  0
 11 12  1  0  0  0
 11 93  1  0  0  0
 12 13  2  0  0  0
 12 94  1  0  0  0
 13 14  1  0  0  0
 13 31  1  0  0  0
 14 15  2  0  0  0
 14 95  1  0  0  0
 15 96  1  0  0  0
 16 17  2  0  0  0
 16 21  1  0  0  0
 16 31  1  0  0  0
 17 18  1  0  0  0
 17 97  1  0  0  0
 18 19  2  0  0  0
 18 98  1  0  0  0
 19 20  1  0  0  0
 19 24  1  0  0  0
 20 21  2  0  0  0
 20 99  1  0  0  0
 21 23  1  0  0  0
 22 28  1  0  0  0
 22 32  2  0  0  0
 26 27  1  0  0  0
 28100  1  0  0  0
 28101  1  0  0  0
 29102  1  0  0  0
 29103  1  0  0  0
 33 34  1  0  0  0
 33 66  1  0  0  0
 33 70  2  0  0  0
 34 36  1  0  0  0
 34 59  1  0  0  0
 34104  1  0  0  0
 35 44  2  0  0  0
 35 45  1  0  0  0
 35 68  1  0  0  0
 36 56  1  0  0  0
 36105  1  0  0  0
 37 39  1  0  0  0
 37 47  1  0  0  0
 37 66  1  0  0  0
 37106  1  0  0  0
 38 43  2  0  0  0
 38 46  1  0  0  0
 38 47  1  0  0  0
 39 64  1  0  0  0
 39 67  2  0  0  0
 40 52  1  0  0  0
 40 53  2  0  0  0
 40 58  1  0  0  0
 41107  1  0  0  0
 41108  1  0  0  0
 41109  1  0  0  0
 41 48  1  0  0  0
 42 43  1  0  0  0
 42 66  1  0  0  0
 42110  1  0  0  0
 42111  1  0  0  0
 43 44  1  0  0  0
 44112  1  0  0  0
 45 46  2  0  0  0
 45113  1  0  0  0
 46114  1  0  0  0
 47115  1  0  0  0
 47116  1  0  0  0
 48 56  1  0  0  0
 48 65  1  0  0  0
 48117  1  0  0  0
 49 50  1  0  0  0
 49 53  1  0  0  0
 49 64  1  0  0  0
 49118  1  0  0  0
 50 51  1  0  0  0
 50119  1  0  0  0
 50120  1  0  0  0
 51 52  1  0  0  0
 51121  1  0  0  0
 51122  1  0  0  0
 52123  1  0  0  0
 52124  1  0  0  0
 53 54  1  0  0  0
 54 55  2  0  0  0
 54125  1  0  0  0
 55 57  1  0  0  0
 55126  1  0  0  0
 56 69  2  0  0  0
 57 58  2  0  0  0
 57127  1  0  0  0
 58128  1  0  0  0
 59 60  1  0  0  0
 59 61  1  0  0  0
 59 62  1  0  0  0
 60129  1  0  0  0
 60130  1  0  0  0
 60131  1  0  0  0
 61132  1  0  0  0
 61133  1  0  0  0
 61134  1  0  0  0
 62135  1  0  0  0
 62136  1  0  0  0
 62137  1  0  0  0
 63 65  1  0  0  0
 63138  1  0  0  0
 63139  1  0  0  0
 63140  1  0  0  0
 64141  1  0  0  0
 65142  1  0  0  0
 68 79  1  0  0  0
 71 72  2  0  0  0
 71 74  1  0  0  0
 71143  1  0  0  0
 72 81  1  0  0  0
 72144  1  0  0  0
 73 74  2  0  0  0
 73 75  1  0  0  0
 73 80  1  0  0  0
 74 83  1  0  0  0
 75 81  2  0  0  0
 75 82  1  0  0  0
 76 77  1  0  0  0
 76 79  1  0  0  0
 76145  1  0  0  0
 76146  1  0  0  0
 77 82  1  0  0  0
 77147  1  0  0  0
 77148  1  0  0  0
 78 79  1  0  0  0
 78 82  1  0  0  0
 78149  1  0  0  0
 78150  1  0  0  0
 79151  1  0  0  0
 80152  1  0  0  0
 80153  1  0  0  0
 80154  1  0  0  0
 83155  1  0  0  0
M  ISO  4   1 100  68 101  79 101  83 100
M  END
> <chiral flag>
0

> <version>
0

> <s_m_source_file>
/data/baiqing/PycharmProjects/Reinvent-master-3.2/result/LINK_invent/BTK/process_docking_weight1_custom_sum_contain_oxygen_bond_distance_aromatic_linkinvent_7_9_3/rearranged_h_0136.sdf

> <i_m_source_file_index>
56

> <r_mmod_Potential_Energy-OPLS-2005>
548.842041015625

> <r_mmod_Stretch_Energy-OPLS-2005>
334.452697753906

> <r_mmod_Bend_Energy-OPLS-2005>
358.242370605469

> <r_mmod_Torsional_Energy-OPLS-2005>
246.562713623047

> <r_mmod_Improper_Torsional_Energy-OPLS-2005>
3.60816311836243

> <r_mmod_Van_der_Waal_Energy-OPLS-2005>
126.837882995605

> <r_mmod_Electrostatic_Energy-OPLS-2005>
-550.693420410156

> <r_mmod_Solvation_Energy-OPLS-2005>
-249.257522583008

> <b_mmod_Minimization_Converged-OPLS-2005>
0

> <r_mmod_RMS_Derivative-OPLS-2005>
2.2486572265625

$$$$
59
                    3D
 Structure written by MMmdl.
175184  0  0  1  0            999 V2000
  -30.6113  -14.6621   20.4893 C   0  0  0  0  0  0
  -30.4313  -12.3963   19.4796 C   0  0  0  0  0  0
  -29.5082  -12.5047   18.2437 C   0  0  0  0  0  0
  -28.0293  -12.3422   18.6495 C   0  0  0  0  0  0
  -27.6480  -13.2241   19.8677 C   0  0  2  0  0  0
  -28.6885  -13.0950   21.0044 C   0  0  0  0  0  0
  -25.2494  -13.8177   20.5701 C   0  0  0  0  0  0
  -24.1775  -13.0452   20.9189 C   0  0  0  0  0  0
  -24.6359  -11.6927   20.8754 C   0  0  0  0  0  0
  -23.9034  -10.4316   21.0411 C   0  0  0  0  0  0
  -24.3598   -9.4234   21.9185 C   0  0  0  0  0  0
  -23.6282   -8.2263   22.0765 C   0  0  0  0  0  0
  -22.4268   -8.0290   21.3564 C   0  0  0  0  0  0
  -21.9890   -9.0255   20.4663 C   0  0  0  0  0  0
  -22.7213  -10.2135   20.3062 C   0  0  0  0  0  0
  -21.6853   -6.0725   22.5291 C   0  0  0  0  0  0
  -21.4012   -6.5638   23.8215 C   0  0  0  0  0  0
  -21.3655   -5.6813   24.9190 C   0  0  0  0  0  0
  -21.6030   -4.3062   24.7264 C   0  0  0  0  0  0
  -21.8802   -3.8148   23.4383 C   0  0  0  0  0  0
  -21.9187   -4.6949   22.3426 C   0  0  0  0  0  0
  -22.7801  -13.5234   21.1859 C   0  0  0  0  0  0
  -22.1654   -4.2137   21.1007 F   0  0  0  0  0  0
  -21.5622   -3.4539   25.7773 F   0  0  0  0  0  0
  -30.0094  -13.4287   20.4513 N   0  0  0  0  0  0
  -26.2941  -12.9378   20.3345 N   0  0  0  0  0  0
  -25.9285  -11.6525   20.5787 N   0  0  0  0  0  0
  -22.0444  -12.8255   22.0422 N   0  0  0  0  0  0
  -25.4201  -15.1907   20.4122 N   0  0  0  0  0  0
  -31.7582  -14.8244   20.0665 O   0  0  0  0  0  0
  -21.6657   -6.8872   21.4256 O   0  0  0  0  0  0
  -22.3501  -14.5554   20.6725 O   0  0  0  0  0  0
  -24.6261  -31.8581   23.2018 C   0  0  0  0  0  0
  -25.9111  -32.4750   23.8350 C   0  0  1  0  0  0
  -27.2255  -27.3165   20.1081 C   0  0  0  0  0  0
  -25.5956  -33.8555   24.2276 N   0  0  0  0  0  0
  -23.4174  -30.4826   21.5427 C   0  0  2  0  0  0
  -24.8651  -28.9372   20.1109 C   0  0  0  0  0  0
  -22.7458  -29.4610   22.4914 C   0  0  0  0  0  0
  -18.0284  -28.1373   22.8479 C   0  0  0  0  0  0
  -24.1496  -36.7277   23.2630 C   0  0  0  0  0  0
  -25.9590  -30.7877   21.3720 C   0  0  0  0  0  0
  -26.0331  -29.4147   20.7150 C   0  0  0  0  0  0
  -27.2115  -28.6125   20.7109 C   0  0  0  0  0  0
  -26.0240  -26.8806   19.5028 C   0  0  0  0  0  0
  -24.8618  -27.6734   19.5007 C   0  0  0  0  0  0
  -23.6341  -29.8180   20.1572 C   0  0  0  0  0  0
  -25.4109  -36.3032   24.0314 C   0  0  1  0  0  0
  -20.5880  -28.3665   23.1269 C   0  0  2  0  0  0
  -20.6770  -26.9383   22.5392 C   0  0  0  0  0  0
  -19.5747  -26.6369   21.5191 C   0  0  0  0  0  0
  -18.1930  -26.7916   22.1607 C   0  0  0  0  0  0
  -19.1537  -28.8840   23.2876 C   0  0  0  0  0  0
  -18.9470  -30.1451   23.8877 C   0  0  0  0  0  0
  -17.6470  -30.6571   24.0562 C   0  0  0  0  0  0
  -25.9063  -34.9418   23.5086 C   0  0  0  0  0  0
  -16.5362  -29.9058   23.6337 C   0  0  0  0  0  0
  -16.7274  -28.6482   23.0340 C   0  0  0  0  0  0
  -26.4506  -31.6565   25.0726 C   0  0  0  0  0  0
  -25.3756  -31.3697   26.1474 C   0  0  0  0  0  0
  -27.0346  -30.2986   24.6182 C   0  0  0  0  0  0
  -27.6093  -32.4286   25.7486 C   0  0  0  0  0  0
  -27.5578  -37.1773   24.8444 C   0  0  0  0  0  0
  -21.4167  -29.3038   22.3678 N   0  0  0  0  0  0
  -26.4265  -37.3753   23.9429 N   0  0  0  0  0  0
  -24.6862  -31.0599   22.0959 N   0  0  0  0  0  0
  -23.4195  -28.8129   23.2976 O   0  0  0  0  0  0
  -28.3596  -26.4921   20.1829 O   0  0  0  0  0  0
  -26.5608  -34.8879   22.4640 O   0  0  0  0  0  0
  -23.5428  -32.1388   23.7340 O   0  0  0  0  0  0
  -27.9461  -21.7995   21.0598 C   0  0  0  0  0  0
  -30.0993  -21.7442   20.0032 C   0  0  0  0  0  0
  -27.7758  -23.1684   20.6877 C   0  0  0  0  0  0
  -29.9240  -23.1103   19.6186 C   0  0  0  0  0  0
  -29.1043  -21.0369   20.7288 C   0  0  0  0  0  0
  -28.7613  -23.8657   19.9450 C   0  0  0  0  0  0
  -31.3925  -18.3402   21.3544 C   0  0  0  0  0  0
  -30.8512  -18.5722   22.7574 C   0  0  0  0  0  0
  -29.2498  -19.5433   21.2438 C   0  0  1  0  0  0
  -30.1536  -18.4626   20.4747 C   0  0  2  0  0  0
  -29.6846  -16.8154   18.5374 C   0  0  0  0  0  0
  -29.7790  -21.0669   25.4890 C   0  0  0  0  0  0
  -28.2739  -19.1609   26.1691 C   0  0  0  0  0  0
  -28.5262  -25.2994   19.3317 C   0  0  0  0  0  0
  -28.7457  -19.5224   23.6989 C   0  0  0  0  0  0
  -29.5275  -17.0324   20.0557 C   0  0  1  0  0  0
  -29.3079  -19.6419   25.1419 C   0  0  0  0  0  0
  -29.7990  -15.7304   20.8021 N   0  0  0  0  0  0
  -29.7843  -19.5909   22.6337 N   0  3  1  0  0  0
  -31.4743  -12.5090   19.1832 H   0  0  0  0  0  0
  -30.3579  -11.4033   19.9269 H   0  0  0  0  0  0
  -29.7792  -11.7493   17.5065 H   0  0  0  0  0  0
  -29.6536  -13.4711   17.7598 H   0  0  0  0  0  0
  -27.8698  -11.2902   18.8920 H   0  0  0  0  0  0
  -27.3767  -12.5602   17.8031 H   0  0  0  0  0  0
  -27.6616  -14.2558   19.5161 H   0  0  0  0  0  0
  -28.6915  -12.0795   21.4005 H   0  0  0  0  0  0
  -28.4320  -13.7411   21.8448 H   0  0  0  0  0  0
  -25.2735   -9.5730   22.4771 H   0  0  0  0  0  0
  -23.9975   -7.4664   22.7500 H   0  0  0  0  0  0
  -21.0811   -8.8784   19.8990 H   0  0  0  0  0  0
  -22.3662  -10.9661   19.6182 H   0  0  0  0  0  0
  -21.1999   -7.6143   23.9705 H   0  0  0  0  0  0
  -21.1475   -6.0563   25.9088 H   0  0  0  0  0  0
  -22.0572   -2.7603   23.2925 H   0  0  0  0  0  0
  -22.4044  -11.9905   22.4819 H   0  0  0  0  0  0
  -21.1062  -13.1289   22.2610 H   0  0  0  0  0  0
  -24.6504  -15.8449   20.5073 H   0  0  0  0  0  0
  -26.2723  -15.6266   20.0860 H   0  0  0  0  0  0
  -26.7174  -32.5414   23.1097 H   0  0  0  0  0  0
  -25.0149  -33.9733   25.0443 H   0  0  0  0  0  0
  -22.7107  -31.3017   21.3960 H   0  0  0  0  0  0
  -23.3744  -35.9624   23.3239 H   0  0  0  0  0  0
  -24.3601  -36.8968   22.2059 H   0  0  0  0  0  0
  -23.7278  -37.6472   23.6700 H   0  0  0  0  0  0
  -26.0895  -31.5496   20.6021 H   0  0  0  0  0  0
  -26.8395  -30.8392   22.0002 H   0  0  0  0  0  0
  -28.1050  -28.9748   21.2015 H   0  0  0  0  0  0
  -25.9248  -25.9021   19.0628 H   0  0  0  0  0  0
  -23.9575  -27.2932   19.0453 H   0  0  0  0  0  0
  -23.7580  -30.5954   19.4025 H   0  0  0  0  0  0
  -22.7543  -29.2498   19.8497 H   0  0  0  0  0  0
  -25.1286  -36.1857   25.0806 H   0  0  0  0  0  0
  -21.0001  -28.3231   24.1374 H   0  0  0  0  0  0
  -20.5645  -26.2269   23.3580 H   0  0  0  0  0  0
  -21.6639  -26.7389   22.1191 H   0  0  0  0  0  0
  -19.6908  -25.6276   21.1218 H   0  0  0  0  0  0
  -19.6701  -27.3178   20.6715 H   0  0  0  0  0  0
  -17.4198  -26.6660   21.4016 H   0  0  0  0  0  0
  -18.0345  -26.0048   22.8994 H   0  0  0  0  0  0
  -19.7959  -30.7285   24.2214 H   0  0  0  0  0  0
  -17.5022  -31.6257   24.5162 H   0  0  0  0  0  0
  -15.5358  -30.2960   23.7677 H   0  0  0  0  0  0
  -15.8667  -28.0810   22.7039 H   0  0  0  0  0  0
  -24.5970  -30.6986   25.7835 H   0  0  0  0  0  0
  -24.8896  -32.2849   26.4873 H   0  0  0  0  0  0
  -25.8120  -30.8935   27.0267 H   0  0  0  0  0  0
  -26.2914  -29.6728   24.1234 H   0  0  0  0  0  0
  -27.4077  -29.7261   25.4690 H   0  0  0  0  0  0
  -27.8764  -30.4260   23.9369 H   0  0  0  0  0  0
  -27.2754  -33.3624   26.2019 H   0  0  0  0  0  0
  -28.3934  -32.6782   25.0322 H   0  0  0  0  0  0
  -28.0715  -31.8421   26.5442 H   0  0  0  0  0  0
  -28.2509  -38.0142   24.7566 H   0  0  0  0  0  0
  -28.1155  -36.2687   24.6152 H   0  0  0  0  0  0
  -27.2317  -37.1279   25.8843 H   0  0  0  0  0  0
  -20.9321  -29.8820   21.6948 H   0  0  0  0  0  0
  -26.0109  -38.2801   24.1509 H   0  0  0  0  0  0
  -27.1480  -21.3296   21.6162 H   0  0  0  0  0  0
  -31.0142  -21.2428   19.7209 H   0  0  0  0  0  0
  -26.8572  -23.6755   20.9507 H   0  0  0  0  0  0
  -30.6989  -23.5821   19.0316 H   0  0  0  0  0  0
  -31.9211  -17.3921   21.2450 H   0  0  0  0  0  0
  -32.0979  -19.1352   21.1022 H   0  0  0  0  0  0
  -31.6360  -18.8918   23.4435 H   0  0  0  0  0  0
  -30.4332  -17.6389   23.1402 H   0  0  0  0  0  0
  -28.2346  -19.1458   21.2676 H   0  0  0  0  0  0
  -30.4701  -18.9373   19.5473 H   0  0  0  0  0  0
  -29.2945  -17.6657   17.9756 H   0  0  0  0  0  0
  -29.1406  -15.9343   18.1984 H   0  0  0  0  0  0
  -30.7309  -16.6922   18.2573 H   0  0  0  0  0  0
  -30.2758  -21.0847   26.4607 H   0  0  0  0  0  0
  -28.9370  -21.7576   25.5470 H   0  0  0  0  0  0
  -30.4861  -21.4623   24.7598 H   0  0  0  0  0  0
  -28.6897  -19.1552   27.1775 H   0  0  0  0  0  0
  -27.9403  -18.1450   25.9487 H   0  0  0  0  0  0
  -27.3942  -19.8039   26.1761 H   0  0  0  0  0  0
  -27.7636  -25.2015   18.5648 H   0  0  0  0  0  0
  -29.4155  -25.5274   18.7448 H   0  0  0  0  0  0
  -28.0027  -20.3049   23.5418 H   0  0  0  0  0  0
  -28.2081  -18.5769   23.5874 H   0  0  0  0  0  0
  -28.4531  -17.1516   20.1914 H   0  0  0  0  0  0
  -30.1636  -18.9757   25.2497 H   0  0  0  0  0  0
  -28.9918  -15.4173   21.3244 H   0  0  0  0  0  0
  -30.2375  -20.4915   22.7070 H   0  0  0  0  0  0
  1 25  1  0  0  0
  1 30  2  0  0  0
  1 88  1  0  0  0
  2  3  1  0  0  0
  2 25  1  0  0  0
  2 90  1  0  0  0
  2 91  1  0  0  0
  3  4  1  0  0  0
  3 92  1  0  0  0
  3 93  1  0  0  0
  4  5  1  0  0  0
  4 94  1  0  0  0
  4 95  1  0  0  0
  5  6  1  0  0  0
  5 26  1  0  0  0
  5 96  1  0  0  0
  6 25  1  0  0  0
  6 97  1  0  0  0
  6 98  1  0  0  0
  7  8  2  0  0  0
  7 26  1  0  0  0
  7 29  1  0  0  0
  8  9  1  0  0  0
  8 22  1  0  0  0
  9 10  1  0  0  0
  9 27  2  0  0  0
 10 11  2  0  0  0
 10 15  1  0  0  0
 11 12  1  0  0  0
 11 99  1  0  0  0
 12 13  2  0  0  0
 12100  1  0  0  0
 13 14  1  0  0  0
 13 31  1  0  0  0
 14 15  2  0  0  0
 14101  1  0  0  0
 15102  1  0  0  0
 16 17  2  0  0  0
 16 21  1  0  0  0
 16 31  1  0  0  0
 17 18  1  0  0  0
 17103  1  0  0  0
 18 19  2  0  0  0
 18104  1  0  0  0
 19 20  1  0  0  0
 19 24  1  0  0  0
 20 21  2  0  0  0
 20105  1  0  0  0
 21 23  1  0  0  0
 22 28  1  0  0  0
 22 32  2  0  0  0
 26 27  1  0  0  0
 28106  1  0  0  0
 28107  1  0  0  0
 29108  1  0  0  0
 29109  1  0  0  0
 33 34  1  0  0  0
 33 66  1  0  0  0
 33 70  2  0  0  0
 34 36  1  0  0  0
 34 59  1  0  0  0
 34110  1  0  0  0
 35 44  2  0  0  0
 35 45  1  0  0  0
 35 68  1  0  0  0
 36 56  1  0  0  0
 36111  1  0  0  0
 37 39  1  0  0  0
 37 47  1  0  0  0
 37 66  1  0  0  0
 37112  1  0  0  0
 38 43  2  0  0  0
 38 46  1  0  0  0
 38 47  1  0  0  0
 39 64  1  0  0  0
 39 67  2  0  0  0
 40 52  1  0  0  0
 40 53  2  0  0  0
 40 58  1  0  0  0
 41113  1  0  0  0
 41114  1  0  0  0
 41115  1  0  0  0
 41 48  1  0  0  0
 42 43  1  0  0  0
 42 66  1  0  0  0
 42116  1  0  0  0
 42117  1  0  0  0
 43 44  1  0  0  0
 44118  1  0  0  0
 45 46  2  0  0  0
 45119  1  0  0  0
 46120  1  0  0  0
 47121  1  0  0  0
 47122  1  0  0  0
 48 56  1  0  0  0
 48 65  1  0  0  0
 48123  1  0  0  0
 49 50  1  0  0  0
 49 53  1  0  0  0
 49 64  1  0  0  0
 49124  1  0  0  0
 50 51  1  0  0  0
 50125  1  0  0  0
 50126  1  0  0  0
 51 52  1  0  0  0
 51127  1  0  0  0
 51128  1  0  0  0
 52129  1  0  0  0
 52130  1  0  0  0
 53 54  1  0  0  0
 54 55  2  0  0  0
 54131  1  0  0  0
 55 57  1  0  0  0
 55132  1  0  0  0
 56 69  2  0  0  0
 57 58  2  0  0  0
 57133  1  0  0  0
 58134  1  0  0  0
 59 60  1  0  0  0
 59 61  1  0  0  0
 59 62  1  0  0  0
 60135  1  0  0  0
 60136  1  0  0  0
 60137  1  0  0  0
 61138  1  0  0  0
 61139  1  0  0  0
 61140  1  0  0  0
 62141  1  0  0  0
 62142  1  0  0  0
 62143  1  0  0  0
 63 65  1  0  0  0
 63144  1  0  0  0
 63145  1  0  0  0
 63146  1  0  0  0
 64147  1  0  0  0
 65148  1  0  0  0
 68 84  1  0  0  0
 71 73  2  0  0  0
 71 75  1  0  0  0
 71149  1  0  0  0
 72 74  1  0  0  0
 72 75  2  0  0  0
 72150  1  0  0  0
 73 76  1  0  0  0
 73151  1  0  0  0
 74 76  2  0  0  0
 74152  1  0  0  0
 75 79  1  0  0  0
 76 84  1  0  0  0
 77 78  1  0  0  0
 77153  1  0  0  0
 77154  1  0  0  0
 77 80  1  0  0  0
 78 89  1  0  0  0
 78155  1  0  0  0
 78156  1  0  0  0
 79 80  1  0  0  0
 79 89  1  0  0  0
 79157  1  0  0  0
 80 86  1  0  0  0
 80158  1  0  0  0
 81159  1  0  0  0
 81160  1  0  0  0
 81161  1  0  0  0
 81 86  1  0  0  0
 82162  1  0  0  0
 82163  1  0  0  0
 82164  1  0  0  0
 82 87  1  0  0  0
 83 87  1  0  0  0
 83165  1  0  0  0
 83166  1  0  0  0
 83167  1  0  0  0
 84168  1  0  0  0
 84169  1  0  0  0
 85 87  1  0  0  0
 85170  1  0  0  0
 85171  1  0  0  0
 85 89  1  0  0  0
 86 88  1  0  0  0
 86172  1  0  0  0
 87173  1  0  0  0
 88174  1  0  0  0
 89175  1  0  0  0
M  CHG  1  89   1
M  ISO  4   1 100  68 101  84 101  88 100
M  END
> <chiral flag>
0

> <version>
0

> <s_m_source_file>
/data/baiqing/PycharmProjects/Reinvent-master-3.2/result/LINK_invent/BTK/process_docking_weight1_custom_sum_contain_oxygen_bond_distance_aromatic_linkinvent_7_9_3/rearranged_h_0136.sdf

> <i_m_source_file_index>
57

> <r_mmod_Potential_Energy-OPLS-2005>
148.192947387695

> <r_mmod_Stretch_Energy-OPLS-2005>
94.0511932373047

> <r_mmod_Bend_Energy-OPLS-2005>
197.565856933594

> <r_mmod_Torsional_Energy-OPLS-2005>
325.678863525391

> <r_mmod_Improper_Torsional_Energy-OPLS-2005>
8.82357788085938

> <r_mmod_Van_der_Waal_Energy-OPLS-2005>
131.291809082031

> <r_mmod_Electrostatic_Energy-OPLS-2005>
-230.420211791992

> <r_mmod_Solvation_Energy-OPLS-2005>
-431.882873535156

> <b_mmod_Minimization_Converged-OPLS-2005>
0

> <r_mmod_RMS_Derivative-OPLS-2005>
3.52887201309204

$$$$
60
                    3D
 Structure written by MMmdl.
155163  0  0  1  0            999 V2000
  -30.5821  -14.7544   20.4647 C   0  0  0  0  0  0
  -30.4529  -12.4734   19.4318 C   0  0  0  0  0  0
  -29.5023  -12.5049   18.2124 C   0  0  0  0  0  0
  -28.0332  -12.3183   18.6482 C   0  0  0  0  0  0
  -27.6440  -13.2189   19.8475 C   0  0  2  0  0  0
  -28.7040  -13.1381   20.9622 C   0  0  0  0  0  0
  -25.2612  -13.8219   20.5804 C   0  0  0  0  0  0
  -24.1841  -13.0464   20.9224 C   0  0  0  0  0  0
  -24.6396  -11.6932   20.8788 C   0  0  0  0  0  0
  -23.9043  -10.4317   21.0443 C   0  0  0  0  0  0
  -24.3606   -9.4246   21.9233 C   0  0  0  0  0  0
  -23.6320   -8.2248   22.0775 C   0  0  0  0  0  0
  -22.4299   -8.0281   21.3543 C   0  0  0  0  0  0
  -21.9911   -9.0253   20.4652 C   0  0  0  0  0  0
  -22.7212  -10.2157   20.3103 C   0  0  0  0  0  0
  -21.6872   -6.0740   22.5275 C   0  0  0  0  0  0
  -21.4010   -6.5665   23.8212 C   0  0  0  0  0  0
  -21.3648   -5.6803   24.9161 C   0  0  0  0  0  0
  -21.6048   -4.3063   24.7218 C   0  0  0  0  0  0
  -21.8853   -3.8162   23.4339 C   0  0  0  0  0  0
  -21.9202   -4.6974   22.3386 C   0  0  0  0  0  0
  -22.7866  -13.5309   21.1801 C   0  0  0  0  0  0
  -22.1703   -4.2166   21.0975 F   0  0  0  0  0  0
  -21.5600   -3.4550   25.7713 F   0  0  0  0  0  0
  -29.9891  -13.5180   20.3693 N   0  0  0  0  0  0
  -26.2986  -12.9356   20.3351 N   0  0  0  0  0  0
  -25.9319  -11.6508   20.5800 N   0  0  0  0  0  0
  -22.0478  -12.8309   22.0324 N   0  0  0  0  0  0
  -25.4342  -15.1932   20.4394 N   0  0  0  0  0  0
  -31.7882  -14.8820   20.2320 O   0  0  0  0  0  0
  -21.6672   -6.8868   21.4231 O   0  0  0  0  0  0
  -22.3561  -14.5589   20.6638 O   0  0  0  0  0  0
  -24.6338  -31.8571   23.1986 C   0  0  0  0  0  0
  -25.9172  -32.4755   23.8343 C   0  0  1  0  0  0
  -27.2265  -27.2624   20.1255 C   0  0  0  0  0  0
  -25.5984  -33.8563   24.2309 N   0  0  0  0  0  0
  -23.4323  -30.4734   21.5467 C   0  0  2  0  0  0
  -24.8800  -28.9257   20.1170 C   0  0  0  0  0  0
  -22.7565  -29.4581   22.4980 C   0  0  0  0  0  0
  -18.0322  -28.1382   22.8497 C   0  0  0  0  0  0
  -24.1536  -36.7252   23.2618 C   0  0  0  0  0  0
  -25.9794  -30.7679   21.3817 C   0  0  0  0  0  0
  -26.0540  -29.3913   20.7223 C   0  0  0  0  0  0
  -27.2309  -28.5724   20.7149 C   0  0  0  0  0  0
  -26.0237  -26.8707   19.4917 C   0  0  0  0  0  0
  -24.8711  -27.6754   19.4881 C   0  0  0  0  0  0
  -23.6507  -29.8086   20.1633 C   0  0  0  0  0  0
  -25.4148  -36.3066   24.0344 C   0  0  1  0  0  0
  -20.5932  -28.3701   23.1303 C   0  0  2  0  0  0
  -20.6841  -26.9423   22.5416 C   0  0  0  0  0  0
  -19.5799  -26.6395   21.5245 C   0  0  0  0  0  0
  -18.1969  -26.7946   22.1621 C   0  0  0  0  0  0
  -19.1559  -28.8864   23.2892 C   0  0  0  0  0  0
  -18.9444  -30.1491   23.8871 C   0  0  0  0  0  0
  -17.6431  -30.6582   24.0544 C   0  0  0  0  0  0
  -25.9076  -34.9438   23.5131 C   0  0  0  0  0  0
  -16.5349  -29.9043   23.6329 C   0  0  0  0  0  0
  -16.7305  -28.6480   23.0346 C   0  0  0  0  0  0
  -26.4533  -31.6496   25.0690 C   0  0  0  0  0  0
  -25.3757  -31.3550   26.1394 C   0  0  0  0  0  0
  -27.0340  -30.2927   24.6105 C   0  0  0  0  0  0
  -27.6164  -32.4154   25.7407 C   0  0  0  0  0  0
  -27.5631  -37.1785   24.8474 C   0  0  0  0  0  0
  -21.4280  -29.3031   22.3710 N   0  0  0  0  0  0
  -26.4331  -37.3764   23.9416 N   0  0  0  0  0  0
  -24.7007  -31.0488   22.0978 N   0  0  0  0  0  0
  -23.4242  -28.8124   23.3085 O   0  0  0  0  0  0
  -28.3218  -26.3637   20.1706 O   0  0  0  0  0  0
  -26.5607  -34.8915   22.4678 O   0  0  0  0  0  0
  -23.5485  -32.1390   23.7260 O   0  0  0  0  0  0
  -29.4647  -18.5574   23.0835 C   0  0  0  0  0  0
  -29.3795  -19.7544   22.3498 C   0  0  0  0  0  0
  -29.6446  -18.4481   20.3264 C   0  0  0  0  0  0
  -29.6242  -17.2903   22.4852 C   0  0  0  0  0  0
  -29.7436  -17.1893   21.0665 C   0  0  0  0  0  0
  -29.4667  -19.7620   20.9423 C   0  0  0  0  0  0
  -29.5727  -16.0871   23.4283 C   0  0  0  0  0  0
  -29.1498  -23.7161   20.2429 C   0  0  0  0  0  0
  -28.0338  -24.8839   20.1662 C   0  0  0  0  0  0
  -28.6852  -22.2193   20.6607 C   0  0  0  0  0  0
  -29.7244  -15.8462   20.4262 N   0  0  0  0  0  0
  -30.8031  -15.3917   23.5413 O   0  0  0  0  0  0
  -29.4440  -21.0009   20.2213 O   0  0  0  0  0  0
  -31.4815  -12.6409   19.1060 H   0  0  0  0  0  0
  -30.4529  -11.4959   19.9114 H   0  0  0  0  0  0
  -29.7773  -11.7340   17.4906 H   0  0  0  0  0  0
  -29.6112  -13.4566   17.6933 H   0  0  0  0  0  0
  -27.8978  -11.2727   18.9303 H   0  0  0  0  0  0
  -27.3631  -12.5072   17.8091 H   0  0  0  0  0  0
  -27.6362  -14.2414   19.4702 H   0  0  0  0  0  0
  -28.7566  -12.1321   21.3789 H   0  0  0  0  0  0
  -28.4381  -13.7947   21.7891 H   0  0  0  0  0  0
  -25.2727   -9.5776   22.4833 H   0  0  0  0  0  0
  -24.0093   -7.4636   22.7475 H   0  0  0  0  0  0
  -21.0868   -8.8772   19.8884 H   0  0  0  0  0  0
  -22.3686  -10.9744   19.6254 H   0  0  0  0  0  0
  -21.2042   -7.6165   23.9740 H   0  0  0  0  0  0
  -21.1403   -6.0512   25.9076 H   0  0  0  0  0  0
  -22.0635   -2.7614   23.2850 H   0  0  0  0  0  0
  -22.4121  -12.0024   22.4804 H   0  0  0  0  0  0
  -21.1090  -13.1324   22.2428 H   0  0  0  0  0  0
  -24.6775  -15.8533   20.5952 H   0  0  0  0  0  0
  -26.2958  -15.6445   20.1723 H   0  0  0  0  0  0
  -26.7238  -32.5411   23.1072 H   0  0  0  0  0  0
  -25.0245  -33.9698   25.0536 H   0  0  0  0  0  0
  -22.7296  -31.2947   21.4011 H   0  0  0  0  0  0
  -23.3843  -35.9532   23.3234 H   0  0  0  0  0  0
  -24.3645  -36.8910   22.2037 H   0  0  0  0  0  0
  -23.7245  -37.6441   23.6635 H   0  0  0  0  0  0
  -26.1276  -31.5348   20.6190 H   0  0  0  0  0  0
  -26.8529  -30.8072   22.0199 H   0  0  0  0  0  0
  -28.1313  -28.9206   21.2029 H   0  0  0  0  0  0
  -25.9312  -25.9206   18.9909 H   0  0  0  0  0  0
  -23.9769  -27.3145   18.9977 H   0  0  0  0  0  0
  -23.7758  -30.5855   19.4092 H   0  0  0  0  0  0
  -22.7714  -29.2419   19.8556 H   0  0  0  0  0  0
  -25.1331  -36.1924   25.0838 H   0  0  0  0  0  0
  -20.9999  -28.3253   24.1444 H   0  0  0  0  0  0
  -20.5857  -26.2269   23.3600 H   0  0  0  0  0  0
  -21.6694  -26.7535   22.1131 H   0  0  0  0  0  0
  -19.6961  -25.6318   21.1262 H   0  0  0  0  0  0
  -19.6737  -27.3225   20.6794 H   0  0  0  0  0  0
  -17.4278  -26.6783   21.3975 H   0  0  0  0  0  0
  -18.0285  -26.0065   22.8974 H   0  0  0  0  0  0
  -19.7904  -30.7366   24.2203 H   0  0  0  0  0  0
  -17.4944  -31.6249   24.5145 H   0  0  0  0  0  0
  -15.5334  -30.2886   23.7665 H   0  0  0  0  0  0
  -15.8744  -28.0773   22.7027 H   0  0  0  0  0  0
  -24.6070  -30.6763   25.7672 H   0  0  0  0  0  0
  -24.8746  -32.2630   26.4757 H   0  0  0  0  0  0
  -25.8095  -30.8786   27.0197 H   0  0  0  0  0  0
  -26.2862  -29.6664   24.1236 H   0  0  0  0  0  0
  -27.4174  -29.7193   25.4545 H   0  0  0  0  0  0
  -27.8698  -30.4210   23.9231 H   0  0  0  0  0  0
  -27.2950  -33.3539   26.1921 H   0  0  0  0  0  0
  -28.3983  -32.6541   25.0181 H   0  0  0  0  0  0
  -28.0813  -31.8264   26.5323 H   0  0  0  0  0  0
  -28.2618  -38.0118   24.7599 H   0  0  0  0  0  0
  -28.1193  -36.2664   24.6237 H   0  0  0  0  0  0
  -27.2359  -37.1360   25.8882 H   0  0  0  0  0  0
  -20.9492  -29.8650   21.6831 H   0  0  0  0  0  0
  -26.0237  -38.2863   24.1391 H   0  0  0  0  0  0
  -29.3625  -18.6264   24.1572 H   0  0  0  0  0  0
  -29.2571  -20.6619   22.9192 H   0  0  0  0  0  0
  -29.6885  -18.4031   19.2468 H   0  0  0  0  0  0
  -28.7682  -15.4136   23.1304 H   0  0  0  0  0  0
  -29.3053  -16.4135   24.4376 H   0  0  0  0  0  0
  -29.9471  -24.0315   20.9176 H   0  0  0  0  0  0
  -29.6318  -23.6603   19.2681 H   0  0  0  0  0  0
  -27.3149  -24.6976   20.9677 H   0  0  0  0  0  0
  -27.5203  -24.6572   19.2327 H   0  0  0  0  0  0
  -27.6839  -22.0829   20.2517 H   0  0  0  0  0  0
  -28.5518  -22.2362   21.7399 H   0  0  0  0  0  0
  -28.8071  -15.5744   20.1095 H   0  0  0  0  0  0
  -30.7142  -14.7447   24.2352 H   0  0  0  0  0  0
  1 25  1  0  0  0
  1 30  2  0  0  0
  1 81  1  0  0  0
  2  3  1  0  0  0
  2 25  1  0  0  0
  2 84  1  0  0  0
  2 85  1  0  0  0
  3  4  1  0  0  0
  3 86  1  0  0  0
  3 87  1  0  0  0
  4  5  1  0  0  0
  4 88  1  0  0  0
  4 89  1  0  0  0
  5  6  1  0  0  0
  5 26  1  0  0  0
  5 90  1  0  0  0
  6 25  1  0  0  0
  6 91  1  0  0  0
  6 92  1  0  0  0
  7  8  2  0  0  0
  7 26  1  0  0  0
  7 29  1  0  0  0
  8  9  1  0  0  0
  8 22  1  0  0  0
  9 10  1  0  0  0
  9 27  2  0  0  0
 10 11  2  0  0  0
 10 15  1  0  0  0
 11 12  1  0  0  0
 11 93  1  0  0  0
 12 13  2  0  0  0
 12 94  1  0  0  0
 13 14  1  0  0  0
 13 31  1  0  0  0
 14 15  2  0  0  0
 14 95  1  0  0  0
 15 96  1  0  0  0
 16 17  2  0  0  0
 16 21  1  0  0  0
 16 31  1  0  0  0
 17 18  1  0  0  0
 17 97  1  0  0  0
 18 19  2  0  0  0
 18 98  1  0  0  0
 19 20  1  0  0  0
 19 24  1  0  0  0
 20 21  2  0  0  0
 20 99  1  0  0  0
 21 23  1  0  0  0
 22 28  1  0  0  0
 22 32  2  0  0  0
 26 27  1  0  0  0
 28100  1  0  0  0
 28101  1  0  0  0
 29102  1  0  0  0
 29103  1  0  0  0
 33 34  1  0  0  0
 33 66  1  0  0  0
 33 70  2  0  0  0
 34 36  1  0  0  0
 34 59  1  0  0  0
 34104  1  0  0  0
 35 44  2  0  0  0
 35 45  1  0  0  0
 35 68  1  0  0  0
 36 56  1  0  0  0
 36105  1  0  0  0
 37 39  1  0  0  0
 37 47  1  0  0  0
 37 66  1  0  0  0
 37106  1  0  0  0
 38 43  2  0  0  0
 38 46  1  0  0  0
 38 47  1  0  0  0
 39 64  1  0  0  0
 39 67  2  0  0  0
 40 52  1  0  0  0
 40 53  2  0  0  0
 40 58  1  0  0  0
 41107  1  0  0  0
 41108  1  0  0  0
 41109  1  0  0  0
 41 48  1  0  0  0
 42 43  1  0  0  0
 42 66  1  0  0  0
 42110  1  0  0  0
 42111  1  0  0  0
 43 44  1  0  0  0
 44112  1  0  0  0
 45 46  2  0  0  0
 45113  1  0  0  0
 46114  1  0  0  0
 47115  1  0  0  0
 47116  1  0  0  0
 48 56  1  0  0  0
 48 65  1  0  0  0
 48117  1  0  0  0
 49 50  1  0  0  0
 49 53  1  0  0  0
 49 64  1  0  0  0
 49118  1  0  0  0
 50 51  1  0  0  0
 50119  1  0  0  0
 50120  1  0  0  0
 51 52  1  0  0  0
 51121  1  0  0  0
 51122  1  0  0  0
 52123  1  0  0  0
 52124  1  0  0  0
 53 54  1  0  0  0
 54 55  2  0  0  0
 54125  1  0  0  0
 55 57  1  0  0  0
 55126  1  0  0  0
 56 69  2  0  0  0
 57 58  2  0  0  0
 57127  1  0  0  0
 58128  1  0  0  0
 59 60  1  0  0  0
 59 61  1  0  0  0
 59 62  1  0  0  0
 60129  1  0  0  0
 60130  1  0  0  0
 60131  1  0  0  0
 61132  1  0  0  0
 61133  1  0  0  0
 61134  1  0  0  0
 62135  1  0  0  0
 62136  1  0  0  0
 62137  1  0  0  0
 63 65  1  0  0  0
 63138  1  0  0  0
 63139  1  0  0  0
 63140  1  0  0  0
 64141  1  0  0  0
 65142  1  0  0  0
 68 79  1  0  0  0
 71 72  2  0  0  0
 71 74  1  0  0  0
 71143  1  0  0  0
 72 76  1  0  0  0
 72144  1  0  0  0
 73 75  1  0  0  0
 73 76  2  0  0  0
 73145  1  0  0  0
 74 75  2  0  0  0
 74 77  1  0  0  0
 75 81  1  0  0  0
 76 83  1  0  0  0
 77 82  1  0  0  0
 77146  1  0  0  0
 77147  1  0  0  0
 78 79  1  0  0  0
 78 80  1  0  0  0
 78148  1  0  0  0
 78149  1  0  0  0
 79150  1  0  0  0
 79151  1  0  0  0
 80 83  1  0  0  0
 80152  1  0  0  0
 80153  1  0  0  0
 81154  1  0  0  0
 82155  1  0  0  0
M  ISO  4   1 100  68 101  79 101  81 100
M  END
> <chiral flag>
0

> <version>
0

> <s_m_source_file>
/data/baiqing/PycharmProjects/Reinvent-master-3.2/result/LINK_invent/BTK/process_docking_weight1_custom_sum_contain_oxygen_bond_distance_aromatic_linkinvent_7_9_3/rearranged_h_0136.sdf

> <i_m_source_file_index>
58

> <r_mmod_Potential_Energy-OPLS-2005>
248.164337158203

> <r_mmod_Stretch_Energy-OPLS-2005>
129.10823059082

> <r_mmod_Bend_Energy-OPLS-2005>
175.613265991211

> <r_mmod_Torsional_Energy-OPLS-2005>
272.505584716797

> <r_mmod_Improper_Torsional_Energy-OPLS-2005>
13.0943899154663

> <r_mmod_Van_der_Waal_Energy-OPLS-2005>
142.300796508789

> <r_mmod_Electrostatic_Energy-OPLS-2005>
-332.515411376953

> <r_mmod_Solvation_Energy-OPLS-2005>
-242.378143310547

> <b_mmod_Minimization_Converged-OPLS-2005>
0

> <r_mmod_RMS_Derivative-OPLS-2005>
6.28804397583008

$$$$
61
                    3D
 Structure written by MMmdl.
164173  0  0  1  0            999 V2000
  -30.7789  -14.3791   20.6485 C   0  0  0  0  0  0
  -30.4144  -12.2760   19.4226 C   0  0  0  0  0  0
  -29.4948  -12.5044   18.2097 C   0  0  0  0  0  0
  -28.0189  -12.3662   18.6237 C   0  0  0  0  0  0
  -27.6690  -13.2050   19.8826 C   0  0  2  0  0  0
  -28.7055  -12.9754   21.0073 C   0  0  0  0  0  0
  -25.2605  -13.8156   20.5661 C   0  0  0  0  0  0
  -24.1842  -13.0427   20.9148 C   0  0  0  0  0  0
  -24.6396  -11.6896   20.8719 C   0  0  0  0  0  0
  -23.9060  -10.4278   21.0387 C   0  0  0  0  0  0
  -24.3613   -9.4195   21.9167 C   0  0  0  0  0  0
  -23.6286   -8.2237   22.0749 C   0  0  0  0  0  0
  -22.4274   -8.0271   21.3538 C   0  0  0  0  0  0
  -21.9906   -9.0236   20.4638 C   0  0  0  0  0  0
  -22.7236  -10.2118   20.3035 C   0  0  0  0  0  0
  -21.6843   -6.0726   22.5275 C   0  0  0  0  0  0
  -21.4018   -6.5631   23.8209 C   0  0  0  0  0  0
  -21.3664   -5.6785   24.9174 C   0  0  0  0  0  0
  -21.6040   -4.3042   24.7224 C   0  0  0  0  0  0
  -21.8830   -3.8138   23.4346 C   0  0  0  0  0  0
  -21.9196   -4.6956   22.3400 C   0  0  0  0  0  0
  -22.7871  -13.5227   21.1836 C   0  0  0  0  0  0
  -22.1661   -4.2134   21.0976 F   0  0  0  0  0  0
  -21.5634   -3.4532   25.7739 F   0  0  0  0  0  0
  -30.0490  -13.2474   20.4656 N   0  0  0  0  0  0
  -26.3057  -12.9326   20.3393 N   0  0  0  0  0  0
  -25.9328  -11.6480   20.5766 N   0  0  0  0  0  0
  -22.0526  -12.8190   22.0399 N   0  0  0  0  0  0
  -25.4329  -15.1875   20.4095 N   0  0  0  0  0  0
  -31.8030  -14.6206   20.0034 O   0  0  0  0  0  0
  -21.6643   -6.8872   21.4237 O   0  0  0  0  0  0
  -22.3544  -14.5532   20.6705 O   0  0  0  0  0  0
  -24.6139  -31.8694   23.2089 C   0  0  0  0  0  0
  -25.9046  -32.4837   23.8357 C   0  0  1  0  0  0
  -27.2373  -27.4531   20.0999 C   0  0  0  0  0  0
  -25.5877  -33.8630   24.2285 N   0  0  0  0  0  0
  -23.3992  -30.4895   21.5530 C   0  0  2  0  0  0
  -24.8458  -28.9546   20.1184 C   0  0  0  0  0  0
  -22.7400  -29.4641   22.5043 C   0  0  0  0  0  0
  -18.0249  -28.1346   22.8508 C   0  0  0  0  0  0
  -24.1476  -36.7329   23.2636 C   0  0  0  0  0  0
  -25.9227  -30.8444   21.3527 C   0  0  0  0  0  0
  -26.0042  -29.4778   20.7057 C   0  0  0  0  0  0
  -27.2052  -28.7331   20.6925 C   0  0  0  0  0  0
  -26.0654  -26.9417   19.5010 C   0  0  0  0  0  0
  -24.8695  -27.6851   19.5133 C   0  0  0  0  0  0
  -23.6020  -29.8145   20.1698 C   0  0  0  0  0  0
  -25.4100  -36.3129   24.0322 C   0  0  1  0  0  0
  -20.5846  -28.3644   23.1348 C   0  0  2  0  0  0
  -20.6744  -26.9381   22.5439 C   0  0  0  0  0  0
  -19.5722  -26.6365   21.5223 C   0  0  0  0  0  0
  -18.1898  -26.7897   22.1635 C   0  0  0  0  0  0
  -19.1500  -28.8812   23.2926 C   0  0  0  0  0  0
  -18.9447  -30.1421   23.8930 C   0  0  0  0  0  0
  -17.6453  -30.6583   24.0549 C   0  0  0  0  0  0
  -25.9029  -34.9497   23.5112 C   0  0  0  0  0  0
  -16.5332  -29.9084   23.6326 C   0  0  0  0  0  0
  -16.7241  -28.6486   23.0369 C   0  0  0  0  0  0
  -26.4469  -31.6622   25.0693 C   0  0  0  0  0  0
  -25.3707  -31.3749   26.1432 C   0  0  0  0  0  0
  -27.0261  -30.3048   24.6039 C   0  0  0  0  0  0
  -27.6020  -32.4369   25.7487 C   0  0  0  0  0  0
  -27.5575  -37.1817   24.8459 C   0  0  0  0  0  0
  -21.4130  -29.3002   22.3759 N   0  0  0  0  0  0
  -26.4298  -37.3808   23.9400 N   0  0  0  0  0  0
  -24.6637  -31.0796   22.0986 N   0  0  0  0  0  0
  -23.4183  -28.8187   23.3077 O   0  0  0  0  0  0
  -28.4060  -26.7287   20.1080 O   0  0  0  0  0  0
  -26.5625  -34.8972   22.4685 O   0  0  0  0  0  0
  -23.5342  -32.1419   23.7527 O   0  0  0  0  0  0
  -29.5583  -20.6307   23.4806 C   0  0  0  0  0  0
  -29.0573  -21.9455   23.5111 C   0  0  0  0  0  0
  -30.2149  -22.4404   21.4411 C   0  0  0  0  0  0
  -30.4294  -20.2017   22.4520 C   0  0  0  0  0  0
  -30.7430  -21.1262   21.4146 C   0  0  0  0  0  0
  -29.3876  -22.8713   22.5047 C   0  0  0  0  0  0
  -31.1517  -18.0619   23.8341 C   0  0  0  0  0  0
  -31.2769  -16.5637   23.5011 C   0  0  0  0  0  0
  -30.3623  -17.7473   21.5778 C   0  0  0  0  0  0
  -31.0444  -18.7886   22.4746 C   0  0  1  0  0  0
  -31.0693  -16.4467   21.9836 C   0  0  2  0  0  0
  -31.6558  -20.7499   20.2542 C   0  0  0  0  0  0
  -28.3049  -25.3864   20.6041 C   0  0  0  0  0  0
  -29.2877  -25.1989   21.7745 C   0  0  0  0  0  0
  -30.3478  -15.2270   21.5954 N   0  0  0  0  0  0
  -28.8760  -24.1447   22.6480 O   0  0  0  0  0  0
  -31.4613  -12.3500   19.1223 H   0  0  0  0  0  0
  -30.2976  -11.2612   19.8061 H   0  0  0  0  0  0
  -29.7307  -11.7893   17.4201 H   0  0  0  0  0  0
  -29.6738  -13.4965   17.7897 H   0  0  0  0  0  0
  -27.8349  -11.3096   18.8236 H   0  0  0  0  0  0
  -27.3666  -12.6357   17.7926 H   0  0  0  0  0  0
  -27.7227  -14.2561   19.5943 H   0  0  0  0  0  0
  -28.6623  -11.9433   21.3579 H   0  0  0  0  0  0
  -28.4609  -13.5859   21.8764 H   0  0  0  0  0  0
  -25.2761   -9.5671   22.4734 H   0  0  0  0  0  0
  -23.9990   -7.4638   22.7472 H   0  0  0  0  0  0
  -21.0838   -8.8751   19.8942 H   0  0  0  0  0  0
  -22.3690  -10.9648   19.6140 H   0  0  0  0  0  0
  -21.2012   -7.6139   23.9705 H   0  0  0  0  0  0
  -21.1479   -6.0517   25.9074 H   0  0  0  0  0  0
  -22.0611   -2.7596   23.2851 H   0  0  0  0  0  0
  -22.4164  -11.9834   22.4726 H   0  0  0  0  0  0
  -21.1160  -13.1213   22.2664 H   0  0  0  0  0  0
  -24.6705  -15.8462   20.5254 H   0  0  0  0  0  0
  -26.2957  -15.6256   20.1117 H   0  0  0  0  0  0
  -26.7122  -32.5576   23.1134 H   0  0  0  0  0  0
  -24.9988  -33.9748   25.0399 H   0  0  0  0  0  0
  -22.6858  -31.3050   21.4117 H   0  0  0  0  0  0
  -23.3754  -35.9651   23.3310 H   0  0  0  0  0  0
  -24.3564  -36.8929   22.2051 H   0  0  0  0  0  0
  -23.7235  -37.6527   23.6661 H   0  0  0  0  0  0
  -26.0105  -31.6101   20.5802 H   0  0  0  0  0  0
  -26.8183  -30.9128   21.9581 H   0  0  0  0  0  0
  -28.1019  -29.1244   21.1545 H   0  0  0  0  0  0
  -26.0723  -25.9732   19.0209 H   0  0  0  0  0  0
  -23.9781  -27.2749   19.0568 H   0  0  0  0  0  0
  -23.6936  -30.5825   19.4016 H   0  0  0  0  0  0
  -22.7275  -29.2201   19.8946 H   0  0  0  0  0  0
  -25.1278  -36.1992   25.0817 H   0  0  0  0  0  0
  -20.9915  -28.3221   24.1479 H   0  0  0  0  0  0
  -20.5672  -26.2227   23.3622 H   0  0  0  0  0  0
  -21.6614  -26.7444   22.1205 H   0  0  0  0  0  0
  -19.6906  -25.6285   21.1243 H   0  0  0  0  0  0
  -19.6672  -27.3188   20.6771 H   0  0  0  0  0  0
  -17.4153  -26.6657   21.4040 H   0  0  0  0  0  0
  -18.0286  -26.0018   22.9015 H   0  0  0  0  0  0
  -19.7923  -30.7200   24.2335 H   0  0  0  0  0  0
  -17.5013  -31.6282   24.5129 H   0  0  0  0  0  0
  -15.5338  -30.2996   23.7645 H   0  0  0  0  0  0
  -15.8629  -28.0820   22.7096 H   0  0  0  0  0  0
  -24.5865  -30.7128   25.7769 H   0  0  0  0  0  0
  -24.8937  -32.2919   26.4892 H   0  0  0  0  0  0
  -25.8039  -30.8908   27.0185 H   0  0  0  0  0  0
  -26.2771  -29.6879   24.1075 H   0  0  0  0  0  0
  -27.3960  -29.7261   25.4507 H   0  0  0  0  0  0
  -27.8644  -30.4314   23.9191 H   0  0  0  0  0  0
  -27.2565  -33.3646   26.2065 H   0  0  0  0  0  0
  -28.3849  -32.6971   25.0354 H   0  0  0  0  0  0
  -28.0649  -31.8495   26.5413 H   0  0  0  0  0  0
  -28.2613  -38.0105   24.7518 H   0  0  0  0  0  0
  -28.1063  -36.2637   24.6283 H   0  0  0  0  0  0
  -27.2290  -37.1448   25.8866 H   0  0  0  0  0  0
  -20.9292  -29.8687   21.6948 H   0  0  0  0  0  0
  -26.0207  -38.2895   24.1407 H   0  0  0  0  0  0
  -29.2667  -19.9730   24.2830 H   0  0  0  0  0  0
  -28.4196  -22.2502   24.3298 H   0  0  0  0  0  0
  -30.4701  -23.1112   20.6339 H   0  0  0  0  0  0
  -31.9954  -18.4251   24.4216 H   0  0  0  0  0  0
  -30.2590  -18.1689   24.4446 H   0  0  0  0  0  0
  -30.5237  -15.9995   24.0551 H   0  0  0  0  0  0
  -32.2528  -16.1682   23.7867 H   0  0  0  0  0  0
  -30.4732  -17.9588   20.5152 H   0  0  0  0  0  0
  -29.2958  -17.7006   21.8022 H   0  0  0  0  0  0
  -32.0737  -18.8898   22.1269 H   0  0  0  0  0  0
  -32.0655  -16.4716   21.5350 H   0  0  0  0  0  0
  -31.7943  -21.5877   19.5682 H   0  0  0  0  0  0
  -31.2337  -19.9315   19.6726 H   0  0  0  0  0  0
  -32.6443  -20.4551   20.6075 H   0  0  0  0  0  0
  -27.3019  -25.1758   20.9821 H   0  0  0  0  0  0
  -28.4996  -24.6699   19.8059 H   0  0  0  0  0  0
  -29.2564  -26.0989   22.3880 H   0  0  0  0  0  0
  -30.3239  -25.1269   21.4428 H   0  0  0  0  0  0
  -29.5085  -14.9767   22.0983 H   0  0  0  0  0  0
  1 25  1  0  0  0
  1 30  2  0  0  0
  1 85  1  0  0  0
  2  3  1  0  0  0
  2 25  1  0  0  0
  2 87  1  0  0  0
  2 88  1  0  0  0
  3  4  1  0  0  0
  3 89  1  0  0  0
  3 90  1  0  0  0
  4  5  1  0  0  0
  4 91  1  0  0  0
  4 92  1  0  0  0
  5  6  1  0  0  0
  5 26  1  0  0  0
  5 93  1  0  0  0
  6 25  1  0  0  0
  6 94  1  0  0  0
  6 95  1  0  0  0
  7  8  2  0  0  0
  7 26  1  0  0  0
  7 29  1  0  0  0
  8  9  1  0  0  0
  8 22  1  0  0  0
  9 10  1  0  0  0
  9 27  2  0  0  0
 10 11  2  0  0  0
 10 15  1  0  0  0
 11 12  1  0  0  0
 11 96  1  0  0  0
 12 13  2  0  0  0
 12 97  1  0  0  0
 13 14  1  0  0  0
 13 31  1  0  0  0
 14 15  2  0  0  0
 14 98  1  0  0  0
 15 99  1  0  0  0
 16 17  2  0  0  0
 16 21  1  0  0  0
 16 31  1  0  0  0
 17 18  1  0  0  0
 17100  1  0  0  0
 18 19  2  0  0  0
 18101  1  0  0  0
 19 20  1  0  0  0
 19 24  1  0  0  0
 20 21  2  0  0  0
 20102  1  0  0  0
 21 23  1  0  0  0
 22 28  1  0  0  0
 22 32  2  0  0  0
 26 27  1  0  0  0
 28103  1  0  0  0
 28104  1  0  0  0
 29105  1  0  0  0
 29106  1  0  0  0
 33 34  1  0  0  0
 33 66  1  0  0  0
 33 70  2  0  0  0
 34 36  1  0  0  0
 34 59  1  0  0  0
 34107  1  0  0  0
 35 44  2  0  0  0
 35 45  1  0  0  0
 35 68  1  0  0  0
 36 56  1  0  0  0
 36108  1  0  0  0
 37 39  1  0  0  0
 37 47  1  0  0  0
 37 66  1  0  0  0
 37109  1  0  0  0
 38 43  2  0  0  0
 38 46  1  0  0  0
 38 47  1  0  0  0
 39 64  1  0  0  0
 39 67  2  0  0  0
 40 52  1  0  0  0
 40 53  2  0  0  0
 40 58  1  0  0  0
 41110  1  0  0  0
 41111  1  0  0  0
 41112  1  0  0  0
 41 48  1  0  0  0
 42 43  1  0  0  0
 42 66  1  0  0  0
 42113  1  0  0  0
 42114  1  0  0  0
 43 44  1  0  0  0
 44115  1  0  0  0
 45 46  2  0  0  0
 45116  1  0  0  0
 46117  1  0  0  0
 47118  1  0  0  0
 47119  1  0  0  0
 48 56  1  0  0  0
 48 65  1  0  0  0
 48120  1  0  0  0
 49 50  1  0  0  0
 49 53  1  0  0  0
 49 64  1  0  0  0
 49121  1  0  0  0
 50 51  1  0  0  0
 50122  1  0  0  0
 50123  1  0  0  0
 51 52  1  0  0  0
 51124  1  0  0  0
 51125  1  0  0  0
 52126  1  0  0  0
 52127  1  0  0  0
 53 54  1  0  0  0
 54 55  2  0  0  0
 54128  1  0  0  0
 55 57  1  0  0  0
 55129  1  0  0  0
 56 69  2  0  0  0
 57 58  2  0  0  0
 57130  1  0  0  0
 58131  1  0  0  0
 59 60  1  0  0  0
 59 61  1  0  0  0
 59 62  1  0  0  0
 60132  1  0  0  0
 60133  1  0  0  0
 60134  1  0  0  0
 61135  1  0  0  0
 61136  1  0  0  0
 61137  1  0  0  0
 62138  1  0  0  0
 62139  1  0  0  0
 62140  1  0  0  0
 63 65  1  0  0  0
 63141  1  0  0  0
 63142  1  0  0  0
 63143  1  0  0  0
 64144  1  0  0  0
 65145  1  0  0  0
 68 83  1  0  0  0
 71 72  2  0  0  0
 71 74  1  0  0  0
 71146  1  0  0  0
 72 76  1  0  0  0
 72147  1  0  0  0
 73 75  1  0  0  0
 73 76  2  0  0  0
 73148  1  0  0  0
 74 75  2  0  0  0
 74 80  1  0  0  0
 75 82  1  0  0  0
 76 86  1  0  0  0
 77 78  1  0  0  0
 77 80  1  0  0  0
 77149  1  0  0  0
 77150  1  0  0  0
 78 81  1  0  0  0
 78151  1  0  0  0
 78152  1  0  0  0
 79 80  1  0  0  0
 79 81  1  0  0  0
 79153  1  0  0  0
 79154  1  0  0  0
 80155  1  0  0  0
 81 85  1  0  0  0
 81156  1  0  0  0
 82157  1  0  0  0
 82158  1  0  0  0
 82159  1  0  0  0
 83 84  1  0  0  0
 83160  1  0  0  0
 83161  1  0  0  0
 84 86  1  0  0  0
 84162  1  0  0  0
 84163  1  0  0  0
 85164  1  0  0  0
M  ISO  4   1 100  68 101  83 101  85 100
M  END
> <chiral flag>
0

> <version>
0

> <s_m_source_file>
/data/baiqing/PycharmProjects/Reinvent-master-3.2/result/LINK_invent/BTK/process_docking_weight1_custom_sum_contain_oxygen_bond_distance_aromatic_linkinvent_7_9_3/rearranged_h_0136.sdf

> <i_m_source_file_index>
59

> <r_mmod_Potential_Energy-OPLS-2005>
3.68173837661743

> <r_mmod_Stretch_Energy-OPLS-2005>
36.7746238708496

> <r_mmod_Bend_Energy-OPLS-2005>
136.998199462891

> <r_mmod_Torsional_Energy-OPLS-2005>
243.955062866211

> <r_mmod_Improper_Torsional_Energy-OPLS-2005>
1.73066091537476

> <r_mmod_Van_der_Waal_Energy-OPLS-2005>
162.355697631836

> <r_mmod_Electrostatic_Energy-OPLS-2005>
-381.978057861328

> <r_mmod_Solvation_Energy-OPLS-2005>
-204.486480712891

> <b_mmod_Minimization_Converged-OPLS-2005>
0

> <r_mmod_RMS_Derivative-OPLS-2005>
3.31274151802063

$$$$
62
                    3D
 Structure written by MMmdl.
162171  0  0  1  0            999 V2000
  -30.6805  -14.6460   20.4904 C   0  0  0  0  0  0
  -30.4192  -12.3975   19.4637 C   0  0  0  0  0  0
  -29.4975  -12.4944   18.2299 C   0  0  0  0  0  0
  -28.0242  -12.3339   18.6473 C   0  0  0  0  0  0
  -27.6450  -13.2287   19.8573 C   0  0  2  0  0  0
  -28.6917  -13.1388   20.9899 C   0  0  0  0  0  0
  -25.2515  -13.8196   20.5713 C   0  0  0  0  0  0
  -24.1792  -13.0446   20.9207 C   0  0  0  0  0  0
  -24.6376  -11.6920   20.8751 C   0  0  0  0  0  0
  -23.9051  -10.4298   21.0408 C   0  0  0  0  0  0
  -24.3603   -9.4212   21.9182 C   0  0  0  0  0  0
  -23.6284   -8.2241   22.0746 C   0  0  0  0  0  0
  -22.4273   -8.0273   21.3536 C   0  0  0  0  0  0
  -21.9906   -9.0244   20.4637 C   0  0  0  0  0  0
  -22.7226  -10.2129   20.3054 C   0  0  0  0  0  0
  -21.6852   -6.0728   22.5280 C   0  0  0  0  0  0
  -21.4009   -6.5628   23.8213 C   0  0  0  0  0  0
  -21.3663   -5.6778   24.9172 C   0  0  0  0  0  0
  -21.6047   -4.3047   24.7223 C   0  0  0  0  0  0
  -21.8813   -3.8140   23.4343 C   0  0  0  0  0  0
  -21.9187   -4.6955   22.3401 C   0  0  0  0  0  0
  -22.7815  -13.5224   21.1883 C   0  0  0  0  0  0
  -22.1658   -4.2143   21.0979 F   0  0  0  0  0  0
  -21.5633   -3.4534   25.7735 F   0  0  0  0  0  0
  -30.0029  -13.4555   20.4083 N   0  0  0  0  0  0
  -26.2950  -12.9405   20.3338 N   0  0  0  0  0  0
  -25.9313  -11.6554   20.5780 N   0  0  0  0  0  0
  -22.0472  -12.8199   22.0441 N   0  0  0  0  0  0
  -25.4219  -15.1918   20.4126 N   0  0  0  0  0  0
  -31.8616  -14.7200   20.1462 O   0  0  0  0  0  0
  -21.6638   -6.8872   21.4241 O   0  0  0  0  0  0
  -22.3498  -14.5531   20.6742 O   0  0  0  0  0  0
  -24.6227  -31.8602   23.2019 C   0  0  0  0  0  0
  -25.9079  -32.4776   23.8340 C   0  0  1  0  0  0
  -27.2293  -27.3345   20.1251 C   0  0  0  0  0  0
  -25.5903  -33.8580   24.2246 N   0  0  0  0  0  0
  -23.4168  -30.4820   21.5430 C   0  0  2  0  0  0
  -24.8695  -28.9417   20.1092 C   0  0  0  0  0  0
  -22.7466  -29.4611   22.4926 C   0  0  0  0  0  0
  -18.0285  -28.1392   22.8482 C   0  0  0  0  0  0
  -24.1496  -36.7295   23.2645 C   0  0  0  0  0  0
  -25.9574  -30.7962   21.3731 C   0  0  0  0  0  0
  -26.0372  -29.4261   20.7158 C   0  0  0  0  0  0
  -27.2239  -28.6335   20.7163 C   0  0  0  0  0  0
  -26.0478  -26.9072   19.4825 C   0  0  0  0  0  0
  -24.8759  -27.6859   19.4834 C   0  0  0  0  0  0
  -23.6324  -29.8157   20.1582 C   0  0  0  0  0  0
  -25.4119  -36.3071   24.0327 C   0  0  1  0  0  0
  -20.5886  -28.3683   23.1295 C   0  0  2  0  0  0
  -20.6785  -26.9410   22.5416 C   0  0  0  0  0  0
  -19.5758  -26.6375   21.5222 C   0  0  0  0  0  0
  -18.1929  -26.7931   22.1617 C   0  0  0  0  0  0
  -19.1540  -28.8855   23.2877 C   0  0  0  0  0  0
  -18.9470  -30.1463   23.8887 C   0  0  0  0  0  0
  -17.6473  -30.6594   24.0578 C   0  0  0  0  0  0
  -25.9055  -34.9448   23.5088 C   0  0  0  0  0  0
  -16.5361  -29.9092   23.6355 C   0  0  0  0  0  0
  -16.7275  -28.6521   23.0357 C   0  0  0  0  0  0
  -26.4479  -31.6595   25.0706 C   0  0  0  0  0  0
  -25.3723  -31.3731   26.1441 C   0  0  0  0  0  0
  -27.0339  -30.3031   24.6145 C   0  0  0  0  0  0
  -27.6008  -32.4384   25.7472 C   0  0  0  0  0  0
  -27.5581  -37.1800   24.8465 C   0  0  0  0  0  0
  -21.4182  -29.3037   22.3692 N   0  0  0  0  0  0
  -26.4296  -37.3768   23.9411 N   0  0  0  0  0  0
  -24.6839  -31.0619   22.0961 N   0  0  0  0  0  0
  -23.4198  -28.8164   23.3007 O   0  0  0  0  0  0
  -28.3073  -26.4409   20.1821 O   0  0  0  0  0  0
  -26.5632  -34.8918   22.4654 O   0  0  0  0  0  0
  -23.5397  -32.1383   23.7358 O   0  0  0  0  0  0
  -29.3906  -23.2741   21.9375 C   0  0  0  0  0  0
  -28.7113  -23.0375   19.6523 C   0  0  0  0  0  0
  -29.8654  -21.9292   21.9603 C   0  0  0  0  0  0
  -28.7813  -23.8649   20.8036 C   0  0  0  0  0  0
  -29.1983  -21.6878   19.6454 C   0  0  0  0  0  0
  -29.7652  -21.0869   20.8117 C   0  0  0  0  0  0
  -29.8633  -20.2926   24.0295 C   0  0  0  0  0  0
  -29.8342  -21.6970   24.5837 C   0  0  0  0  0  0
  -30.4801  -21.4277   23.2407 C   0  0  0  0  0  0
  -29.1196  -20.9124   18.3426 C   0  0  0  0  0  0
  -28.0016  -25.2232   20.9597 C   0  0  0  0  0  0
  -29.6256  -18.4663   20.6276 C   0  0  0  0  0  0
  -30.5701  -17.1880   20.7855 C   0  0  0  0  0  0
  -30.3323  -19.7646   20.8574 N   0  0  0  0  0  0
  -29.9838  -15.7956   20.7686 N   0  0  0  0  0  0
  -31.4636  -12.4904   19.1615 H   0  0  0  0  0  0
  -30.3301  -11.4158   19.9335 H   0  0  0  0  0  0
  -29.7625  -11.7296   17.4987 H   0  0  0  0  0  0
  -29.6382  -13.4565   17.7340 H   0  0  0  0  0  0
  -27.8711  -11.2851   18.9050 H   0  0  0  0  0  0
  -27.3633  -12.5375   17.8041 H   0  0  0  0  0  0
  -27.6488  -14.2546   19.4892 H   0  0  0  0  0  0
  -28.7027  -12.1386   21.4262 H   0  0  0  0  0  0
  -28.4428  -13.8223   21.8036 H   0  0  0  0  0  0
  -25.2743   -9.5687   22.4764 H   0  0  0  0  0  0
  -23.9994   -7.4630   22.7470 H   0  0  0  0  0  0
  -21.0839   -8.8754   19.8946 H   0  0  0  0  0  0
  -22.3678  -10.9663   19.6167 H   0  0  0  0  0  0
  -21.1997   -7.6136   23.9714 H   0  0  0  0  0  0
  -21.1495   -6.0511   25.9073 H   0  0  0  0  0  0
  -22.0586   -2.7603   23.2843 H   0  0  0  0  0  0
  -22.4099  -11.9844   22.4790 H   0  0  0  0  0  0
  -21.1096  -13.1219   22.2690 H   0  0  0  0  0  0
  -24.6557  -15.8477   20.5187 H   0  0  0  0  0  0
  -26.2709  -15.6289   20.0773 H   0  0  0  0  0  0
  -26.7138  -32.5441   23.1084 H   0  0  0  0  0  0
  -25.0083  -33.9747   25.0409 H   0  0  0  0  0  0
  -22.7081  -31.3005   21.3988 H   0  0  0  0  0  0
  -23.3753  -35.9630   23.3300 H   0  0  0  0  0  0
  -24.3583  -36.8925   22.2060 H   0  0  0  0  0  0
  -23.7264  -37.6496   23.6684 H   0  0  0  0  0  0
  -26.0895  -31.5614   20.6068 H   0  0  0  0  0  0
  -26.8373  -30.8438   22.0031 H   0  0  0  0  0  0
  -28.1153  -28.9961   21.2067 H   0  0  0  0  0  0
  -26.0196  -25.9389   19.0017 H   0  0  0  0  0  0
  -23.9830  -27.3079   19.0050 H   0  0  0  0  0  0
  -23.7425  -30.5923   19.3997 H   0  0  0  0  0  0
  -22.7551  -29.2382   19.8584 H   0  0  0  0  0  0
  -25.1304  -36.1914   25.0820 H   0  0  0  0  0  0
  -20.9974  -28.3260   24.1417 H   0  0  0  0  0  0
  -20.5718  -26.2283   23.3607 H   0  0  0  0  0  0
  -21.6651  -26.7466   22.1189 H   0  0  0  0  0  0
  -19.6935  -25.6281   21.1257 H   0  0  0  0  0  0
  -19.6717  -27.3189   20.6753 H   0  0  0  0  0  0
  -17.4209  -26.6700   21.4006 H   0  0  0  0  0  0
  -18.0325  -26.0065   22.9004 H   0  0  0  0  0  0
  -19.7952  -30.7295   24.2227 H   0  0  0  0  0  0
  -17.5030  -31.6276   24.5175 H   0  0  0  0  0  0
  -15.5367  -30.3001   23.7685 H   0  0  0  0  0  0
  -15.8669  -28.0849   22.7066 H   0  0  0  0  0  0
  -24.5903  -30.7070   25.7775 H   0  0  0  0  0  0
  -24.8917  -32.2905   26.4861 H   0  0  0  0  0  0
  -25.8066  -30.8919   27.0213 H   0  0  0  0  0  0
  -26.2912  -29.6772   24.1192 H   0  0  0  0  0  0
  -27.4081  -29.7289   25.4625 H   0  0  0  0  0  0
  -27.8738  -30.4321   23.9320 H   0  0  0  0  0  0
  -27.2571  -33.3700   26.1983 H   0  0  0  0  0  0
  -28.3835  -32.6952   25.0317 H   0  0  0  0  0  0
  -28.0649  -31.8573   26.5448 H   0  0  0  0  0  0
  -28.2588  -38.0108   24.7529 H   0  0  0  0  0  0
  -28.1098  -36.2649   24.6280 H   0  0  0  0  0  0
  -27.2302  -37.1421   25.8866 H   0  0  0  0  0  0
  -20.9355  -29.8750   21.6901 H   0  0  0  0  0  0
  -26.0169  -38.2831   24.1428 H   0  0  0  0  0  0
  -29.4531  -23.8596   22.8447 H   0  0  0  0  0  0
  -28.2452  -23.4361   18.7627 H   0  0  0  0  0  0
  -28.9244  -19.8751   23.6706 H   0  0  0  0  0  0
  -30.5359  -19.5859   24.5111 H   0  0  0  0  0  0
  -30.4873  -21.9070   25.4271 H   0  0  0  0  0  0
  -28.8689  -22.2004   24.6055 H   0  0  0  0  0  0
  -31.5666  -21.4687   23.1866 H   0  0  0  0  0  0
  -29.0996  -21.5857   17.4849 H   0  0  0  0  0  0
  -28.2174  -20.3026   18.3240 H   0  0  0  0  0  0
  -29.9839  -20.2598   18.2205 H   0  0  0  0  0  0
  -28.0760  -25.5236   22.0063 H   0  0  0  0  0  0
  -26.9553  -24.9391   20.8458 H   0  0  0  0  0  0
  -28.8042  -18.3995   21.3416 H   0  0  0  0  0  0
  -29.1750  -18.4636   19.6351 H   0  0  0  0  0  0
  -31.1107  -17.2704   21.7301 H   0  0  0  0  0  0
  -31.3352  -17.2475   20.0089 H   0  0  0  0  0  0
  -31.0028  -19.6766   21.6158 H   0  0  0  0  0  0
  -29.0042  -15.7006   20.9895 H   0  0  0  0  0  0
  1 25  1  0  0  0
  1 30  2  0  0  0
  1 85  1  0  0  0
  2  3  1  0  0  0
  2 25  1  0  0  0
  2 86  1  0  0  0
  2 87  1  0  0  0
  3  4  1  0  0  0
  3 88  1  0  0  0
  3 89  1  0  0  0
  4  5  1  0  0  0
  4 90  1  0  0  0
  4 91  1  0  0  0
  5  6  1  0  0  0
  5 26  1  0  0  0
  5 92  1  0  0  0
  6 25  1  0  0  0
  6 93  1  0  0  0
  6 94  1  0  0  0
  7  8  2  0  0  0
  7 26  1  0  0  0
  7 29  1  0  0  0
  8  9  1  0  0  0
  8 22  1  0  0  0
  9 10  1  0  0  0
  9 27  2  0  0  0
 10 11  2  0  0  0
 10 15  1  0  0  0
 11 12  1  0  0  0
 11 95  1  0  0  0
 12 13  2  0  0  0
 12 96  1  0  0  0
 13 14  1  0  0  0
 13 31  1  0  0  0
 14 15  2  0  0  0
 14 97  1  0  0  0
 15 98  1  0  0  0
 16 17  2  0  0  0
 16 21  1  0  0  0
 16 31  1  0  0  0
 17 18  1  0  0  0
 17 99  1  0  0  0
 18 19  2  0  0  0
 18100  1  0  0  0
 19 20  1  0  0  0
 19 24  1  0  0  0
 20 21  2  0  0  0
 20101  1  0  0  0
 21 23  1  0  0  0
 22 28  1  0  0  0
 22 32  2  0  0  0
 26 27  1  0  0  0
 28102  1  0  0  0
 28103  1  0  0  0
 29104  1  0  0  0
 29105  1  0  0  0
 33 34  1  0  0  0
 33 66  1  0  0  0
 33 70  2  0  0  0
 34 36  1  0  0  0
 34 59  1  0  0  0
 34106  1  0  0  0
 35 44  2  0  0  0
 35 45  1  0  0  0
 35 68  1  0  0  0
 36 56  1  0  0  0
 36107  1  0  0  0
 37 39  1  0  0  0
 37 47  1  0  0  0
 37 66  1  0  0  0
 37108  1  0  0  0
 38 43  2  0  0  0
 38 46  1  0  0  0
 38 47  1  0  0  0
 39 64  1  0  0  0
 39 67  2  0  0  0
 40 52  1  0  0  0
 40 53  2  0  0  0
 40 58  1  0  0  0
 41109  1  0  0  0
 41110  1  0  0  0
 41111  1  0  0  0
 41 48  1  0  0  0
 42 43  1  0  0  0
 42 66  1  0  0  0
 42112  1  0  0  0
 42113  1  0  0  0
 43 44  1  0  0  0
 44114  1  0  0  0
 45 46  2  0  0  0
 45115  1  0  0  0
 46116  1  0  0  0
 47117  1  0  0  0
 47118  1  0  0  0
 48 56  1  0  0  0
 48 65  1  0  0  0
 48119  1  0  0  0
 49 50  1  0  0  0
 49 53  1  0  0  0
 49 64  1  0  0  0
 49120  1  0  0  0
 50 51  1  0  0  0
 50121  1  0  0  0
 50122  1  0  0  0
 51 52  1  0  0  0
 51123  1  0  0  0
 51124  1  0  0  0
 52125  1  0  0  0
 52126  1  0  0  0
 53 54  1  0  0  0
 54 55  2  0  0  0
 54127  1  0  0  0
 55 57  1  0  0  0
 55128  1  0  0  0
 56 69  2  0  0  0
 57 58  2  0  0  0
 57129  1  0  0  0
 58130  1  0  0  0
 59 60  1  0  0  0
 59 61  1  0  0  0
 59 62  1  0  0  0
 60131  1  0  0  0
 60132  1  0  0  0
 60133  1  0  0  0
 61134  1  0  0  0
 61135  1  0  0  0
 61136  1  0  0  0
 62137  1  0  0  0
 62138  1  0  0  0
 62139  1  0  0  0
 63 65  1  0  0  0
 63140  1  0  0  0
 63141  1  0  0  0
 63142  1  0  0  0
 64143  1  0  0  0
 65144  1  0  0  0
 68 81  1  0  0  0
 71 73  2  0  0  0
 71 74  1  0  0  0
 71145  1  0  0  0
 72 74  2  0  0  0
 72 75  1  0  0  0
 72146  1  0  0  0
 73 76  1  0  0  0
 73 79  1  0  0  0
 74 81  1  0  0  0
 75 76  2  0  0  0
 75 80  1  0  0  0
 76 84  1  0  0  0
 77 78  1  0  0  0
 77 79  1  0  0  0
 77147  1  0  0  0
 77148  1  0  0  0
 78 79  1  0  0  0
 78149  1  0  0  0
 78150  1  0  0  0
 79151  1  0  0  0
 80152  1  0  0  0
 80153  1  0  0  0
 80154  1  0  0  0
 81155  1  0  0  0
 81156  1  0  0  0
 82 83  1  0  0  0
 82 84  1  0  0  0
 82157  1  0  0  0
 82158  1  0  0  0
 83 85  1  0  0  0
 83159  1  0  0  0
 83160  1  0  0  0
 84161  1  0  0  0
 85162  1  0  0  0
M  ISO  4   1 100  68 101  81 101  85 100
M  END
> <chiral flag>
0

> <version>
0

> <s_m_source_file>
/data/baiqing/PycharmProjects/Reinvent-master-3.2/result/LINK_invent/BTK/process_docking_weight1_custom_sum_contain_oxygen_bond_distance_aromatic_linkinvent_7_9_3/rearranged_h_0136.sdf

> <i_m_source_file_index>
60

> <r_mmod_Potential_Energy-OPLS-2005>
43.8721656799316

> <r_mmod_Stretch_Energy-OPLS-2005>
78.0815505981445

> <r_mmod_Bend_Energy-OPLS-2005>
148.489456176758

> <r_mmod_Torsional_Energy-OPLS-2005>
274.482208251953

> <r_mmod_Improper_Torsional_Energy-OPLS-2005>
9.50227642059326

> <r_mmod_Van_der_Waal_Energy-OPLS-2005>
142.045608520508

> <r_mmod_Electrostatic_Energy-OPLS-2005>
-446.888671875

> <r_mmod_Solvation_Energy-OPLS-2005>
-215.263610839844

> <b_mmod_Minimization_Converged-OPLS-2005>
0

> <r_mmod_RMS_Derivative-OPLS-2005>
2.09654760360718

$$$$
63
                    3D
 Structure written by MMmdl.
166175  0  0  1  0            999 V2000
  -30.7896  -14.5456   20.4860 C   0  0  0  0  0  0
  -30.3926  -12.3520   19.4383 C   0  0  0  0  0  0
  -29.4783  -12.4744   18.2065 C   0  0  0  0  0  0
  -28.0073  -12.3342   18.6342 C   0  0  0  0  0  0
  -27.6448  -13.2236   19.8545 C   0  0  2  0  0  0
  -28.7019  -13.1245   20.9810 C   0  0  0  0  0  0
  -25.2538  -13.8215   20.5702 C   0  0  0  0  0  0
  -24.1814  -13.0455   20.9198 C   0  0  0  0  0  0
  -24.6395  -11.6935   20.8759 C   0  0  0  0  0  0
  -23.9094  -10.4308   21.0409 C   0  0  0  0  0  0
  -24.3639   -9.4204   21.9168 C   0  0  0  0  0  0
  -23.6297   -8.2253   22.0748 C   0  0  0  0  0  0
  -22.4272   -8.0304   21.3548 C   0  0  0  0  0  0
  -21.9918   -9.0281   20.4640 C   0  0  0  0  0  0
  -22.7277  -10.2146   20.3047 C   0  0  0  0  0  0
  -21.6856   -6.0749   22.5286 C   0  0  0  0  0  0
  -21.4025   -6.5660   23.8220 C   0  0  0  0  0  0
  -21.3644   -5.6810   24.9178 C   0  0  0  0  0  0
  -21.6028   -4.3072   24.7220 C   0  0  0  0  0  0
  -21.8819   -3.8165   23.4344 C   0  0  0  0  0  0
  -21.9201   -4.6979   22.3403 C   0  0  0  0  0  0
  -22.7837  -13.5208   21.1864 C   0  0  0  0  0  0
  -22.1663   -4.2171   21.0975 F   0  0  0  0  0  0
  -21.5600   -3.4556   25.7726 F   0  0  0  0  0  0
  -30.0039  -13.4278   20.3761 N   0  0  0  0  0  0
  -26.2969  -12.9408   20.3367 N   0  0  0  0  0  0
  -25.9325  -11.6553   20.5821 N   0  0  0  0  0  0
  -22.0509  -12.8173   22.0417 N   0  0  0  0  0  0
  -25.4233  -15.1935   20.4049 N   0  0  0  0  0  0
  -31.9773  -14.4666   20.1716 O   0  0  0  0  0  0
  -21.6631   -6.8905   21.4258 O   0  0  0  0  0  0
  -22.3512  -14.5523   20.6757 O   0  0  0  0  0  0
  -24.6185  -31.8641   23.2063 C   0  0  0  0  0  0
  -25.9059  -32.4816   23.8379 C   0  0  1  0  0  0
  -27.2214  -27.4073   20.1088 C   0  0  0  0  0  0
  -25.5909  -33.8626   24.2305 N   0  0  0  0  0  0
  -23.4065  -30.4899   21.5453 C   0  0  2  0  0  0
  -24.8519  -28.9562   20.1055 C   0  0  0  0  0  0
  -22.7391  -29.4668   22.4948 C   0  0  0  0  0  0
  -18.0269  -28.1375   22.8483 C   0  0  0  0  0  0
  -24.1484  -36.7320   23.2632 C   0  0  0  0  0  0
  -25.9366  -30.8280   21.3579 C   0  0  0  0  0  0
  -26.0141  -29.4620   20.7023 C   0  0  0  0  0  0
  -27.2086  -28.6999   20.6890 C   0  0  0  0  0  0
  -26.0451  -26.9249   19.4982 C   0  0  0  0  0  0
  -24.8658  -27.6925   19.4907 C   0  0  0  0  0  0
  -23.6167  -29.8256   20.1577 C   0  0  0  0  0  0
  -25.4120  -36.3123   24.0318 C   0  0  1  0  0  0
  -20.5840  -28.3703   23.1296 C   0  0  2  0  0  0
  -20.6773  -26.9415   22.5431 C   0  0  0  0  0  0
  -19.5743  -26.6342   21.5255 C   0  0  0  0  0  0
  -18.1939  -26.7875   22.1732 C   0  0  0  0  0  0
  -19.1506  -28.8846   23.2888 C   0  0  0  0  0  0
  -18.9408  -30.1469   23.8877 C   0  0  0  0  0  0
  -17.6407  -30.6575   24.0522 C   0  0  0  0  0  0
  -25.9051  -34.9484   23.5110 C   0  0  0  0  0  0
  -16.5295  -29.9067   23.6291 C   0  0  0  0  0  0
  -16.7254  -28.6481   23.0343 C   0  0  0  0  0  0
  -26.4500  -31.6600   25.0711 C   0  0  0  0  0  0
  -25.3773  -31.3679   26.1455 C   0  0  0  0  0  0
  -27.0303  -30.3035   24.6067 C   0  0  0  0  0  0
  -27.6078  -32.4297   25.7474 C   0  0  0  0  0  0
  -27.5590  -37.1827   24.8465 C   0  0  0  0  0  0
  -21.4100  -29.3070   22.3672 N   0  0  0  0  0  0
  -26.4299  -37.3817   23.9400 N   0  0  0  0  0  0
  -24.6734  -31.0741   22.0961 N   0  0  0  0  0  0
  -23.4128  -28.8172   23.2993 O   0  0  0  0  0  0
  -28.3431  -26.5996   20.1447 O   0  0  0  0  0  0
  -26.5602  -34.8938   22.4677 O   0  0  0  0  0  0
  -23.5368  -32.1389   23.7440 O   0  0  0  0  0  0
  -27.9916  -22.9168   22.2162 C   0  0  0  0  0  0
  -27.9759  -24.1357   22.9178 C   0  0  0  0  0  0
  -28.2953  -24.1412   20.1309 C   0  0  0  0  0  0
  -28.1709  -22.8929   20.8155 C   0  0  0  0  0  0
  -28.1099  -25.3624   22.2396 C   0  0  0  0  0  0
  -28.2445  -25.3886   20.8256 C   0  0  0  0  0  0
  -30.5233  -18.0320   21.6834 C   0  0  0  0  0  0
  -28.9540  -16.4056   20.7805 C   0  0  0  0  0  0
  -29.0587  -17.8907   21.2749 C   0  0  2  0  0  0
  -31.2634  -16.9295   20.9325 C   0  0  2  0  0  0
  -28.1009  -26.6381   23.0621 C   0  0  0  0  0  0
  -31.7950  -17.4510   19.5726 C   0  0  0  0  0  0
  -28.1790  -21.5381   20.0651 C   0  0  0  0  0  0
  -28.5678  -19.0175   20.2966 C   0  0  0  0  0  0
  -30.3090  -15.8050   20.7830 N   0  0  0  0  0  0
  -28.6971  -20.3930   20.8727 N   0  3  0  0  0  0
  -31.4370  -12.3942   19.1213 H   0  0  0  0  0  0
  -30.2725  -11.3763   19.9110 H   0  0  0  0  0  0
  -29.7274  -11.7035   17.4774 H   0  0  0  0  0  0
  -29.6378  -13.4345   17.7103 H   0  0  0  0  0  0
  -27.8466  -11.2867   18.8868 H   0  0  0  0  0  0
  -27.3431  -12.5474   17.7964 H   0  0  0  0  0  0
  -27.6521  -14.2458   19.4819 H   0  0  0  0  0  0
  -28.7174  -12.1206   21.4109 H   0  0  0  0  0  0
  -28.4770  -13.7909   21.8100 H   0  0  0  0  0  0
  -25.2777   -9.5656   22.4747 H   0  0  0  0  0  0
  -24.0006   -7.4640   22.7446 H   0  0  0  0  0  0
  -21.0859   -8.8815   19.8930 H   0  0  0  0  0  0
  -22.3750  -10.9694   19.6164 H   0  0  0  0  0  0
  -21.2041   -7.6172   23.9735 H   0  0  0  0  0  0
  -21.1446   -6.0529   25.9081 H   0  0  0  0  0  0
  -22.0600   -2.7632   23.2840 H   0  0  0  0  0  0
  -22.4180  -11.9841   22.4782 H   0  0  0  0  0  0
  -21.1126  -13.1192   22.2644 H   0  0  0  0  0  0
  -24.6521  -15.8450   20.5022 H   0  0  0  0  0  0
  -26.2690  -15.6273   20.0603 H   0  0  0  0  0  0
  -26.7131  -32.5507   23.1134 H   0  0  0  0  0  0
  -25.0043  -33.9781   25.0444 H   0  0  0  0  0  0
  -22.6974  -31.3066   21.4047 H   0  0  0  0  0  0
  -23.3741  -35.9659   23.3313 H   0  0  0  0  0  0
  -24.3562  -36.8926   22.2041 H   0  0  0  0  0  0
  -23.7228  -37.6533   23.6642 H   0  0  0  0  0  0
  -26.0455  -31.5889   20.5846 H   0  0  0  0  0  0
  -26.8252  -30.8863   21.9746 H   0  0  0  0  0  0
  -28.1063  -29.0843   21.1508 H   0  0  0  0  0  0
  -26.0368  -25.9430   19.0461 H   0  0  0  0  0  0
  -23.9751  -27.3011   19.0226 H   0  0  0  0  0  0
  -23.7297  -30.6024   19.4005 H   0  0  0  0  0  0
  -22.7407  -29.2478   19.8580 H   0  0  0  0  0  0
  -25.1305  -36.2001   25.0811 H   0  0  0  0  0  0
  -20.9962  -28.3291   24.1400 H   0  0  0  0  0  0
  -21.6640  -26.7509   22.1218 H   0  0  0  0  0  0
  -20.5765  -26.2276   23.3633 H   0  0  0  0  0  0
  -19.6918  -25.6212   21.1372 H   0  0  0  0  0  0
  -19.6637  -27.3091   20.6734 H   0  0  0  0  0  0
  -17.4139  -26.6477   21.4225 H   0  0  0  0  0  0
  -18.0421  -26.0114   22.9241 H   0  0  0  0  0  0
  -19.7878  -30.7306   24.2229 H   0  0  0  0  0  0
  -17.4940  -31.6280   24.5054 H   0  0  0  0  0  0
  -15.5278  -30.2959   23.7604 H   0  0  0  0  0  0
  -15.8654  -28.0786   22.7062 H   0  0  0  0  0  0
  -24.5959  -30.7017   25.7776 H   0  0  0  0  0  0
  -24.8955  -32.2823   26.4931 H   0  0  0  0  0  0
  -25.8149  -30.8831   27.0191 H   0  0  0  0  0  0
  -26.2822  -29.6795   24.1145 H   0  0  0  0  0  0
  -27.4089  -29.7273   25.4524 H   0  0  0  0  0  0
  -27.8672  -30.4324   23.9185 H   0  0  0  0  0  0
  -27.2718  -33.3573   26.2109 H   0  0  0  0  0  0
  -28.3883  -32.6874   25.0306 H   0  0  0  0  0  0
  -28.0769  -31.8383   26.5351 H   0  0  0  0  0  0
  -28.2640  -38.0098   24.7527 H   0  0  0  0  0  0
  -28.1050  -36.2635   24.6290 H   0  0  0  0  0  0
  -27.2296  -37.1497   25.8865 H   0  0  0  0  0  0
  -20.9254  -29.8743   21.6864 H   0  0  0  0  0  0
  -26.0185  -38.2888   24.1437 H   0  0  0  0  0  0
  -27.8715  -22.0048   22.7833 H   0  0  0  0  0  0
  -27.8549  -24.1222   23.9919 H   0  0  0  0  0  0
  -28.4178  -24.1476   19.0560 H   0  0  0  0  0  0
  -30.6197  -17.8497   22.7550 H   0  0  0  0  0  0
  -30.9479  -19.0211   21.4983 H   0  0  0  0  0  0
  -28.5378  -16.3562   19.7746 H   0  0  0  0  0  0
  -28.2816  -15.8656   21.4427 H   0  0  0  0  0  0
  -28.4550  -17.9821   22.1801 H   0  0  0  0  0  0
  -32.1185  -16.6207   21.5378 H   0  0  0  0  0  0
  -28.3310  -26.4339   24.1079 H   0  0  0  0  0  0
  -27.1195  -27.1123   23.0234 H   0  0  0  0  0  0
  -28.8452  -27.3434   22.6916 H   0  0  0  0  0  0
  -30.9916  -17.7233   18.8907 H   0  0  0  0  0  0
  -32.4131  -16.7128   19.0614 H   0  0  0  0  0  0
  -32.4209  -18.3354   19.7058 H   0  0  0  0  0  0
  -28.7764  -21.6342   19.1579 H   0  0  0  0  0  0
  -27.1589  -21.3216   19.7473 H   0  0  0  0  0  0
  -27.5195  -18.8417   20.0501 H   0  0  0  0  0  0
  -29.1072  -18.9736   19.3520 H   0  0  0  0  0  0
  -28.2092  -20.4046   21.7522 H   0  0  0  0  0  0
  -29.6691  -20.5788   21.0620 H   0  0  0  0  0  0
  1 25  1  0  0  0
  1 30  2  0  0  0
  1 85  1  0  0  0
  2  3  1  0  0  0
  2 25  1  0  0  0
  2 87  1  0  0  0
  2 88  1  0  0  0
  3  4  1  0  0  0
  3 89  1  0  0  0
  3 90  1  0  0  0
  4  5  1  0  0  0
  4 91  1  0  0  0
  4 92  1  0  0  0
  5  6  1  0  0  0
  5 26  1  0  0  0
  5 93  1  0  0  0
  6 25  1  0  0  0
  6 94  1  0  0  0
  6 95  1  0  0  0
  7  8  2  0  0  0
  7 26  1  0  0  0
  7 29  1  0  0  0
  8  9  1  0  0  0
  8 22  1  0  0  0
  9 10  1  0  0  0
  9 27  2  0  0  0
 10 11  2  0  0  0
 10 15  1  0  0  0
 11 12  1  0  0  0
 11 96  1  0  0  0
 12 13  2  0  0  0
 12 97  1  0  0  0
 13 14  1  0  0  0
 13 31  1  0  0  0
 14 15  2  0  0  0
 14 98  1  0  0  0
 15 99  1  0  0  0
 16 17  2  0  0  0
 16 21  1  0  0  0
 16 31  1  0  0  0
 17 18  1  0  0  0
 17100  1  0  0  0
 18 19  2  0  0  0
 18101  1  0  0  0
 19 20  1  0  0  0
 19 24  1  0  0  0
 20 21  2  0  0  0
 20102  1  0  0  0
 21 23  1  0  0  0
 22 28  1  0  0  0
 22 32  2  0  0  0
 26 27  1  0  0  0
 28103  1  0  0  0
 28104  1  0  0  0
 29105  1  0  0  0
 29106  1  0  0  0
 33 34  1  0  0  0
 33 66  1  0  0  0
 33 70  2  0  0  0
 34 36  1  0  0  0
 34 59  1  0  0  0
 34107  1  0  0  0
 35 44  2  0  0  0
 35 45  1  0  0  0
 35 68  1  0  0  0
 36 56  1  0  0  0
 36108  1  0  0  0
 37 39  1  0  0  0
 37 47  1  0  0  0
 37 66  1  0  0  0
 37109  1  0  0  0
 38 43  2  0  0  0
 38 46  1  0  0  0
 38 47  1  0  0  0
 39 64  1  0  0  0
 39 67  2  0  0  0
 40 52  1  0  0  0
 40 53  2  0  0  0
 40 58  1  0  0  0
 41110  1  0  0  0
 41111  1  0  0  0
 41112  1  0  0  0
 41 48  1  0  0  0
 42 43  1  0  0  0
 42 66  1  0  0  0
 42113  1  0  0  0
 42114  1  0  0  0
 43 44  1  0  0  0
 44115  1  0  0  0
 45 46  2  0  0  0
 45116  1  0  0  0
 46117  1  0  0  0
 47118  1  0  0  0
 47119  1  0  0  0
 48 56  1  0  0  0
 48 65  1  0  0  0
 48120  1  0  0  0
 49 50  1  0  0  0
 49 53  1  0  0  0
 49 64  1  0  0  0
 49121  1  0  0  0
 50 51  1  0  0  0
 50122  1  0  0  0
 50123  1  0  0  0
 51 52  1  0  0  0
 51124  1  0  0  0
 51125  1  0  0  0
 52126  1  0  0  0
 52127  1  0  0  0
 53 54  1  0  0  0
 54 55  2  0  0  0
 54128  1  0  0  0
 55 57  1  0  0  0
 55129  1  0  0  0
 56 69  2  0  0  0
 57 58  2  0  0  0
 57130  1  0  0  0
 58131  1  0  0  0
 59 60  1  0  0  0
 59 61  1  0  0  0
 59 62  1  0  0  0
 60132  1  0  0  0
 60133  1  0  0  0
 60134  1  0  0  0
 61135  1  0  0  0
 61136  1  0  0  0
 61137  1  0  0  0
 62138  1  0  0  0
 62139  1  0  0  0
 62140  1  0  0  0
 63 65  1  0  0  0
 63141  1  0  0  0
 63142  1  0  0  0
 63143  1  0  0  0
 64144  1  0  0  0
 65145  1  0  0  0
 68 76  1  0  0  0
 71 72  2  0  0  0
 71 74  1  0  0  0
 71146  1  0  0  0
 72 75  1  0  0  0
 72147  1  0  0  0
 73 74  2  0  0  0
 73 76  1  0  0  0
 73148  1  0  0  0
 74 83  1  0  0  0
 75 76  2  0  0  0
 75 81  1  0  0  0
 77 79  1  0  0  0
 77 80  1  0  0  0
 77149  1  0  0  0
 77150  1  0  0  0
 78 79  1  0  0  0
 78 85  1  0  0  0
 78151  1  0  0  0
 78152  1  0  0  0
 79 84  1  0  0  0
 79153  1  0  0  0
 80 82  1  0  0  0
 80 85  1  0  0  0
 80154  1  0  0  0
 81155  1  0  0  0
 81156  1  0  0  0
 81157  1  0  0  0
 82158  1  0  0  0
 82159  1  0  0  0
 82160  1  0  0  0
 83 86  1  0  0  0
 83161  1  0  0  0
 83162  1  0  0  0
 84 86  1  0  0  0
 84163  1  0  0  0
 84164  1  0  0  0
 86165  1  0  0  0
 86166  1  0  0  0
M  CHG  1  86   1
M  ISO  4   1 100  68 101  76 101  85 100
M  END
> <chiral flag>
0

> <version>
0

> <s_m_source_file>
/data/baiqing/PycharmProjects/Reinvent-master-3.2/result/LINK_invent/BTK/process_docking_weight1_custom_sum_contain_oxygen_bond_distance_aromatic_linkinvent_7_9_3/rearranged_h_0136.sdf

> <i_m_source_file_index>
61

> <r_mmod_Potential_Energy-OPLS-2005>
74.3250503540039

> <r_mmod_Stretch_Energy-OPLS-2005>
53.6681175231934

> <r_mmod_Bend_Energy-OPLS-2005>
148.762832641602

> <r_mmod_Torsional_Energy-OPLS-2005>
340.808258056641

> <r_mmod_Improper_Torsional_Energy-OPLS-2005>
3.45329999923706

> <r_mmod_Van_der_Waal_Energy-OPLS-2005>
143.699981689453

> <r_mmod_Electrostatic_Energy-OPLS-2005>
-194.557830810547

> <r_mmod_Solvation_Energy-OPLS-2005>
-460.763458251953

> <b_mmod_Minimization_Converged-OPLS-2005>
0

> <r_mmod_RMS_Derivative-OPLS-2005>
3.56209707260132

$$$$
64
                    3D
 Structure written by MMmdl.
168177  0  0  1  0            999 V2000
  -30.6356  -14.7136   20.4888 C   0  0  0  0  0  0
  -30.4337  -12.4462   19.4549 C   0  0  0  0  0  0
  -29.5039  -12.5035   18.2241 C   0  0  0  0  0  0
  -28.0314  -12.3292   18.6446 C   0  0  0  0  0  0
  -27.6425  -13.2284   19.8483 C   0  0  2  0  0  0
  -28.6912  -13.1531   20.9783 C   0  0  0  0  0  0
  -25.2522  -13.8192   20.5699 C   0  0  0  0  0  0
  -24.1810  -13.0439   20.9209 C   0  0  0  0  0  0
  -24.6398  -11.6919   20.8748 C   0  0  0  0  0  0
  -23.9073  -10.4294   21.0407 C   0  0  0  0  0  0
  -24.3623   -9.4209   21.9186 C   0  0  0  0  0  0
  -23.6298   -8.2246   22.0754 C   0  0  0  0  0  0
  -22.4280   -8.0284   21.3544 C   0  0  0  0  0  0
  -21.9918   -9.0256   20.4644 C   0  0  0  0  0  0
  -22.7246  -10.2136   20.3054 C   0  0  0  0  0  0
  -21.6852   -6.0740   22.5280 C   0  0  0  0  0  0
  -21.4015   -6.5641   23.8212 C   0  0  0  0  0  0
  -21.3658   -5.6794   24.9174 C   0  0  0  0  0  0
  -21.6044   -4.3056   24.7224 C   0  0  0  0  0  0
  -21.8820   -3.8151   23.4342 C   0  0  0  0  0  0
  -21.9194   -4.6969   22.3400 C   0  0  0  0  0  0
  -22.7831  -13.5221   21.1869 C   0  0  0  0  0  0
  -22.1663   -4.2153   21.0976 F   0  0  0  0  0  0
  -21.5628   -3.4538   25.7736 F   0  0  0  0  0  0
  -29.9899  -13.5034   20.3890 N   0  0  0  0  0  0
  -26.2947  -12.9395   20.3282 N   0  0  0  0  0  0
  -25.9327  -11.6539   20.5755 N   0  0  0  0  0  0
  -22.0478  -12.8205   22.0419 N   0  0  0  0  0  0
  -25.4207  -15.1919   20.4119 N   0  0  0  0  0  0
  -31.8290  -14.8051   20.1917 O   0  0  0  0  0  0
  -21.6640   -6.8883   21.4241 O   0  0  0  0  0  0
  -22.3512  -14.5528   20.6716 O   0  0  0  0  0  0
  -24.6312  -31.8569   23.1996 C   0  0  0  0  0  0
  -25.9137  -32.4760   23.8340 C   0  0  1  0  0  0
  -27.2171  -27.2662   20.1213 C   0  0  0  0  0  0
  -25.5925  -33.8558   24.2260 N   0  0  0  0  0  0
  -23.4279  -30.4818   21.5437 C   0  0  2  0  0  0
  -24.8735  -28.9344   20.1099 C   0  0  0  0  0  0
  -22.7503  -29.4611   22.4906 C   0  0  0  0  0  0
  -18.0294  -28.1386   22.8486 C   0  0  0  0  0  0
  -24.1489  -36.7290   23.2640 C   0  0  0  0  0  0
  -25.9754  -30.7714   21.3804 C   0  0  0  0  0  0
  -26.0481  -29.3963   20.7180 C   0  0  0  0  0  0
  -27.2232  -28.5761   20.7112 C   0  0  0  0  0  0
  -26.0150  -26.8779   19.4819 C   0  0  0  0  0  0
  -24.8624  -27.6827   19.4810 C   0  0  0  0  0  0
  -23.6458  -29.8214   20.1589 C   0  0  0  0  0  0
  -25.4115  -36.3072   24.0325 C   0  0  1  0  0  0
  -20.5900  -28.3700   23.1259 C   0  0  2  0  0  0
  -20.6784  -26.9415   22.5405 C   0  0  0  0  0  0
  -19.5755  -26.6386   21.5209 C   0  0  0  0  0  0
  -18.1935  -26.7930   22.1622 C   0  0  0  0  0  0
  -19.1550  -28.8859   23.2868 C   0  0  0  0  0  0
  -18.9475  -30.1459   23.8889 C   0  0  0  0  0  0
  -17.6474  -30.6590   24.0561 C   0  0  0  0  0  0
  -25.9057  -34.9441   23.5099 C   0  0  0  0  0  0
  -16.5363  -29.9087   23.6329 C   0  0  0  0  0  0
  -16.7281  -28.6502   23.0353 C   0  0  0  0  0  0
  -26.4499  -31.6580   25.0729 C   0  0  0  0  0  0
  -25.3709  -31.3731   26.1440 C   0  0  0  0  0  0
  -27.0348  -30.2989   24.6225 C   0  0  0  0  0  0
  -27.6053  -32.4325   25.7505 C   0  0  0  0  0  0
  -27.5582  -37.1795   24.8462 C   0  0  0  0  0  0
  -21.4211  -29.3048   22.3646 N   0  0  0  0  0  0
  -26.4294  -37.3769   23.9408 N   0  0  0  0  0  0
  -24.6974  -31.0539   22.0976 N   0  0  0  0  0  0
  -23.4200  -28.8146   23.3001 O   0  0  0  0  0  0
  -28.3046  -26.3591   20.1823 O   0  0  0  0  0  0
  -26.5640  -34.8922   22.4674 O   0  0  0  0  0  0
  -23.5461  -32.1385   23.7294 O   0  0  0  0  0  0
  -29.3230  -20.8314   20.2705 C   0  0  0  0  0  0
  -29.0992  -19.5923   21.0146 C   0  0  0  0  0  0
  -30.3848  -20.5248   19.4536 C   0  0  0  0  0  0
  -30.0204  -18.6007   20.6652 C   0  0  0  0  0  0
  -31.0356  -21.3745   18.3943 C   0  0  0  0  0  0
  -32.1414  -19.1838   17.6212 C   0  0  0  0  0  0
  -32.2112  -20.7202   17.6323 C   0  0  1  0  0  0
  -31.9695  -18.5983   19.0344 C   0  0  1  0  0  0
  -28.0205  -19.4120   22.0522 C   0  0  0  0  0  0
  -33.2521  -18.7642   19.8765 C   0  0  0  0  0  0
  -28.4603  -22.1790   20.2768 C   0  0  0  0  0  0
  -30.3775  -17.1839   21.2798 C   0  0  0  0  0  0
  -29.0535  -23.6864   20.3336 C   0  0  0  0  0  0
  -28.0037  -24.8888   20.0682 C   0  0  0  0  0  0
  -30.8162  -19.2096   19.6948 N   0  0  0  0  0  0
  -29.8893  -15.8444   20.7601 N   0  0  0  0  0  0
  -32.2688  -21.1894   16.2937 O   0  0  0  0  0  0
  -31.4723  -12.5762   19.1451 H   0  0  0  0  0  0
  -30.3834  -11.4679   19.9353 H   0  0  0  0  0  0
  -29.7809  -11.7314   17.5049 H   0  0  0  0  0  0
  -29.6286  -13.4585   17.7114 H   0  0  0  0  0  0
  -27.8878  -11.2803   18.9071 H   0  0  0  0  0  0
  -27.3705  -12.5222   17.7988 H   0  0  0  0  0  0
  -27.6395  -14.2511   19.4711 H   0  0  0  0  0  0
  -28.7263  -12.1519   21.4102 H   0  0  0  0  0  0
  -28.4311  -13.8287   21.7949 H   0  0  0  0  0  0
  -25.2769   -9.5684   22.4760 H   0  0  0  0  0  0
  -24.0005   -7.4636   22.7473 H   0  0  0  0  0  0
  -21.0851   -8.8777   19.8946 H   0  0  0  0  0  0
  -22.3709  -10.9676   19.6160 H   0  0  0  0  0  0
  -21.2007   -7.6149   23.9717 H   0  0  0  0  0  0
  -21.1478   -6.0521   25.9076 H   0  0  0  0  0  0
  -22.0601   -2.7612   23.2840 H   0  0  0  0  0  0
  -22.4100  -11.9861   22.4791 H   0  0  0  0  0  0
  -21.1095  -13.1219   22.2629 H   0  0  0  0  0  0
  -24.6507  -15.8429   20.5214 H   0  0  0  0  0  0
  -26.2645  -15.6343   20.0711 H   0  0  0  0  0  0
  -26.7202  -32.5417   23.1083 H   0  0  0  0  0  0
  -25.0024  -33.9687   25.0372 H   0  0  0  0  0  0
  -22.7250  -31.3050   21.4003 H   0  0  0  0  0  0
  -23.3754  -35.9621   23.3302 H   0  0  0  0  0  0
  -24.3575  -36.8919   22.2055 H   0  0  0  0  0  0
  -23.7240  -37.6487   23.6671 H   0  0  0  0  0  0
  -26.1168  -31.5360   20.6155 H   0  0  0  0  0  0
  -26.8512  -30.8153   22.0164 H   0  0  0  0  0  0
  -28.1218  -28.9241   21.2018 H   0  0  0  0  0  0
  -25.9225  -25.9258   18.9837 H   0  0  0  0  0  0
  -23.9631  -27.3246   18.9976 H   0  0  0  0  0  0
  -23.7712  -30.6005   19.4059 H   0  0  0  0  0  0
  -22.7631  -29.2569   19.8524 H   0  0  0  0  0  0
  -25.1292  -36.1927   25.0816 H   0  0  0  0  0  0
  -20.9997  -28.3298   24.1376 H   0  0  0  0  0  0
  -20.5688  -26.2314   23.3616 H   0  0  0  0  0  0
  -21.6650  -26.7439   22.1192 H   0  0  0  0  0  0
  -19.6918  -25.6296   21.1241 H   0  0  0  0  0  0
  -19.6694  -27.3197   20.6740 H   0  0  0  0  0  0
  -17.4202  -26.6684   21.4025 H   0  0  0  0  0  0
  -18.0330  -26.0076   22.9021 H   0  0  0  0  0  0
  -19.7956  -30.7268   24.2263 H   0  0  0  0  0  0
  -17.5033  -31.6270   24.5164 H   0  0  0  0  0  0
  -15.5363  -30.2981   23.7663 H   0  0  0  0  0  0
  -15.8685  -28.0816   22.7070 H   0  0  0  0  0  0
  -24.5910  -30.7050   25.7769 H   0  0  0  0  0  0
  -24.8863  -32.2894   26.4816 H   0  0  0  0  0  0
  -25.8013  -30.8950   27.0246 H   0  0  0  0  0  0
  -26.2935  -29.6730   24.1238 H   0  0  0  0  0  0
  -27.4004  -29.7257   25.4754 H   0  0  0  0  0  0
  -27.8828  -30.4252   23.9490 H   0  0  0  0  0  0
  -27.2659  -33.3637   26.2052 H   0  0  0  0  0  0
  -28.3873  -32.6858   25.0335 H   0  0  0  0  0  0
  -28.0704  -31.8465   26.5439 H   0  0  0  0  0  0
  -28.2585  -38.0106   24.7511 H   0  0  0  0  0  0
  -28.1092  -36.2631   24.6284 H   0  0  0  0  0  0
  -27.2298  -37.1435   25.8865 H   0  0  0  0  0  0
  -20.9401  -29.8786   21.6862 H   0  0  0  0  0  0
  -26.0179  -38.2846   24.1414 H   0  0  0  0  0  0
  -31.3840  -22.3091   18.8338 H   0  0  0  0  0  0
  -30.2570  -21.6560   17.6838 H   0  0  0  0  0  0
  -33.0315  -18.7663   17.1489 H   0  0  0  0  0  0
  -31.2958  -18.8647   17.0100 H   0  0  0  0  0  0
  -33.1391  -21.0114   18.1270 H   0  0  0  0  0  0
  -31.7691  -17.5318   18.9212 H   0  0  0  0  0  0
  -27.0894  -19.8758   21.7260 H   0  0  0  0  0  0
  -28.3200  -19.8685   22.9955 H   0  0  0  0  0  0
  -27.8208  -18.3555   22.2318 H   0  0  0  0  0  0
  -33.4843  -19.8116   20.0644 H   0  0  0  0  0  0
  -34.1091  -18.3203   19.3696 H   0  0  0  0  0  0
  -33.1767  -18.2830   20.8493 H   0  0  0  0  0  0
  -27.7397  -22.0930   21.0890 H   0  0  0  0  0  0
  -27.8561  -22.1192   19.3711 H   0  0  0  0  0  0
  -30.0471  -17.2047   22.3184 H   0  0  0  0  0  0
  -31.4573  -17.1084   21.3809 H   0  0  0  0  0  0
  -29.8471  -23.7854   19.5958 H   0  0  0  0  0  0
  -29.5284  -23.8343   21.3034 H   0  0  0  0  0  0
  -27.1496  -24.6949   20.7193 H   0  0  0  0  0  0
  -27.6529  -24.7186   19.0505 H   0  0  0  0  0  0
  -28.8990  -15.6864   20.8594 H   0  0  0  0  0  0
  -32.4300  -22.1296   16.3184 H   0  0  0  0  0  0
  1 25  1  0  0  0
  1 30  2  0  0  0
  1 86  1  0  0  0
  2  3  1  0  0  0
  2 25  1  0  0  0
  2 88  1  0  0  0
  2 89  1  0  0  0
  3  4  1  0  0  0
  3 90  1  0  0  0
  3 91  1  0  0  0
  4  5  1  0  0  0
  4 92  1  0  0  0
  4 93  1  0  0  0
  5  6  1  0  0  0
  5 26  1  0  0  0
  5 94  1  0  0  0
  6 25  1  0  0  0
  6 95  1  0  0  0
  6 96  1  0  0  0
  7  8  2  0  0  0
  7 26  1  0  0  0
  7 29  1  0  0  0
  8  9  1  0  0  0
  8 22  1  0  0  0
  9 10  1  0  0  0
  9 27  2  0  0  0
 10 11  2  0  0  0
 10 15  1  0  0  0
 11 12  1  0  0  0
 11 97  1  0  0  0
 12 13  2  0  0  0
 12 98  1  0  0  0
 13 14  1  0  0  0
 13 31  1  0  0  0
 14 15  2  0  0  0
 14 99  1  0  0  0
 15100  1  0  0  0
 16 17  2  0  0  0
 16 21  1  0  0  0
 16 31  1  0  0  0
 17 18  1  0  0  0
 17101  1  0  0  0
 18 19  2  0  0  0
 18102  1  0  0  0
 19 20  1  0  0  0
 19 24  1  0  0  0
 20 21  2  0  0  0
 20103  1  0  0  0
 21 23  1  0  0  0
 22 28  1  0  0  0
 22 32  2  0  0  0
 26 27  1  0  0  0
 28104  1  0  0  0
 28105  1  0  0  0
 29106  1  0  0  0
 29107  1  0  0  0
 33 34  1  0  0  0
 33 66  1  0  0  0
 33 70  2  0  0  0
 34 36  1  0  0  0
 34 59  1  0  0  0
 34108  1  0  0  0
 35 44  2  0  0  0
 35 45  1  0  0  0
 35 68  1  0  0  0
 36 56  1  0  0  0
 36109  1  0  0  0
 37 39  1  0  0  0
 37 47  1  0  0  0
 37 66  1  0  0  0
 37110  1  0  0  0
 38 43  2  0  0  0
 38 46  1  0  0  0
 38 47  1  0  0  0
 39 64  1  0  0  0
 39 67  2  0  0  0
 40 52  1  0  0  0
 40 53  2  0  0  0
 40 58  1  0  0  0
 41111  1  0  0  0
 41112  1  0  0  0
 41113  1  0  0  0
 41 48  1  0  0  0
 42 43  1  0  0  0
 42 66  1  0  0  0
 42114  1  0  0  0
 42115  1  0  0  0
 43 44  1  0  0  0
 44116  1  0  0  0
 45 46  2  0  0  0
 45117  1  0  0  0
 46118  1  0  0  0
 47119  1  0  0  0
 47120  1  0  0  0
 48 56  1  0  0  0
 48 65  1  0  0  0
 48121  1  0  0  0
 49 50  1  0  0  0
 49 53  1  0  0  0
 49 64  1  0  0  0
 49122  1  0  0  0
 50 51  1  0  0  0
 50123  1  0  0  0
 50124  1  0  0  0
 51 52  1  0  0  0
 51125  1  0  0  0
 51126  1  0  0  0
 52127  1  0  0  0
 52128  1  0  0  0
 53 54  1  0  0  0
 54 55  2  0  0  0
 54129  1  0  0  0
 55 57  1  0  0  0
 55130  1  0  0  0
 56 69  2  0  0  0
 57 58  2  0  0  0
 57131  1  0  0  0
 58132  1  0  0  0
 59 60  1  0  0  0
 59 61  1  0  0  0
 59 62  1  0  0  0
 60133  1  0  0  0
 60134  1  0  0  0
 60135  1  0  0  0
 61136  1  0  0  0
 61137  1  0  0  0
 61138  1  0  0  0
 62139  1  0  0  0
 62140  1  0  0  0
 62141  1  0  0  0
 63 65  1  0  0  0
 63142  1  0  0  0
 63143  1  0  0  0
 63144  1  0  0  0
 64145  1  0  0  0
 65146  1  0  0  0
 68 84  1  0  0  0
 71 72  1  0  0  0
 71 73  2  0  0  0
 71 81  1  0  0  0
 72 74  2  0  0  0
 72 79  1  0  0  0
 73 75  1  0  0  0
 73 85  1  0  0  0
 74 82  1  0  0  0
 74 85  1  0  0  0
 75 77  1  0  0  0
 75147  1  0  0  0
 75148  1  0  0  0
 76 77  1  0  0  0
 76 78  1  0  0  0
 76149  1  0  0  0
 76150  1  0  0  0
 77 87  1  0  0  0
 77151  1  0  0  0
 78 80  1  0  0  0
 78 85  1  0  0  0
 78152  1  0  0  0
 79153  1  0  0  0
 79154  1  0  0  0
 79155  1  0  0  0
 80156  1  0  0  0
 80157  1  0  0  0
 80158  1  0  0  0
 81 83  1  0  0  0
 81159  1  0  0  0
 81160  1  0  0  0
 82 86  1  0  0  0
 82161  1  0  0  0
 82162  1  0  0  0
 83 84  1  0  0  0
 83163  1  0  0  0
 83164  1  0  0  0
 84165  1  0  0  0
 84166  1  0  0  0
 86167  1  0  0  0
 87168  1  0  0  0
M  ISO  4   1 100  68 101  84 101  86 100
M  END
> <chiral flag>
0

> <version>
0

> <s_m_source_file>
/data/baiqing/PycharmProjects/Reinvent-master-3.2/result/LINK_invent/BTK/process_docking_weight1_custom_sum_contain_oxygen_bond_distance_aromatic_linkinvent_7_9_3/rearranged_h_0136.sdf

> <i_m_source_file_index>
62

> <r_mmod_Potential_Energy-OPLS-2005>
76.502555847168

> <r_mmod_Stretch_Energy-OPLS-2005>
115.75700378418

> <r_mmod_Bend_Energy-OPLS-2005>
181.36833190918

> <r_mmod_Torsional_Energy-OPLS-2005>
249.447799682617

> <r_mmod_Improper_Torsional_Energy-OPLS-2005>
5.47596073150635

> <r_mmod_Van_der_Waal_Energy-OPLS-2005>
121.587875366211

> <r_mmod_Electrostatic_Energy-OPLS-2005>
-445.675842285156

> <r_mmod_Solvation_Energy-OPLS-2005>
-230.929779052734

> <b_mmod_Minimization_Converged-OPLS-2005>
0

> <r_mmod_RMS_Derivative-OPLS-2005>
0.989502310752869

$$$$
65
                    3D
 Structure written by MMmdl.
172180  0  0  1  0            999 V2000
  -30.7054  -14.4490   20.5957 C   0  0  0  0  0  0
  -30.4235  -12.2996   19.4238 C   0  0  0  0  0  0
  -29.4949  -12.5113   18.2091 C   0  0  0  0  0  0
  -28.0166  -12.3656   18.6223 C   0  0  0  0  0  0
  -27.6625  -13.2041   19.8796 C   0  0  2  0  0  0
  -28.7013  -12.9718   21.0013 C   0  0  0  0  0  0
  -25.2568  -13.8159   20.5662 C   0  0  0  0  0  0
  -24.1814  -13.0424   20.9158 C   0  0  0  0  0  0
  -24.6364  -11.6894   20.8694 C   0  0  0  0  0  0
  -23.9023  -10.4282   21.0353 C   0  0  0  0  0  0
  -24.3583   -9.4217   21.9144 C   0  0  0  0  0  0
  -23.6268   -8.2248   22.0733 C   0  0  0  0  0  0
  -22.4256   -8.0270   21.3522 C   0  0  0  0  0  0
  -21.9864   -9.0238   20.4631 C   0  0  0  0  0  0
  -22.7179  -10.2125   20.3022 C   0  0  0  0  0  0
  -21.6858   -6.0719   22.5267 C   0  0  0  0  0  0
  -21.4019   -6.5623   23.8197 C   0  0  0  0  0  0
  -21.3658   -5.6777   24.9161 C   0  0  0  0  0  0
  -21.6053   -4.3037   24.7225 C   0  0  0  0  0  0
  -21.8815   -3.8134   23.4338 C   0  0  0  0  0  0
  -21.9190   -4.6948   22.3394 C   0  0  0  0  0  0
  -22.7851  -13.5232   21.1843 C   0  0  0  0  0  0
  -22.1658   -4.2126   21.0973 F   0  0  0  0  0  0
  -21.5634   -3.4528   25.7743 F   0  0  0  0  0  0
  -30.0377  -13.2730   20.4569 N   0  0  0  0  0  0
  -26.3005  -12.9324   20.3372 N   0  0  0  0  0  0
  -25.9293  -11.6482   20.5744 N   0  0  0  0  0  0
  -22.0512  -12.8223   22.0421 N   0  0  0  0  0  0
  -25.4322  -15.1865   20.4057 N   0  0  0  0  0  0
  -31.8023  -14.6676   20.0770 O   0  0  0  0  0  0
  -21.6629   -6.8860   21.4223 O   0  0  0  0  0  0
  -22.3529  -14.5537   20.6696 O   0  0  0  0  0  0
  -24.6128  -31.8696   23.2102 C   0  0  0  0  0  0
  -25.9035  -32.4825   23.8400 C   0  0  1  0  0  0
  -27.2400  -27.4425   20.0916 C   0  0  0  0  0  0
  -25.5897  -33.8625   24.2326 N   0  0  0  0  0  0
  -23.3990  -30.4924   21.5509 C   0  0  2  0  0  0
  -24.8446  -28.9548   20.1167 C   0  0  0  0  0  0
  -22.7402  -29.4674   22.5006 C   0  0  0  0  0  0
  -18.0267  -28.1385   22.8483 C   0  0  0  0  0  0
  -24.1492  -36.7320   23.2636 C   0  0  0  0  0  0
  -25.9266  -30.8351   21.3626 C   0  0  0  0  0  0
  -26.0018  -29.4694   20.7110 C   0  0  0  0  0  0
  -27.1969  -28.7186   20.6978 C   0  0  0  0  0  0
  -26.0564  -26.9310   19.5081 C   0  0  0  0  0  0
  -24.8662  -27.6839   19.5156 C   0  0  0  0  0  0
  -23.6052  -29.8203   20.1672 C   0  0  0  0  0  0
  -25.4114  -36.3116   24.0337 C   0  0  1  0  0  0
  -20.5857  -28.3674   23.1318 C   0  0  2  0  0  0
  -20.6764  -26.9411   22.5418 C   0  0  0  0  0  0
  -19.5746  -26.6391   21.5210 C   0  0  0  0  0  0
  -18.1922  -26.7932   22.1616 C   0  0  0  0  0  0
  -19.1516  -28.8846   23.2897 C   0  0  0  0  0  0
  -18.9445  -30.1454   23.8910 C   0  0  0  0  0  0
  -17.6451  -30.6589   24.0567 C   0  0  0  0  0  0
  -25.9043  -34.9480   23.5130 C   0  0  0  0  0  0
  -16.5341  -29.9095   23.6320 C   0  0  0  0  0  0
  -16.7261  -28.6509   23.0338 C   0  0  0  0  0  0
  -26.4460  -31.6603   25.0726 C   0  0  0  0  0  0
  -25.3720  -31.3709   26.1469 C   0  0  0  0  0  0
  -27.0296  -30.3046   24.6107 C   0  0  0  0  0  0
  -27.6056  -32.4310   25.7475 C   0  0  0  0  0  0
  -27.5587  -37.1811   24.8463 C   0  0  0  0  0  0
  -21.4134  -29.3042   22.3735 N   0  0  0  0  0  0
  -26.4299  -37.3795   23.9407 N   0  0  0  0  0  0
  -24.6639  -31.0810   22.0993 N   0  0  0  0  0  0
  -23.4184  -28.8222   23.3045 O   0  0  0  0  0  0
  -28.4442  -26.7683   20.1124 O   0  0  0  0  0  0
  -26.5607  -34.8920   22.4693 O   0  0  0  0  0  0
  -23.5331  -32.1452   23.7507 O   0  0  0  0  0  0
  -28.7578  -20.0892   21.3533 C   0  0  0  0  0  0
  -28.7404  -21.4765   21.0772 C   0  0  0  0  0  0
  -29.7805  -21.0332   18.9370 C   0  0  0  0  0  0
  -29.2635  -19.1534   20.4172 C   0  0  0  0  0  0
  -29.8140  -19.6436   19.1999 C   0  0  0  0  0  0
  -29.2394  -21.9586   19.8465 C   0  0  0  0  0  0
  -34.0755  -16.1038   18.0784 C   0  0  0  0  0  0
  -32.9590  -16.8154   15.9322 C   0  0  0  0  0  0
  -29.0700  -17.6527   20.6913 C   0  0  0  0  0  0
  -30.3509  -18.7328   18.0957 C   0  0  0  0  0  0
  -30.3134  -16.8658   21.1691 C   0  0  0  0  0  0
  -31.7503  -19.1302   17.5494 C   0  0  0  0  0  0
  -28.6383  -25.5757   19.3468 C   0  0  0  0  0  0
  -28.5533  -24.2781   20.1824 C   0  0  0  0  0  0
  -32.8915  -16.8716   17.4723 C   0  0  0  0  0  0
  -30.0213  -15.4242   21.2151 N   0  0  0  0  0  0
  -32.8633  -18.2602   17.9986 N   0  3  0  0  0  0
  -29.2428  -23.2765   19.4370 O   0  0  0  0  0  0
  -31.4686  -12.3970   19.1247 H   0  0  0  0  0  0
  -30.3230  -11.2859   19.8147 H   0  0  0  0  0  0
  -29.7315  -11.7931   17.4228 H   0  0  0  0  0  0
  -29.6654  -13.5019   17.7828 H   0  0  0  0  0  0
  -27.8314  -11.3099   18.8224 H   0  0  0  0  0  0
  -27.3617  -12.6319   17.7922 H   0  0  0  0  0  0
  -27.7094  -14.2520   19.5853 H   0  0  0  0  0  0
  -28.6737  -11.9315   21.3294 H   0  0  0  0  0  0
  -28.4570  -13.5605   21.8872 H   0  0  0  0  0  0
  -25.2726   -9.5700   22.4713 H   0  0  0  0  0  0
  -23.9975   -7.4642   22.7453 H   0  0  0  0  0  0
  -21.0794   -8.8730   19.8949 H   0  0  0  0  0  0
  -22.3600  -10.9646   19.6135 H   0  0  0  0  0  0
  -21.2004   -7.6133   23.9684 H   0  0  0  0  0  0
  -21.1493   -6.0518   25.9059 H   0  0  0  0  0  0
  -22.0596   -2.7594   23.2845 H   0  0  0  0  0  0
  -22.4148  -11.9879   22.4774 H   0  0  0  0  0  0
  -21.1137  -13.1237   22.2666 H   0  0  0  0  0  0
  -24.6695  -15.8461   20.5117 H   0  0  0  0  0  0
  -26.2874  -15.6182   20.0797 H   0  0  0  0  0  0
  -26.7107  -32.5533   23.1170 H   0  0  0  0  0  0
  -25.0038  -33.9793   25.0464 H   0  0  0  0  0  0
  -22.6866  -31.3091   21.4122 H   0  0  0  0  0  0
  -23.3744  -35.9663   23.3312 H   0  0  0  0  0  0
  -24.3580  -36.8918   22.2045 H   0  0  0  0  0  0
  -23.7248  -37.6530   23.6643 H   0  0  0  0  0  0
  -26.0422  -31.5997   20.5930 H   0  0  0  0  0  0
  -26.8148  -30.8873   21.9814 H   0  0  0  0  0  0
  -28.0931  -29.1205   21.1495 H   0  0  0  0  0  0
  -26.0227  -25.9516   19.0567 H   0  0  0  0  0  0
  -23.9710  -27.2767   19.0648 H   0  0  0  0  0  0
  -23.7133  -30.5927   19.4055 H   0  0  0  0  0  0
  -22.7284  -29.2402   19.8703 H   0  0  0  0  0  0
  -25.1287  -36.1986   25.0828 H   0  0  0  0  0  0
  -20.9942  -28.3244   24.1443 H   0  0  0  0  0  0
  -20.5667  -26.2288   23.3609 H   0  0  0  0  0  0
  -21.6637  -26.7468   22.1210 H   0  0  0  0  0  0
  -19.6916  -25.6304   21.1235 H   0  0  0  0  0  0
  -19.6680  -27.3204   20.6742 H   0  0  0  0  0  0
  -17.4191  -26.6666   21.4019 H   0  0  0  0  0  0
  -18.0334  -26.0078   22.9020 H   0  0  0  0  0  0
  -19.7924  -30.7260   24.2288 H   0  0  0  0  0  0
  -17.5007  -31.6265   24.5177 H   0  0  0  0  0  0
  -15.5343  -30.3003   23.7645 H   0  0  0  0  0  0
  -15.8655  -28.0840   22.7048 H   0  0  0  0  0  0
  -24.5888  -30.7070   25.7782 H   0  0  0  0  0  0
  -24.8918  -32.2868   26.4927 H   0  0  0  0  0  0
  -25.8058  -30.8850   27.0221 H   0  0  0  0  0  0
  -26.2848  -29.6802   24.1158 H   0  0  0  0  0  0
  -27.4059  -29.7284   25.4572 H   0  0  0  0  0  0
  -27.8686  -30.4359   23.9269 H   0  0  0  0  0  0
  -27.2697  -33.3597   26.2103 H   0  0  0  0  0  0
  -28.3834  -32.6890   25.0273 H   0  0  0  0  0  0
  -28.0770  -31.8404   26.5339 H   0  0  0  0  0  0
  -28.2612  -38.0102   24.7510 H   0  0  0  0  0  0
  -28.1076  -36.2634   24.6295 H   0  0  0  0  0  0
  -27.2307  -37.1469   25.8866 H   0  0  0  0  0  0
  -20.9317  -29.8741   21.6922 H   0  0  0  0  0  0
  -26.0194  -38.2881   24.1384 H   0  0  0  0  0  0
  -28.3393  -19.7400   22.2871 H   0  0  0  0  0  0
  -28.3233  -22.1508   21.8123 H   0  0  0  0  0  0
  -30.1434  -21.4109   17.9913 H   0  0  0  0  0  0
  -34.0704  -15.0661   17.7473 H   0  0  0  0  0  0
  -34.0307  -16.0938   19.1677 H   0  0  0  0  0  0
  -35.0305  -16.5385   17.7820 H   0  0  0  0  0  0
  -33.0700  -15.7857   15.5921 H   0  0  0  0  0  0
  -33.8050  -17.3846   15.5437 H   0  0  0  0  0  0
  -32.0528  -17.1969   15.4633 H   0  0  0  0  0  0
  -28.6592  -17.1918   19.7925 H   0  0  0  0  0  0
  -28.2840  -17.5409   21.4404 H   0  0  0  0  0  0
  -29.6346  -18.8019   17.2763 H   0  0  0  0  0  0
  -30.3274  -17.6869   18.3866 H   0  0  0  0  0  0
  -31.1584  -17.0650   20.5090 H   0  0  0  0  0  0
  -30.6139  -17.2003   22.1627 H   0  0  0  0  0  0
  -32.0081  -20.1466   17.8454 H   0  0  0  0  0  0
  -31.7223  -19.1643   16.4610 H   0  0  0  0  0  0
  -28.0240  -25.5203   18.4480 H   0  0  0  0  0  0
  -29.6585  -25.6560   18.9679 H   0  0  0  0  0  0
  -27.5140  -24.0029   20.3669 H   0  0  0  0  0  0
  -29.0481  -24.4186   21.1446 H   0  0  0  0  0  0
  -31.9831  -16.3581   17.7887 H   0  0  0  0  0  0
  -29.1435  -15.1472   21.6276 H   0  0  0  0  0  0
  -32.8689  -18.2371   19.0060 H   0  0  0  0  0  0
  -33.7210  -18.7124   17.7210 H   0  0  0  0  0  0
  1 25  1  0  0  0
  1 30  2  0  0  0
  1 86  1  0  0  0
  2  3  1  0  0  0
  2 25  1  0  0  0
  2 89  1  0  0  0
  2 90  1  0  0  0
  3  4  1  0  0  0
  3 91  1  0  0  0
  3 92  1  0  0  0
  4  5  1  0  0  0
  4 93  1  0  0  0
  4 94  1  0  0  0
  5  6  1  0  0  0
  5 26  1  0  0  0
  5 95  1  0  0  0
  6 25  1  0  0  0
  6 96  1  0  0  0
  6 97  1  0  0  0
  7  8  2  0  0  0
  7 26  1  0  0  0
  7 29  1  0  0  0
  8  9  1  0  0  0
  8 22  1  0  0  0
  9 10  1  0  0  0
  9 27  2  0  0  0
 10 11  2  0  0  0
 10 15  1  0  0  0
 11 12  1  0  0  0
 11 98  1  0  0  0
 12 13  2  0  0  0
 12 99  1  0  0  0
 13 14  1  0  0  0
 13 31  1  0  0  0
 14 15  2  0  0  0
 14100  1  0  0  0
 15101  1  0  0  0
 16 17  2  0  0  0
 16 21  1  0  0  0
 16 31  1  0  0  0
 17 18  1  0  0  0
 17102  1  0  0  0
 18 19  2  0  0  0
 18103  1  0  0  0
 19 20  1  0  0  0
 19 24  1  0  0  0
 20 21  2  0  0  0
 20104  1  0  0  0
 21 23  1  0  0  0
 22 28  1  0  0  0
 22 32  2  0  0  0
 26 27  1  0  0  0
 28105  1  0  0  0
 28106  1  0  0  0
 29107  1  0  0  0
 29108  1  0  0  0
 33 34  1  0  0  0
 33 66  1  0  0  0
 33 70  2  0  0  0
 34 36  1  0  0  0
 34 59  1  0  0  0
 34109  1  0  0  0
 35 44  2  0  0  0
 35 45  1  0  0  0
 35 68  1  0  0  0
 36 56  1  0  0  0
 36110  1  0  0  0
 37 39  1  0  0  0
 37 47  1  0  0  0
 37 66  1  0  0  0
 37111  1  0  0  0
 38 43  2  0  0  0
 38 46  1  0  0  0
 38 47  1  0  0  0
 39 64  1  0  0  0
 39 67  2  0  0  0
 40 52  1  0  0  0
 40 53  2  0  0  0
 40 58  1  0  0  0
 41112  1  0  0  0
 41113  1  0  0  0
 41114  1  0  0  0
 41 48  1  0  0  0
 42 43  1  0  0  0
 42 66  1  0  0  0
 42115  1  0  0  0
 42116  1  0  0  0
 43 44  1  0  0  0
 44117  1  0  0  0
 45 46  2  0  0  0
 45118  1  0  0  0
 46119  1  0  0  0
 47120  1  0  0  0
 47121  1  0  0  0
 48 56  1  0  0  0
 48 65  1  0  0  0
 48122  1  0  0  0
 49 50  1  0  0  0
 49 53  1  0  0  0
 49 64  1  0  0  0
 49123  1  0  0  0
 50 51  1  0  0  0
 50124  1  0  0  0
 50125  1  0  0  0
 51 52  1  0  0  0
 51126  1  0  0  0
 51127  1  0  0  0
 52128  1  0  0  0
 52129  1  0  0  0
 53 54  1  0  0  0
 54 55  2  0  0  0
 54130  1  0  0  0
 55 57  1  0  0  0
 55131  1  0  0  0
 56 69  2  0  0  0
 57 58  2  0  0  0
 57132  1  0  0  0
 58133  1  0  0  0
 59 60  1  0  0  0
 59 61  1  0  0  0
 59 62  1  0  0  0
 60134  1  0  0  0
 60135  1  0  0  0
 60136  1  0  0  0
 61137  1  0  0  0
 61138  1  0  0  0
 61139  1  0  0  0
 62140  1  0  0  0
 62141  1  0  0  0
 62142  1  0  0  0
 63 65  1  0  0  0
 63143  1  0  0  0
 63144  1  0  0  0
 63145  1  0  0  0
 64146  1  0  0  0
 65147  1  0  0  0
 68 83  1  0  0  0
 71 72  2  0  0  0
 71 74  1  0  0  0
 71148  1  0  0  0
 72 76  1  0  0  0
 72149  1  0  0  0
 73 75  1  0  0  0
 73 76  2  0  0  0
 73150  1  0  0  0
 74 75  2  0  0  0
 74 79  1  0  0  0
 75 80  1  0  0  0
 76 88  1  0  0  0
 77151  1  0  0  0
 77152  1  0  0  0
 77153  1  0  0  0
 77 85  1  0  0  0
 78 85  1  0  0  0
 78154  1  0  0  0
 78155  1  0  0  0
 78156  1  0  0  0
 79 81  1  0  0  0
 79157  1  0  0  0
 79158  1  0  0  0
 80 82  1  0  0  0
 80159  1  0  0  0
 80160  1  0  0  0
 81 86  1  0  0  0
 81161  1  0  0  0
 81162  1  0  0  0
 82 87  1  0  0  0
 82163  1  0  0  0
 82164  1  0  0  0
 83 84  1  0  0  0
 83165  1  0  0  0
 83166  1  0  0  0
 84 88  1  0  0  0
 84167  1  0  0  0
 84168  1  0  0  0
 85 87  1  0  0  0
 85169  1  0  0  0
 86170  1  0  0  0
 87171  1  0  0  0
 87172  1  0  0  0
M  CHG  1  87   1
M  ISO  4   1 100  68 101  83 101  86 100
M  END
> <chiral flag>
0

> <version>
0

> <s_m_source_file>
/data/baiqing/PycharmProjects/Reinvent-master-3.2/result/LINK_invent/BTK/process_docking_weight1_custom_sum_contain_oxygen_bond_distance_aromatic_linkinvent_7_9_3/rearranged_h_0136.sdf

> <i_m_source_file_index>
63

> <r_mmod_Potential_Energy-OPLS-2005>
-203.404724121094

> <r_mmod_Stretch_Energy-OPLS-2005>
38.2958221435547

> <r_mmod_Bend_Energy-OPLS-2005>
125.623741149902

> <r_mmod_Torsional_Energy-OPLS-2005>
225.215774536133

> <r_mmod_Improper_Torsional_Energy-OPLS-2005>
4.23792409896851

> <r_mmod_Van_der_Waal_Energy-OPLS-2005>
148.655288696289

> <r_mmod_Electrostatic_Energy-OPLS-2005>
-324.763153076172

> <r_mmod_Solvation_Energy-OPLS-2005>
-431.589965820312

> <b_mmod_Minimization_Converged-OPLS-2005>
0

> <r_mmod_RMS_Derivative-OPLS-2005>
2.26249289512634

$$$$
66
                    3D
 Structure written by MMmdl.
160168  0  0  1  0            999 V2000
  -30.7024  -14.5801   20.5154 C   0  0  0  0  0  0
  -30.4149  -12.3368   19.4487 C   0  0  0  0  0  0
  -29.4989  -12.4924   18.2180 C   0  0  0  0  0  0
  -28.0205  -12.3468   18.6270 C   0  0  0  0  0  0
  -27.6457  -13.2241   19.8527 C   0  0  2  0  0  0
  -28.6786  -13.0912   20.9887 C   0  0  0  0  0  0
  -25.2515  -13.8200   20.5665 C   0  0  0  0  0  0
  -24.1798  -13.0452   20.9173 C   0  0  0  0  0  0
  -24.6376  -11.6922   20.8715 C   0  0  0  0  0  0
  -23.9056  -10.4299   21.0392 C   0  0  0  0  0  0
  -24.3614   -9.4216   21.9171 C   0  0  0  0  0  0
  -23.6294   -8.2247   22.0749 C   0  0  0  0  0  0
  -22.4276   -8.0278   21.3541 C   0  0  0  0  0  0
  -21.9908   -9.0246   20.4637 C   0  0  0  0  0  0
  -22.7230  -10.2127   20.3041 C   0  0  0  0  0  0
  -21.6856   -6.0733   22.5281 C   0  0  0  0  0  0
  -21.4015   -6.5637   23.8213 C   0  0  0  0  0  0
  -21.3660   -5.6789   24.9177 C   0  0  0  0  0  0
  -21.6046   -4.3053   24.7226 C   0  0  0  0  0  0
  -21.8822   -3.8146   23.4349 C   0  0  0  0  0  0
  -21.9193   -4.6961   22.3407 C   0  0  0  0  0  0
  -22.7821  -13.5224   21.1864 C   0  0  0  0  0  0
  -22.1660   -4.2143   21.0983 F   0  0  0  0  0  0
  -21.5629   -3.4539   25.7742 F   0  0  0  0  0  0
  -30.0050  -13.3568   20.4281 N   0  0  0  0  0  0
  -26.2936  -12.9399   20.3251 N   0  0  0  0  0  0
  -25.9298  -11.6541   20.5705 N   0  0  0  0  0  0
  -22.0480  -12.8200   22.0417 N   0  0  0  0  0  0
  -25.4253  -15.1922   20.4118 N   0  0  0  0  0  0
  -31.8666  -14.7167   20.1388 O   0  0  0  0  0  0
  -21.6643   -6.8877   21.4243 O   0  0  0  0  0  0
  -22.3490  -14.5532   20.6721 O   0  0  0  0  0  0
  -24.6251  -31.8631   23.2073 C   0  0  0  0  0  0
  -25.9114  -32.4794   23.8375 C   0  0  1  0  0  0
  -27.2089  -27.3267   20.1097 C   0  0  0  0  0  0
  -25.5927  -33.8596   24.2278 N   0  0  0  0  0  0
  -23.4175  -30.4908   21.5507 C   0  0  2  0  0  0
  -24.8607  -28.9575   20.1092 C   0  0  0  0  0  0
  -22.7475  -29.4640   22.4951 C   0  0  0  0  0  0
  -18.0285  -28.1383   22.8490 C   0  0  0  0  0  0
  -24.1488  -36.7307   23.2637 C   0  0  0  0  0  0
  -25.9612  -30.7918   21.3865 C   0  0  0  0  0  0
  -26.0307  -29.4254   20.7194 C   0  0  0  0  0  0
  -27.2086  -28.6194   20.7170 C   0  0  0  0  0  0
  -26.0186  -26.9289   19.4524 C   0  0  0  0  0  0
  -24.8562  -27.7136   19.4666 C   0  0  0  0  0  0
  -23.6300  -29.8355   20.1627 C   0  0  0  0  0  0
  -25.4112  -36.3093   24.0321 C   0  0  1  0  0  0
  -20.5887  -28.3688   23.1286 C   0  0  2  0  0  0
  -20.6789  -26.9419   22.5400 C   0  0  0  0  0  0
  -19.5757  -26.6389   21.5212 C   0  0  0  0  0  0
  -18.1931  -26.7931   22.1626 C   0  0  0  0  0  0
  -19.1537  -28.8851   23.2884 C   0  0  0  0  0  0
  -18.9474  -30.1464   23.8891 C   0  0  0  0  0  0
  -17.6476  -30.6596   24.0563 C   0  0  0  0  0  0
  -25.9052  -34.9464   23.5101 C   0  0  0  0  0  0
  -16.5362  -29.9089   23.6347 C   0  0  0  0  0  0
  -16.7273  -28.6507   23.0355 C   0  0  0  0  0  0
  -26.4472  -31.6620   25.0764 C   0  0  0  0  0  0
  -25.3676  -31.3802   26.1476 C   0  0  0  0  0  0
  -27.0331  -30.3028   24.6282 C   0  0  0  0  0  0
  -27.6005  -32.4379   25.7553 C   0  0  0  0  0  0
  -27.5580  -37.1813   24.8455 C   0  0  0  0  0  0
  -21.4192  -29.3044   22.3687 N   0  0  0  0  0  0
  -26.4296  -37.3779   23.9388 N   0  0  0  0  0  0
  -24.6856  -31.0643   22.1035 N   0  0  0  0  0  0
  -23.4201  -28.8166   23.3020 O   0  0  0  0  0  0
  -28.3022  -26.4463   20.1883 O   0  0  0  0  0  0
  -26.5628  -34.8934   22.4672 O   0  0  0  0  0  0
  -23.5420  -32.1443   23.7399 O   0  0  0  0  0  0
  -29.6374  -20.3171   19.4503 C   0  0  0  0  0  0
  -29.1781  -19.0260   21.8715 C   0  0  0  0  0  0
  -30.1225  -18.9846   19.6417 C   0  0  0  0  0  0
  -28.9334  -21.0387   20.4470 C   0  0  0  0  0  0
  -29.8874  -18.3039   20.8772 C   0  0  0  0  0  0
  -28.7102  -20.3573   21.6746 C   0  0  0  0  0  0
  -30.8470  -18.3228   18.5124 C   0  0  0  0  0  0
  -27.9399  -21.0230   22.8006 C   0  0  0  0  0  0
  -31.5702  -19.2246   17.5183 C   0  0  0  0  0  0
  -28.2653  -22.4129   20.0963 C   0  0  0  0  0  0
  -30.5559  -16.9393   21.2633 C   0  0  0  0  0  0
  -28.9236  -23.8177   20.4321 C   0  0  0  0  0  0
  -28.0011  -25.0158   19.9608 C   0  0  0  0  0  0
  -30.8983  -17.1037   18.3411 O   0  0  0  0  0  0
  -29.9178  -15.6641   20.9434 O   0  0  0  0  0  0
  -31.4611  -12.4370   19.1566 H   0  0  0  0  0  0
  -30.3144  -11.3384   19.8778 H   0  0  0  0  0  0
  -29.7510  -11.7492   17.4605 H   0  0  0  0  0  0
  -29.6596  -13.4682   17.7568 H   0  0  0  0  0  0
  -27.8472  -11.2952   18.8579 H   0  0  0  0  0  0
  -27.3699  -12.5808   17.7833 H   0  0  0  0  0  0
  -27.6690  -14.2594   19.5111 H   0  0  0  0  0  0
  -28.6537  -12.0863   21.4128 H   0  0  0  0  0  0
  -28.4444  -13.7737   21.8058 H   0  0  0  0  0  0
  -25.2760   -9.5699   22.4738 H   0  0  0  0  0  0
  -24.0007   -7.4645   22.7467 H   0  0  0  0  0  0
  -21.0843   -8.8759   19.8936 H   0  0  0  0  0  0
  -22.3687  -10.9662   19.6142 H   0  0  0  0  0  0
  -21.2011   -7.6146   23.9716 H   0  0  0  0  0  0
  -21.1475   -6.0521   25.9079 H   0  0  0  0  0  0
  -22.0600   -2.7607   23.2854 H   0  0  0  0  0  0
  -22.4114  -11.9862   22.4789 H   0  0  0  0  0  0
  -21.1086  -13.1196   22.2625 H   0  0  0  0  0  0
  -24.6681  -15.8554   20.5353 H   0  0  0  0  0  0
  -26.2961  -15.6296   20.1364 H   0  0  0  0  0  0
  -26.7180  -32.5452   23.1121 H   0  0  0  0  0  0
  -24.9996  -33.9728   25.0372 H   0  0  0  0  0  0
  -22.7114  -31.3120   21.4129 H   0  0  0  0  0  0
  -23.3755  -35.9640   23.3308 H   0  0  0  0  0  0
  -24.3564  -36.8926   22.2048 H   0  0  0  0  0  0
  -23.7248  -37.6512   23.6664 H   0  0  0  0  0  0
  -26.1045  -31.5641   20.6291 H   0  0  0  0  0  0
  -26.8359  -30.8234   22.0241 H   0  0  0  0  0  0
  -28.1010  -28.9675   21.2190 H   0  0  0  0  0  0
  -25.9406  -25.9889   18.9279 H   0  0  0  0  0  0
  -23.9632  -27.3519   18.9746 H   0  0  0  0  0  0
  -23.7462  -30.6169   19.4103 H   0  0  0  0  0  0
  -22.7501  -29.2651   19.8603 H   0  0  0  0  0  0
  -25.1300  -36.1945   25.0816 H   0  0  0  0  0  0
  -20.9973  -28.3273   24.1409 H   0  0  0  0  0  0
  -20.5725  -26.2300   23.3601 H   0  0  0  0  0  0
  -21.6652  -26.7474   22.1170 H   0  0  0  0  0  0
  -19.6936  -25.6301   21.1237 H   0  0  0  0  0  0
  -19.6697  -27.3212   20.6757 H   0  0  0  0  0  0
  -17.4204  -26.6679   21.4027 H   0  0  0  0  0  0
  -18.0330  -26.0074   22.9023 H   0  0  0  0  0  0
  -19.7955  -30.7272   24.2255 H   0  0  0  0  0  0
  -17.5034  -31.6280   24.5162 H   0  0  0  0  0  0
  -15.5363  -30.2979   23.7705 H   0  0  0  0  0  0
  -15.8669  -28.0837   22.7065 H   0  0  0  0  0  0
  -24.5807  -30.7206   25.7797 H   0  0  0  0  0  0
  -24.8922  -32.3000   26.4898 H   0  0  0  0  0  0
  -25.7957  -30.8957   27.0257 H   0  0  0  0  0  0
  -26.2958  -29.6796   24.1205 H   0  0  0  0  0  0
  -27.3874  -29.7273   25.4844 H   0  0  0  0  0  0
  -27.8890  -30.4285   23.9642 H   0  0  0  0  0  0
  -27.2557  -33.3652   26.2141 H   0  0  0  0  0  0
  -28.3810  -32.6986   25.0397 H   0  0  0  0  0  0
  -28.0674  -31.8511   26.5471 H   0  0  0  0  0  0
  -28.2584  -38.0123   24.7497 H   0  0  0  0  0  0
  -28.1087  -36.2646   24.6290 H   0  0  0  0  0  0
  -27.2286  -37.1467   25.8855 H   0  0  0  0  0  0
  -20.9380  -29.8767   21.6889 H   0  0  0  0  0  0
  -26.0192  -38.2862   24.1384 H   0  0  0  0  0  0
  -29.7736  -20.8005   18.4923 H   0  0  0  0  0  0
  -29.0092  -18.5494   22.8281 H   0  0  0  0  0  0
  -28.1864  -20.5750   23.7638 H   0  0  0  0  0  0
  -26.8661  -20.9172   22.6405 H   0  0  0  0  0  0
  -28.1761  -22.0842   22.8693 H   0  0  0  0  0  0
  -32.0733  -20.0410   18.0354 H   0  0  0  0  0  0
  -30.8604  -19.6425   16.8057 H   0  0  0  0  0  0
  -32.3169  -18.6548   16.9661 H   0  0  0  0  0  0
  -27.2670  -22.3971   20.5358 H   0  0  0  0  0  0
  -28.0787  -22.3984   19.0217 H   0  0  0  0  0  0
  -30.6800  -16.9438   22.3466 H   0  0  0  0  0  0
  -31.5747  -16.9691   20.8774 H   0  0  0  0  0  0
  -29.8986  -23.8943   19.9519 H   0  0  0  0  0  0
  -29.0967  -23.8964   21.5049 H   0  0  0  0  0  0
  -27.0406  -24.7988   20.4322 H   0  0  0  0  0  0
  -27.8602  -24.8953   18.8854 H   0  0  0  0  0  0
  1 25  1  0  0  0
  1 30  2  0  0  0
  1 85  1  0  0  0
  2  3  1  0  0  0
  2 25  1  0  0  0
  2 86  1  0  0  0
  2 87  1  0  0  0
  3  4  1  0  0  0
  3 88  1  0  0  0
  3 89  1  0  0  0
  4  5  1  0  0  0
  4 90  1  0  0  0
  4 91  1  0  0  0
  5  6  1  0  0  0
  5 26  1  0  0  0
  5 92  1  0  0  0
  6 25  1  0  0  0
  6 93  1  0  0  0
  6 94  1  0  0  0
  7  8  2  0  0  0
  7 26  1  0  0  0
  7 29  1  0  0  0
  8  9  1  0  0  0
  8 22  1  0  0  0
  9 10  1  0  0  0
  9 27  2  0  0  0
 10 11  2  0  0  0
 10 15  1  0  0  0
 11 12  1  0  0  0
 11 95  1  0  0  0
 12 13  2  0  0  0
 12 96  1  0  0  0
 13 14  1  0  0  0
 13 31  1  0  0  0
 14 15  2  0  0  0
 14 97  1  0  0  0
 15 98  1  0  0  0
 16 17  2  0  0  0
 16 21  1  0  0  0
 16 31  1  0  0  0
 17 18  1  0  0  0
 17 99  1  0  0  0
 18 19  2  0  0  0
 18100  1  0  0  0
 19 20  1  0  0  0
 19 24  1  0  0  0
 20 21  2  0  0  0
 20101  1  0  0  0
 21 23  1  0  0  0
 22 28  1  0  0  0
 22 32  2  0  0  0
 26 27  1  0  0  0
 28102  1  0  0  0
 28103  1  0  0  0
 29104  1  0  0  0
 29105  1  0  0  0
 33 34  1  0  0  0
 33 66  1  0  0  0
 33 70  2  0  0  0
 34 36  1  0  0  0
 34 59  1  0  0  0
 34106  1  0  0  0
 35 44  2  0  0  0
 35 45  1  0  0  0
 35 68  1  0  0  0
 36 56  1  0  0  0
 36107  1  0  0  0
 37 39  1  0  0  0
 37 47  1  0  0  0
 37 66  1  0  0  0
 37108  1  0  0  0
 38 43  2  0  0  0
 38 46  1  0  0  0
 38 47  1  0  0  0
 39 64  1  0  0  0
 39 67  2  0  0  0
 40 52  1  0  0  0
 40 53  2  0  0  0
 40 58  1  0  0  0
 41109  1  0  0  0
 41110  1  0  0  0
 41111  1  0  0  0
 41 48  1  0  0  0
 42 43  1  0  0  0
 42 66  1  0  0  0
 42112  1  0  0  0
 42113  1  0  0  0
 43 44  1  0  0  0
 44114  1  0  0  0
 45 46  2  0  0  0
 45115  1  0  0  0
 46116  1  0  0  0
 47117  1  0  0  0
 47118  1  0  0  0
 48 56  1  0  0  0
 48 65  1  0  0  0
 48119  1  0  0  0
 49 50  1  0  0  0
 49 53  1  0  0  0
 49 64  1  0  0  0
 49120  1  0  0  0
 50 51  1  0  0  0
 50121  1  0  0  0
 50122  1  0  0  0
 51 52  1  0  0  0
 51123  1  0  0  0
 51124  1  0  0  0
 52125  1  0  0  0
 52126  1  0  0  0
 53 54  1  0  0  0
 54 55  2  0  0  0
 54127  1  0  0  0
 55 57  1  0  0  0
 55128  1  0  0  0
 56 69  2  0  0  0
 57 58  2  0  0  0
 57129  1  0  0  0
 58130  1  0  0  0
 59 60  1  0  0  0
 59 61  1  0  0  0
 59 62  1  0  0  0
 60131  1  0  0  0
 60132  1  0  0  0
 60133  1  0  0  0
 61134  1  0  0  0
 61135  1  0  0  0
 61136  1  0  0  0
 62137  1  0  0  0
 62138  1  0  0  0
 62139  1  0  0  0
 63 65  1  0  0  0
 63140  1  0  0  0
 63141  1  0  0  0
 63142  1  0  0  0
 64143  1  0  0  0
 65144  1  0  0  0
 68 83  1  0  0  0
 71 73  2  0  0  0
 71 74  1  0  0  0
 71145  1  0  0  0
 72 75  2  0  0  0
 72 76  1  0  0  0
 72146  1  0  0  0
 73 75  1  0  0  0
 73 77  1  0  0  0
 74 76  2  0  0  0
 74 80  1  0  0  0
 75 81  1  0  0  0
 76 78  1  0  0  0
 77 79  1  0  0  0
 77 84  2  0  0  0
 78147  1  0  0  0
 78148  1  0  0  0
 78149  1  0  0  0
 79150  1  0  0  0
 79151  1  0  0  0
 79152  1  0  0  0
 80 82  1  0  0  0
 80153  1  0  0  0
 80154  1  0  0  0
 81 85  1  0  0  0
 81155  1  0  0  0
 81156  1  0  0  0
 82 83  1  0  0  0
 82157  1  0  0  0
 82158  1  0  0  0
 83159  1  0  0  0
 83160  1  0  0  0
M  ISO  4   1 100  68 101  83 101  85 100
M  END
> <chiral flag>
0

> <version>
0

> <s_m_source_file>
/data/baiqing/PycharmProjects/Reinvent-master-3.2/result/LINK_invent/BTK/process_docking_weight1_custom_sum_contain_oxygen_bond_distance_aromatic_linkinvent_7_9_3/rearranged_h_0136.sdf

> <i_m_source_file_index>
64

> <r_mmod_Potential_Energy-OPLS-2005>
44.3321342468262

> <r_mmod_Stretch_Energy-OPLS-2005>
74.7790603637695

> <r_mmod_Bend_Energy-OPLS-2005>
138.482360839844

> <r_mmod_Torsional_Energy-OPLS-2005>
204.100524902344

> <r_mmod_Improper_Torsional_Energy-OPLS-2005>
4.94595050811768

> <r_mmod_Van_der_Waal_Energy-OPLS-2005>
156.56477355957

> <r_mmod_Electrostatic_Energy-OPLS-2005>
-377.58935546875

> <r_mmod_Solvation_Energy-OPLS-2005>
-199.841781616211

> <b_mmod_Minimization_Converged-OPLS-2005>
0

> <r_mmod_RMS_Derivative-OPLS-2005>
1.61506271362305

$$$$
67
                    3D
 Structure written by MMmdl.
160169  0  0  1  0            999 V2000
  -30.4785  -15.1862   20.4326 C   0  0  0  0  0  0
  -30.4337  -12.7637   19.5211 C   0  0  0  0  0  0
  -29.5280  -12.5772   18.2766 C   0  0  0  0  0  0
  -28.0694  -12.3133   18.6898 C   0  0  0  0  0  0
  -27.6136  -13.2620   19.8231 C   0  0  2  0  0  0
  -28.6452  -13.3566   20.9602 C   0  0  0  0  0  0
  -25.2411  -13.8228   20.5719 C   0  0  0  0  0  0
  -24.1750  -13.0434   20.9233 C   0  0  0  0  0  0
  -24.6387  -11.6921   20.8750 C   0  0  0  0  0  0
  -23.9078  -10.4288   21.0408 C   0  0  0  0  0  0
  -24.3628   -9.4209   21.9185 C   0  0  0  0  0  0
  -23.6303   -8.2247   22.0756 C   0  0  0  0  0  0
  -22.4281   -8.0286   21.3540 C   0  0  0  0  0  0
  -21.9916   -9.0262   20.4647 C   0  0  0  0  0  0
  -22.7252  -10.2133   20.3059 C   0  0  0  0  0  0
  -21.6858   -6.0736   22.5279 C   0  0  0  0  0  0
  -21.4020   -6.5635   23.8213 C   0  0  0  0  0  0
  -21.3659   -5.6789   24.9174 C   0  0  0  0  0  0
  -21.6043   -4.3049   24.7222 C   0  0  0  0  0  0
  -21.8820   -3.8141   23.4344 C   0  0  0  0  0  0
  -21.9196   -4.6963   22.3402 C   0  0  0  0  0  0
  -22.7778  -13.5201   21.1905 C   0  0  0  0  0  0
  -22.1664   -4.2144   21.0977 F   0  0  0  0  0  0
  -21.5626   -3.4534   25.7739 F   0  0  0  0  0  0
  -29.8884  -13.8903   20.3674 N   0  0  0  0  0  0
  -26.2805  -12.9465   20.3162 N   0  0  0  0  0  0
  -25.9312  -11.6588   20.5694 N   0  0  0  0  0  0
  -22.0442  -12.8173   22.0456 N   0  0  0  0  0  0
  -25.4112  -15.1964   20.4213 N   0  0  0  0  0  0
  -31.6654  -15.1832   20.0748 O   0  0  0  0  0  0
  -21.6644   -6.8878   21.4237 O   0  0  0  0  0  0
  -22.3461  -14.5515   20.6770 O   0  0  0  0  0  0
  -24.6583  -31.8297   23.1744 C   0  0  0  0  0  0
  -25.9277  -32.4621   23.8198 C   0  0  1  0  0  0
  -27.2167  -26.9761   20.1745 C   0  0  0  0  0  0
  -25.5974  -33.8436   24.2104 N   0  0  0  0  0  0
  -23.4719  -30.4440   21.5228 C   0  0  2  0  0  0
  -24.9249  -28.8449   20.1094 C   0  0  0  0  0  0
  -22.7641  -29.4483   22.4785 C   0  0  0  0  0  0
  -18.0321  -28.1400   22.8491 C   0  0  0  0  0  0
  -24.1494  -36.7214   23.2650 C   0  0  0  0  0  0
  -26.0394  -30.6512   21.3998 C   0  0  0  0  0  0
  -26.1074  -29.2469   20.7422 C   0  0  0  0  0  0
  -27.2503  -28.3321   20.7535 C   0  0  0  0  0  0
  -26.0064  -26.7226   19.4881 C   0  0  0  0  0  0
  -24.8966  -27.6015   19.4620 C   0  0  0  0  0  0
  -23.7088  -29.7662   20.1467 C   0  0  0  0  0  0
  -25.4129  -36.2977   24.0308 C   0  0  1  0  0  0
  -20.5949  -28.3744   23.1200 C   0  0  2  0  0  0
  -20.6806  -26.9428   22.5404 C   0  0  0  0  0  0
  -19.5770  -26.6369   21.5225 C   0  0  0  0  0  0
  -18.1951  -26.7937   22.1632 C   0  0  0  0  0  0
  -19.1591  -28.8889   23.2837 C   0  0  0  0  0  0
  -18.9501  -30.1483   23.8857 C   0  0  0  0  0  0
  -17.6496  -30.6594   24.0561 C   0  0  0  0  0  0
  -25.9089  -34.9366   23.5013 C   0  0  0  0  0  0
  -16.5380  -29.9086   23.6348 C   0  0  0  0  0  0
  -16.7306  -28.6505   23.0370 C   0  0  0  0  0  0
  -26.4540  -31.6552   25.0708 C   0  0  0  0  0  0
  -25.3681  -31.3808   26.1375 C   0  0  0  0  0  0
  -27.0433  -30.2929   24.6415 C   0  0  0  0  0  0
  -27.6033  -32.4361   25.7508 C   0  0  0  0  0  0
  -27.5556  -37.1765   24.8461 C   0  0  0  0  0  0
  -21.4315  -29.3048   22.3547 N   0  0  0  0  0  0
  -26.4264  -37.3713   23.9405 N   0  0  0  0  0  0
  -24.7443  -31.0008   22.0861 N   0  0  0  0  0  0
  -23.4221  -28.8045   23.3004 O   0  0  0  0  0  0
  -28.2055  -25.8720   20.2647 O   0  0  0  0  0  0
  -26.5691  -34.8892   22.4605 O   0  0  0  0  0  0
  -23.5660  -32.1241   23.6856 O   0  0  0  0  0  0
  -30.1913  -20.7618   19.7452 C   0  0  0  0  0  0
  -28.2977  -20.1891   20.9171 C   0  0  0  0  0  0
  -29.7616  -22.1833   19.6838 C   0  0  0  0  0  0
  -27.8689  -21.6124   20.8585 C   0  0  0  0  0  0
  -29.5083  -19.6192   20.3516 C   0  0  0  0  0  0
  -28.5541  -22.7545   20.2512 C   0  0  0  0  0  0
  -29.8982  -17.5563   22.8706 C   0  0  0  0  0  0
  -29.1287  -16.5380   22.0120 C   0  0  0  0  0  0
  -30.2557  -18.0588   20.5647 C   0  0  1  0  0  0
  -30.9181  -18.2347   21.9486 C   0  0  2  0  0  0
  -27.8251  -24.3143   20.0093 C   0  0  0  0  0  0
  -32.3472  -17.6469   22.0698 C   0  0  0  0  0  0
  -29.7891  -16.4776   20.7038 N   0  0  0  0  0  0
  -33.0384  -18.0905   23.2920 N   0  3  0  0  0  0
  -31.4547  -12.9547   19.1894 H   0  0  0  0  0  0
  -30.4941  -11.8388   20.0964 H   0  0  0  0  0  0
  -29.8962  -11.7579   17.6573 H   0  0  0  0  0  0
  -29.5724  -13.4746   17.6571 H   0  0  0  0  0  0
  -28.0004  -11.2782   19.0269 H   0  0  0  0  0  0
  -27.4058  -12.3981   17.8284 H   0  0  0  0  0  0
  -27.5517  -14.2503   19.3665 H   0  0  0  0  0  0
  -28.8056  -12.3832   21.4263 H   0  0  0  0  0  0
  -28.2383  -13.9840   21.7444 H   0  0  0  0  0  0
  -25.2775   -9.5681   22.4766 H   0  0  0  0  0  0
  -24.0006   -7.4631   22.7470 H   0  0  0  0  0  0
  -21.0851   -8.8788   19.8952 H   0  0  0  0  0  0
  -22.3716  -10.9681   19.6170 H   0  0  0  0  0  0
  -21.2016   -7.6148   23.9717 H   0  0  0  0  0  0
  -21.1479   -6.0516   25.9075 H   0  0  0  0  0  0
  -22.0600   -2.7606   23.2847 H   0  0  0  0  0  0
  -22.4074  -11.9812   22.4793 H   0  0  0  0  0  0
  -21.1076  -13.1200   22.2708 H   0  0  0  0  0  0
  -24.6470  -15.8510   20.5459 H   0  0  0  0  0  0
  -26.2653  -15.6385   20.1048 H   0  0  0  0  0  0
  -26.7347  -32.5174   23.0925 H   0  0  0  0  0  0
  -25.0096  -33.9553   25.0234 H   0  0  0  0  0  0
  -22.7839  -31.2755   21.3564 H   0  0  0  0  0  0
  -23.3759  -35.9541   23.3280 H   0  0  0  0  0  0
  -24.3585  -36.8882   22.2071 H   0  0  0  0  0  0
  -23.7254  -37.6395   23.6724 H   0  0  0  0  0  0
  -26.2161  -31.3947   20.6211 H   0  0  0  0  0  0
  -26.9022  -30.7062   22.0519 H   0  0  0  0  0  0
  -28.1451  -28.6375   21.2784 H   0  0  0  0  0  0
  -25.8726  -25.7783   18.9846 H   0  0  0  0  0  0
  -23.9988  -27.2879   18.9475 H   0  0  0  0  0  0
  -23.8582  -30.5387   19.3908 H   0  0  0  0  0  0
  -22.8201  -29.2168   19.8293 H   0  0  0  0  0  0
  -25.1332  -36.1763   25.0801 H   0  0  0  0  0  0
  -21.0060  -28.3327   24.1314 H   0  0  0  0  0  0
  -20.5694  -26.2356   23.3644 H   0  0  0  0  0  0
  -21.6672  -26.7408   22.1204 H   0  0  0  0  0  0
  -19.6933  -25.6271   21.1275 H   0  0  0  0  0  0
  -19.6701  -27.3174   20.6753 H   0  0  0  0  0  0
  -17.4228  -26.6702   21.4018 H   0  0  0  0  0  0
  -18.0317  -26.0083   22.9027 H   0  0  0  0  0  0
  -19.7981  -30.7319   24.2189 H   0  0  0  0  0  0
  -17.5048  -31.6272   24.5169 H   0  0  0  0  0  0
  -15.5381  -30.2978   23.7689 H   0  0  0  0  0  0
  -15.8708  -28.0810   22.7101 H   0  0  0  0  0  0
  -24.5883  -30.7134   25.7687 H   0  0  0  0  0  0
  -24.8854  -32.3021   26.4649 H   0  0  0  0  0  0
  -25.7927  -30.9079   27.0243 H   0  0  0  0  0  0
  -26.3096  -29.6618   24.1392 H   0  0  0  0  0  0
  -27.3950  -29.7274   25.5051 H   0  0  0  0  0  0
  -27.9044  -30.4116   23.9841 H   0  0  0  0  0  0
  -27.2601  -33.3717   26.1939 H   0  0  0  0  0  0
  -28.3925  -32.6836   25.0393 H   0  0  0  0  0  0
  -28.0616  -31.8584   26.5542 H   0  0  0  0  0  0
  -28.2552  -38.0078   24.7502 H   0  0  0  0  0  0
  -28.1068  -36.2603   24.6286 H   0  0  0  0  0  0
  -27.2278  -37.1403   25.8865 H   0  0  0  0  0  0
  -20.9523  -29.8753   21.6718 H   0  0  0  0  0  0
  -26.0099  -38.2760   24.1427 H   0  0  0  0  0  0
  -31.1507  -20.5499   19.2931 H   0  0  0  0  0  0
  -27.6533  -19.5085   21.4555 H   0  0  0  0  0  0
  -30.4067  -22.8637   19.1450 H   0  0  0  0  0  0
  -26.9111  -21.8284   21.3107 H   0  0  0  0  0  0
  -30.3736  -17.0760   23.7270 H   0  0  0  0  0  0
  -29.2015  -18.2922   23.2746 H   0  0  0  0  0  0
  -28.0869  -16.8314   21.8798 H   0  0  0  0  0  0
  -29.1443  -15.6030   22.5650 H   0  0  0  0  0  0
  -31.0262  -18.0461   19.7920 H   0  0  0  0  0  0
  -31.0031  -19.2936   22.2008 H   0  0  0  0  0  0
  -26.8652  -24.2075   20.5131 H   0  0  0  0  0  0
  -27.5757  -24.2894   18.9480 H   0  0  0  0  0  0
  -32.9503  -17.9388   21.2085 H   0  0  0  0  0  0
  -32.3249  -16.5594   22.0854 H   0  0  0  0  0  0
  -33.1399  -19.0896   23.3031 H   0  0  0  0  0  0
  -33.9568  -17.6848   23.3301 H   0  0  0  0  0  0
  -32.5382  -17.8057   24.1146 H   0  0  0  0  0  0
  1 25  1  0  0  0
  1 30  2  0  0  0
  1 83  1  0  0  0
  2  3  1  0  0  0
  2 25  1  0  0  0
  2 85  1  0  0  0
  2 86  1  0  0  0
  3  4  1  0  0  0
  3 87  1  0  0  0
  3 88  1  0  0  0
  4  5  1  0  0  0
  4 89  1  0  0  0
  4 90  1  0  0  0
  5  6  1  0  0  0
  5 26  1  0  0  0
  5 91  1  0  0  0
  6 25  1  0  0  0
  6 92  1  0  0  0
  6 93  1  0  0  0
  7  8  2  0  0  0
  7 26  1  0  0  0
  7 29  1  0  0  0
  8  9  1  0  0  0
  8 22  1  0  0  0
  9 10  1  0  0  0
  9 27  2  0  0  0
 10 11  2  0  0  0
 10 15  1  0  0  0
 11 12  1  0  0  0
 11 94  1  0  0  0
 12 13  2  0  0  0
 12 95  1  0  0  0
 13 14  1  0  0  0
 13 31  1  0  0  0
 14 15  2  0  0  0
 14 96  1  0  0  0
 15 97  1  0  0  0
 16 17  2  0  0  0
 16 21  1  0  0  0
 16 31  1  0  0  0
 17 18  1  0  0  0
 17 98  1  0  0  0
 18 19  2  0  0  0
 18 99  1  0  0  0
 19 20  1  0  0  0
 19 24  1  0  0  0
 20 21  2  0  0  0
 20100  1  0  0  0
 21 23  1  0  0  0
 22 28  1  0  0  0
 22 32  2  0  0  0
 26 27  1  0  0  0
 28101  1  0  0  0
 28102  1  0  0  0
 29103  1  0  0  0
 29104  1  0  0  0
 33 34  1  0  0  0
 33 66  1  0  0  0
 33 70  2  0  0  0
 34 36  1  0  0  0
 34 59  1  0  0  0
 34105  1  0  0  0
 35 44  2  0  0  0
 35 45  1  0  0  0
 35 68  1  0  0  0
 36 56  1  0  0  0
 36106  1  0  0  0
 37 39  1  0  0  0
 37 47  1  0  0  0
 37 66  1  0  0  0
 37107  1  0  0  0
 38 43  2  0  0  0
 38 46  1  0  0  0
 38 47  1  0  0  0
 39 64  1  0  0  0
 39 67  2  0  0  0
 40 52  1  0  0  0
 40 53  2  0  0  0
 40 58  1  0  0  0
 41108  1  0  0  0
 41109  1  0  0  0
 41110  1  0  0  0
 41 48  1  0  0  0
 42 43  1  0  0  0
 42 66  1  0  0  0
 42111  1  0  0  0
 42112  1  0  0  0
 43 44  1  0  0  0
 44113  1  0  0  0
 45 46  2  0  0  0
 45114  1  0  0  0
 46115  1  0  0  0
 47116  1  0  0  0
 47117  1  0  0  0
 48 56  1  0  0  0
 48 65  1  0  0  0
 48118  1  0  0  0
 49 50  1  0  0  0
 49 53  1  0  0  0
 49 64  1  0  0  0
 49119  1  0  0  0
 50 51  1  0  0  0
 50120  1  0  0  0
 50121  1  0  0  0
 51 52  1  0  0  0
 51122  1  0  0  0
 51123  1  0  0  0
 52124  1  0  0  0
 52125  1  0  0  0
 53 54  1  0  0  0
 54 55  2  0  0  0
 54126  1  0  0  0
 55 57  1  0  0  0
 55127  1  0  0  0
 56 69  2  0  0  0
 57 58  2  0  0  0
 57128  1  0  0  0
 58129  1  0  0  0
 59 60  1  0  0  0
 59 61  1  0  0  0
 59 62  1  0  0  0
 60130  1  0  0  0
 60131  1  0  0  0
 60132  1  0  0  0
 61133  1  0  0  0
 61134  1  0  0  0
 61135  1  0  0  0
 62136  1  0  0  0
 62137  1  0  0  0
 62138  1  0  0  0
 63 65  1  0  0  0
 63139  1  0  0  0
 63140  1  0  0  0
 63141  1  0  0  0
 64142  1  0  0  0
 65143  1  0  0  0
 68 81  1  0  0  0
 71 73  2  0  0  0
 71 75  1  0  0  0
 71144  1  0  0  0
 72 74  1  0  0  0
 72 75  2  0  0  0
 72145  1  0  0  0
 73 76  1  0  0  0
 73146  1  0  0  0
 74 76  2  0  0  0
 74147  1  0  0  0
 75 79  1  0  0  0
 76 81  1  0  0  0
 77 78  1  0  0  0
 77 80  1  0  0  0
 77148  1  0  0  0
 77149  1  0  0  0
 78 83  1  0  0  0
 78150  1  0  0  0
 78151  1  0  0  0
 79 80  1  0  0  0
 79 83  1  0  0  0
 79152  1  0  0  0
 80 82  1  0  0  0
 80153  1  0  0  0
 81154  1  0  0  0
 81155  1  0  0  0
 82 84  1  0  0  0
 82156  1  0  0  0
 82157  1  0  0  0
 84158  1  0  0  0
 84159  1  0  0  0
 84160  1  0  0  0
M  CHG  1  84   1
M  ISO  4   1 100  68 101  81 101  83 100
M  END
> <chiral flag>
0

> <version>
0

> <s_m_source_file>
/data/baiqing/PycharmProjects/Reinvent-master-3.2/result/LINK_invent/BTK/process_docking_weight1_custom_sum_contain_oxygen_bond_distance_aromatic_linkinvent_7_9_3/rearranged_h_0136.sdf

> <i_m_source_file_index>
65

> <r_mmod_Potential_Energy-OPLS-2005>
1109.49108886719

> <r_mmod_Stretch_Energy-OPLS-2005>
471.637115478516

> <r_mmod_Bend_Energy-OPLS-2005>
481.345245361328

> <r_mmod_Torsional_Energy-OPLS-2005>
345.337493896484

> <r_mmod_Improper_Torsional_Energy-OPLS-2005>
12.5598411560059

> <r_mmod_Van_der_Waal_Energy-OPLS-2005>
138.005401611328

> <r_mmod_Electrostatic_Energy-OPLS-2005>
-235.669052124023

> <r_mmod_Solvation_Energy-OPLS-2005>
-482.103485107422

> <b_mmod_Minimization_Converged-OPLS-2005>
0

> <r_mmod_RMS_Derivative-OPLS-2005>
1.80532944202423

$$$$
68
                    3D
 Structure written by MMmdl.
168176  0  0  1  0            999 V2000
  -30.6776  -14.4463   20.5523 C   0  0  0  0  0  0
  -30.4243  -12.2846   19.4167 C   0  0  0  0  0  0
  -29.4947  -12.5111   18.2049 C   0  0  0  0  0  0
  -28.0133  -12.3760   18.6123 C   0  0  0  0  0  0
  -27.6644  -13.1992   19.8816 C   0  0  2  0  0  0
  -28.7050  -12.9525   20.9997 C   0  0  0  0  0  0
  -25.2601  -13.8150   20.5661 C   0  0  0  0  0  0
  -24.1841  -13.0438   20.9175 C   0  0  0  0  0  0
  -24.6388  -11.6905   20.8744 C   0  0  0  0  0  0
  -23.9054  -10.4293   21.0417 C   0  0  0  0  0  0
  -24.3604   -9.4209   21.9195 C   0  0  0  0  0  0
  -23.6281   -8.2242   22.0764 C   0  0  0  0  0  0
  -22.4267   -8.0282   21.3544 C   0  0  0  0  0  0
  -21.9908   -9.0255   20.4647 C   0  0  0  0  0  0
  -22.7233  -10.2136   20.3064 C   0  0  0  0  0  0
  -21.6848   -6.0735   22.5284 C   0  0  0  0  0  0
  -21.4010   -6.5642   23.8220 C   0  0  0  0  0  0
  -21.3657   -5.6794   24.9177 C   0  0  0  0  0  0
  -21.6048   -4.3057   24.7223 C   0  0  0  0  0  0
  -21.8820   -3.8148   23.4344 C   0  0  0  0  0  0
  -21.9190   -4.6962   22.3400 C   0  0  0  0  0  0
  -22.7870  -13.5247   21.1839 C   0  0  0  0  0  0
  -22.1658   -4.2152   21.0976 F   0  0  0  0  0  0
  -21.5632   -3.4536   25.7734 F   0  0  0  0  0  0
  -30.0408  -13.2520   20.4540 N   0  0  0  0  0  0
  -26.3033  -12.9300   20.3388 N   0  0  0  0  0  0
  -25.9312  -11.6468   20.5770 N   0  0  0  0  0  0
  -22.0512  -12.8227   22.0392 N   0  0  0  0  0  0
  -25.4340  -15.1850   20.4016 N   0  0  0  0  0  0
  -31.8101  -14.6560   20.1066 O   0  0  0  0  0  0
  -21.6627   -6.8879   21.4241 O   0  0  0  0  0  0
  -22.3562  -14.5561   20.6705 O   0  0  0  0  0  0
  -24.6104  -31.8711   23.2132 C   0  0  0  0  0  0
  -25.9007  -32.4845   23.8417 C   0  0  1  0  0  0
  -27.2451  -27.4660   20.0978 C   0  0  0  0  0  0
  -25.5886  -33.8641   24.2355 N   0  0  0  0  0  0
  -23.3986  -30.4930   21.5520 C   0  0  2  0  0  0
  -24.8495  -28.9599   20.1204 C   0  0  0  0  0  0
  -22.7392  -29.4674   22.5014 C   0  0  0  0  0  0
  -18.0266  -28.1387   22.8505 C   0  0  0  0  0  0
  -24.1483  -36.7316   23.2632 C   0  0  0  0  0  0
  -25.9235  -30.8446   21.3634 C   0  0  0  0  0  0
  -26.0048  -29.4774   20.7214 C   0  0  0  0  0  0
  -27.2059  -28.7353   20.7188 C   0  0  0  0  0  0
  -26.0800  -26.9623   19.4869 C   0  0  0  0  0  0
  -24.8786  -27.6963   19.5050 C   0  0  0  0  0  0
  -23.6082  -29.8220   20.1678 C   0  0  0  0  0  0
  -25.4093  -36.3121   24.0353 C   0  0  1  0  0  0
  -20.5855  -28.3665   23.1335 C   0  0  2  0  0  0
  -20.6755  -26.9406   22.5427 C   0  0  0  0  0  0
  -19.5734  -26.6391   21.5227 C   0  0  0  0  0  0
  -18.1906  -26.7935   22.1629 C   0  0  0  0  0  0
  -19.1514  -28.8845   23.2913 C   0  0  0  0  0  0
  -18.9443  -30.1456   23.8914 C   0  0  0  0  0  0
  -17.6445  -30.6595   24.0579 C   0  0  0  0  0  0
  -25.9031  -34.9490   23.5150 C   0  0  0  0  0  0
  -16.5336  -29.9098   23.6330 C   0  0  0  0  0  0
  -16.7257  -28.6515   23.0348 C   0  0  0  0  0  0
  -26.4448  -31.6598   25.0719 C   0  0  0  0  0  0
  -25.3730  -31.3666   26.1469 C   0  0  0  0  0  0
  -27.0268  -30.3051   24.6052 C   0  0  0  0  0  0
  -27.6025  -32.4295   25.7501 C   0  0  0  0  0  0
  -27.5604  -37.1777   24.8439 C   0  0  0  0  0  0
  -21.4123  -29.3037   22.3746 N   0  0  0  0  0  0
  -26.4273  -37.3822   23.9456 N   0  0  0  0  0  0
  -24.6618  -31.0837   22.1021 N   0  0  0  0  0  0
  -23.4177  -28.8217   23.3048 O   0  0  0  0  0  0
  -28.3767  -26.6911   20.0194 O   0  0  0  0  0  0
  -26.5591  -34.8945   22.4707 O   0  0  0  0  0  0
  -23.5301  -32.1445   23.7543 O   0  0  0  0  0  0
  -27.5628  -22.3046   21.8457 C   0  0  0  0  0  0
  -29.9147  -22.3067   21.2564 C   0  0  0  0  0  0
  -27.4913  -20.9172   21.6042 C   0  0  0  0  0  0
  -29.8639  -20.9158   21.0072 C   0  0  0  0  0  0
  -28.6405  -20.2101   21.1711 C   0  0  0  0  0  0
  -28.7570  -23.0189   21.6460 C   0  0  0  0  0  0
  -26.1568  -20.2116   21.7968 C   0  0  0  0  0  0
  -31.1282  -20.2379   20.5032 C   0  0  0  0  0  0
  -28.3346  -17.1158   22.5333 C   0  0  0  0  0  0
  -29.4616  -16.9482   19.0645 C   0  0  0  0  0  0
  -29.2266  -26.6372   21.1625 C   0  0  0  0  0  0
  -29.7456  -25.1939   21.2923 C   0  0  0  0  0  0
  -29.2639  -17.8210   21.5268 C   0  0  1  0  0  0
  -29.9820  -16.8509   20.5216 C   0  0  1  0  0  0
  -28.4968  -18.8544   20.8343 N   0  0  0  0  0  0
  -29.8784  -15.4508   20.9402 N   0  0  0  0  0  0
  -28.7046  -24.3831   21.8356 O   0  0  0  0  0  0
  -31.4685  -12.3891   19.1178 H   0  0  0  0  0  0
  -30.3215  -11.2677   19.7980 H   0  0  0  0  0  0
  -29.7294  -11.8024   17.4097 H   0  0  0  0  0  0
  -29.6689  -13.5054   17.7878 H   0  0  0  0  0  0
  -27.8113  -11.3194   18.7874 H   0  0  0  0  0  0
  -27.3685  -12.6753   17.7848 H   0  0  0  0  0  0
  -27.7140  -14.2503   19.5977 H   0  0  0  0  0  0
  -28.6719  -11.9127   21.3276 H   0  0  0  0  0  0
  -28.4758  -13.5425   21.8885 H   0  0  0  0  0  0
  -25.2749   -9.5680   22.4773 H   0  0  0  0  0  0
  -23.9993   -7.4633   22.7490 H   0  0  0  0  0  0
  -21.0846   -8.8773   19.8943 H   0  0  0  0  0  0
  -22.3699  -10.9676   19.6168 H   0  0  0  0  0  0
  -21.2005   -7.6154   23.9715 H   0  0  0  0  0  0
  -21.1480   -6.0524   25.9078 H   0  0  0  0  0  0
  -22.0599   -2.7615   23.2837 H   0  0  0  0  0  0
  -22.4122  -11.9862   22.4736 H   0  0  0  0  0  0
  -21.1146  -13.1272   22.2635 H   0  0  0  0  0  0
  -24.6694  -15.8429   20.5050 H   0  0  0  0  0  0
  -26.2841  -15.6153   20.0615 H   0  0  0  0  0  0
  -26.7084  -32.5599   23.1197 H   0  0  0  0  0  0
  -25.0051  -33.9808   25.0506 H   0  0  0  0  0  0
  -22.6844  -31.3076   21.4121 H   0  0  0  0  0  0
  -23.3801  -35.9586   23.3183 H   0  0  0  0  0  0
  -24.3626  -36.9036   22.2075 H   0  0  0  0  0  0
  -23.7164  -37.6454   23.6715 H   0  0  0  0  0  0
  -26.0242  -31.6056   20.5884 H   0  0  0  0  0  0
  -26.8156  -30.9089   21.9741 H   0  0  0  0  0  0
  -28.0958  -29.1453   21.1748 H   0  0  0  0  0  0
  -26.1044  -25.9957   19.0032 H   0  0  0  0  0  0
  -23.9911  -27.2906   19.0388 H   0  0  0  0  0  0
  -23.7138  -30.5945   19.4060 H   0  0  0  0  0  0
  -22.7341  -29.2367   19.8765 H   0  0  0  0  0  0
  -25.1250  -36.1972   25.0841 H   0  0  0  0  0  0
  -20.9947  -28.3229   24.1459 H   0  0  0  0  0  0
  -20.5669  -26.2267   23.3605 H   0  0  0  0  0  0
  -21.6625  -26.7446   22.1218 H   0  0  0  0  0  0
  -19.6891  -25.6309   21.1236 H   0  0  0  0  0  0
  -19.6674  -27.3215   20.6769 H   0  0  0  0  0  0
  -17.4182  -26.6711   21.4018 H   0  0  0  0  0  0
  -18.0280  -26.0070   22.9011 H   0  0  0  0  0  0
  -19.7917  -30.7276   24.2276 H   0  0  0  0  0  0
  -17.5000  -31.6269   24.5188 H   0  0  0  0  0  0
  -15.5337  -30.3009   23.7640 H   0  0  0  0  0  0
  -15.8652  -28.0847   22.7040 H   0  0  0  0  0  0
  -24.5917  -30.6998   25.7805 H   0  0  0  0  0  0
  -24.8902  -32.2799   26.4950 H   0  0  0  0  0  0
  -25.8111  -30.8820   27.0202 H   0  0  0  0  0  0
  -26.2794  -29.6846   24.1094 H   0  0  0  0  0  0
  -27.4032  -29.7258   25.4494 H   0  0  0  0  0  0
  -27.8637  -30.4385   23.9192 H   0  0  0  0  0  0
  -27.2647  -33.3585   26.2108 H   0  0  0  0  0  0
  -28.3836  -32.6855   25.0330 H   0  0  0  0  0  0
  -28.0679  -31.8381   26.5395 H   0  0  0  0  0  0
  -28.2490  -38.0204   24.7701 H   0  0  0  0  0  0
  -28.1233  -36.2757   24.5989 H   0  0  0  0  0  0
  -27.2368  -37.1087   25.8839 H   0  0  0  0  0  0
  -20.9278  -29.8762   21.6978 H   0  0  0  0  0  0
  -26.0155  -38.2868   24.1588 H   0  0  0  0  0  0
  -26.6793  -22.8439   22.1605 H   0  0  0  0  0  0
  -30.8540  -22.8219   21.1206 H   0  0  0  0  0  0
  -25.3767  -20.9056   22.1103 H   0  0  0  0  0  0
  -26.2402  -19.4411   22.5629 H   0  0  0  0  0  0
  -25.8283  -19.7450   20.8680 H   0  0  0  0  0  0
  -31.8091  -20.9603   20.0531 H   0  0  0  0  0  0
  -30.9032  -19.4998   19.7357 H   0  0  0  0  0  0
  -31.6534  -19.7456   21.3210 H   0  0  0  0  0  0
  -28.8825  -16.4128   23.1616 H   0  0  0  0  0  0
  -27.5354  -16.5670   22.0339 H   0  0  0  0  0  0
  -27.8696  -17.8312   23.2112 H   0  0  0  0  0  0
  -29.6257  -17.9389   18.6406 H   0  0  0  0  0  0
  -28.3929  -16.7392   19.0052 H   0  0  0  0  0  0
  -29.9714  -16.2447   18.4055 H   0  0  0  0  0  0
  -30.0599  -27.3241   21.0068 H   0  0  0  0  0  0
  -28.7231  -26.9335   22.0849 H   0  0  0  0  0  0
  -30.6066  -25.1602   21.9616 H   0  0  0  0  0  0
  -30.0731  -24.8418   20.3118 H   0  0  0  0  0  0
  -30.0364  -18.3033   22.1273 H   0  0  0  0  0  0
  -31.0382  -17.1255   20.5058 H   0  0  0  0  0  0
  -27.5291  -18.5847   20.7078 H   0  0  0  0  0  0
  -28.9857  -15.1779   21.3194 H   0  0  0  0  0  0
  1 25  1  0  0  0
  1 30  2  0  0  0
  1 86  1  0  0  0
  2  3  1  0  0  0
  2 25  1  0  0  0
  2 88  1  0  0  0
  2 89  1  0  0  0
  3  4  1  0  0  0
  3 90  1  0  0  0
  3 91  1  0  0  0
  4  5  1  0  0  0
  4 92  1  0  0  0
  4 93  1  0  0  0
  5  6  1  0  0  0
  5 26  1  0  0  0
  5 94  1  0  0  0
  6 25  1  0  0  0
  6 95  1  0  0  0
  6 96  1  0  0  0
  7  8  2  0  0  0
  7 26  1  0  0  0
  7 29  1  0  0  0
  8  9  1  0  0  0
  8 22  1  0  0  0
  9 10  1  0  0  0
  9 27  2  0  0  0
 10 11  2  0  0  0
 10 15  1  0  0  0
 11 12  1  0  0  0
 11 97  1  0  0  0
 12 13  2  0  0  0
 12 98  1  0  0  0
 13 14  1  0  0  0
 13 31  1  0  0  0
 14 15  2  0  0  0
 14 99  1  0  0  0
 15100  1  0  0  0
 16 17  2  0  0  0
 16 21  1  0  0  0
 16 31  1  0  0  0
 17 18  1  0  0  0
 17101  1  0  0  0
 18 19  2  0  0  0
 18102  1  0  0  0
 19 20  1  0  0  0
 19 24  1  0  0  0
 20 21  2  0  0  0
 20103  1  0  0  0
 21 23  1  0  0  0
 22 28  1  0  0  0
 22 32  2  0  0  0
 26 27  1  0  0  0
 28104  1  0  0  0
 28105  1  0  0  0
 29106  1  0  0  0
 29107  1  0  0  0
 33 34  1  0  0  0
 33 66  1  0  0  0
 33 70  2  0  0  0
 34 36  1  0  0  0
 34 59  1  0  0  0
 34108  1  0  0  0
 35 44  2  0  0  0
 35 45  1  0  0  0
 35 68  1  0  0  0
 36 56  1  0  0  0
 36109  1  0  0  0
 37 39  1  0  0  0
 37 47  1  0  0  0
 37 66  1  0  0  0
 37110  1  0  0  0
 38 43  2  0  0  0
 38 46  1  0  0  0
 38 47  1  0  0  0
 39 64  1  0  0  0
 39 67  2  0  0  0
 40 52  1  0  0  0
 40 53  2  0  0  0
 40 58  1  0  0  0
 41111  1  0  0  0
 41112  1  0  0  0
 41113  1  0  0  0
 41 48  1  0  0  0
 42 43  1  0  0  0
 42 66  1  0  0  0
 42114  1  0  0  0
 42115  1  0  0  0
 43 44  1  0  0  0
 44116  1  0  0  0
 45 46  2  0  0  0
 45117  1  0  0  0
 46118  1  0  0  0
 47119  1  0  0  0
 47120  1  0  0  0
 48 56  1  0  0  0
 48 65  1  0  0  0
 48121  1  0  0  0
 49 50  1  0  0  0
 49 53  1  0  0  0
 49 64  1  0  0  0
 49122  1  0  0  0
 50 51  1  0  0  0
 50123  1  0  0  0
 50124  1  0  0  0
 51 52  1  0  0  0
 51125  1  0  0  0
 51126  1  0  0  0
 52127  1  0  0  0
 52128  1  0  0  0
 53 54  1  0  0  0
 54 55  2  0  0  0
 54129  1  0  0  0
 55 57  1  0  0  0
 55130  1  0  0  0
 56 69  2  0  0  0
 57 58  2  0  0  0
 57131  1  0  0  0
 58132  1  0  0  0
 59 60  1  0  0  0
 59 61  1  0  0  0
 59 62  1  0  0  0
 60133  1  0  0  0
 60134  1  0  0  0
 60135  1  0  0  0
 61136  1  0  0  0
 61137  1  0  0  0
 61138  1  0  0  0
 62139  1  0  0  0
 62140  1  0  0  0
 62141  1  0  0  0
 63 65  1  0  0  0
 63142  1  0  0  0
 63143  1  0  0  0
 63144  1  0  0  0
 64145  1  0  0  0
 65146  1  0  0  0
 68 81  1  0  0  0
 71 73  2  0  0  0
 71 76  1  0  0  0
 71147  1  0  0  0
 72 74  1  0  0  0
 72 76  2  0  0  0
 72148  1  0  0  0
 73 75  1  0  0  0
 73 77  1  0  0  0
 74 75  2  0  0  0
 74 78  1  0  0  0
 75 85  1  0  0  0
 76 87  1  0  0  0
 77149  1  0  0  0
 77150  1  0  0  0
 77151  1  0  0  0
 78152  1  0  0  0
 78153  1  0  0  0
 78154  1  0  0  0
 79155  1  0  0  0
 79156  1  0  0  0
 79157  1  0  0  0
 79 83  1  0  0  0
 80158  1  0  0  0
 80159  1  0  0  0
 80160  1  0  0  0
 80 84  1  0  0  0
 81 82  1  0  0  0
 81161  1  0  0  0
 81162  1  0  0  0
 82 87  1  0  0  0
 82163  1  0  0  0
 82164  1  0  0  0
 83 84  1  0  0  0
 83 85  1  0  0  0
 83165  1  0  0  0
 84 86  1  0  0  0
 84166  1  0  0  0
 85167  1  0  0  0
 86168  1  0  0  0
M  ISO  4   1 100  68 101  81 101  86 100
M  END
> <chiral flag>
0

> <version>
0

> <s_m_source_file>
/data/baiqing/PycharmProjects/Reinvent-master-3.2/result/LINK_invent/BTK/process_docking_weight1_custom_sum_contain_oxygen_bond_distance_aromatic_linkinvent_7_9_3/rearranged_h_0136.sdf

> <i_m_source_file_index>
66

> <r_mmod_Potential_Energy-OPLS-2005>
-176.213851928711

> <r_mmod_Stretch_Energy-OPLS-2005>
36.163818359375

> <r_mmod_Bend_Energy-OPLS-2005>
109.882255554199

> <r_mmod_Torsional_Energy-OPLS-2005>
246.986679077148

> <r_mmod_Improper_Torsional_Energy-OPLS-2005>
11.3992433547974

> <r_mmod_Van_der_Waal_Energy-OPLS-2005>
161.648025512695

> <r_mmod_Electrostatic_Energy-OPLS-2005>
-542.950378417969

> <r_mmod_Solvation_Energy-OPLS-2005>
-208.915512084961

> <b_mmod_Minimization_Converged-OPLS-2005>
0

> <r_mmod_RMS_Derivative-OPLS-2005>
1.71026921272278

$$$$
69
                    3D
 Structure written by MMmdl.
154163  0  0  1  0            999 V2000
  -30.5139  -14.9480   20.4265 C   0  0  0  0  0  0
  -30.4508  -12.5855   19.5027 C   0  0  0  0  0  0
  -29.5323  -12.5457   18.2576 C   0  0  0  0  0  0
  -28.0624  -12.3285   18.6667 C   0  0  0  0  0  0
  -27.6379  -13.2454   19.8432 C   0  0  2  0  0  0
  -28.6778  -13.2446   20.9858 C   0  0  0  0  0  0
  -25.2517  -13.8220   20.5723 C   0  0  0  0  0  0
  -24.1816  -13.0449   20.9227 C   0  0  0  0  0  0
  -24.6410  -11.6933   20.8723 C   0  0  0  0  0  0
  -23.9076  -10.4312   21.0392 C   0  0  0  0  0  0
  -24.3631   -9.4232   21.9173 C   0  0  0  0  0  0
  -23.6308   -8.2269   22.0755 C   0  0  0  0  0  0
  -22.4292   -8.0297   21.3546 C   0  0  0  0  0  0
  -21.9924   -9.0265   20.4646 C   0  0  0  0  0  0
  -22.7247  -10.2144   20.3044 C   0  0  0  0  0  0
  -21.6869   -6.0749   22.5281 C   0  0  0  0  0  0
  -21.4015   -6.5649   23.8212 C   0  0  0  0  0  0
  -21.3661   -5.6797   24.9171 C   0  0  0  0  0  0
  -21.6042   -4.3060   24.7215 C   0  0  0  0  0  0
  -21.8819   -3.8154   23.4335 C   0  0  0  0  0  0
  -21.9188   -4.6973   22.3393 C   0  0  0  0  0  0
  -22.7834  -13.5230   21.1882 C   0  0  0  0  0  0
  -22.1672   -4.2163   21.0974 F   0  0  0  0  0  0
  -21.5622   -3.4536   25.7721 F   0  0  0  0  0  0
  -29.9611  -13.6665   20.4058 N   0  0  0  0  0  0
  -26.2928  -12.9440   20.3218 N   0  0  0  0  0  0
  -25.9341  -11.6574   20.5687 N   0  0  0  0  0  0
  -22.0442  -12.8228   22.0411 N   0  0  0  0  0  0
  -25.4230  -15.1954   20.4220 N   0  0  0  0  0  0
  -31.6938  -15.0685   20.0790 O   0  0  0  0  0  0
  -21.6650   -6.8898   21.4250 O   0  0  0  0  0  0
  -22.3539  -14.5543   20.6730 O   0  0  0  0  0  0
  -24.6445  -31.8434   23.1878 C   0  0  0  0  0  0
  -25.9216  -32.4686   23.8274 C   0  0  1  0  0  0
  -27.2197  -27.1263   20.1509 C   0  0  0  0  0  0
  -25.5968  -33.8486   24.2193 N   0  0  0  0  0  0
  -23.4472  -30.4611   21.5346 C   0  0  2  0  0  0
  -24.8963  -28.8860   20.1076 C   0  0  0  0  0  0
  -22.7561  -29.4543   22.4880 C   0  0  0  0  0  0
  -18.0298  -28.1396   22.8475 C   0  0  0  0  0  0
  -24.1492  -36.7249   23.2633 C   0  0  0  0  0  0
  -26.0026  -30.7134   21.3868 C   0  0  0  0  0  0
  -26.0719  -29.3234   20.7289 C   0  0  0  0  0  0
  -27.2289  -28.4577   20.7368 C   0  0  0  0  0  0
  -26.0158  -26.7901   19.4903 C   0  0  0  0  0  0
  -24.8824  -27.6339   19.4737 C   0  0  0  0  0  0
  -23.6718  -29.7886   20.1536 C   0  0  0  0  0  0
  -25.4116  -36.3014   24.0314 C   0  0  1  0  0  0
  -20.5913  -28.3720   23.1248 C   0  0  2  0  0  0
  -20.6781  -26.9430   22.5402 C   0  0  0  0  0  0
  -19.5755  -26.6377   21.5213 C   0  0  0  0  0  0
  -18.1936  -26.7933   22.1623 C   0  0  0  0  0  0
  -19.1553  -28.8878   23.2849 C   0  0  0  0  0  0
  -18.9460  -30.1475   23.8869 C   0  0  0  0  0  0
  -17.6455  -30.6594   24.0553 C   0  0  0  0  0  0
  -25.9071  -34.9395   23.5057 C   0  0  0  0  0  0
  -16.5351  -29.9079   23.6344 C   0  0  0  0  0  0
  -16.7280  -28.6503   23.0363 C   0  0  0  0  0  0
  -26.4527  -31.6555   25.0721 C   0  0  0  0  0  0
  -25.3708  -31.3765   26.1418 C   0  0  0  0  0  0
  -27.0385  -30.2945   24.6313 C   0  0  0  0  0  0
  -27.6066  -32.4316   25.7502 C   0  0  0  0  0  0
  -27.5589  -37.1760   24.8447 C   0  0  0  0  0  0
  -21.4262  -29.3042   22.3621 N   0  0  0  0  0  0
  -26.4274  -37.3740   23.9426 N   0  0  0  0  0  0
  -24.7181  -31.0281   22.0915 N   0  0  0  0  0  0
  -23.4204  -28.8093   23.3034 O   0  0  0  0  0  0
  -28.2909  -26.1625   20.2664 O   0  0  0  0  0  0
  -26.5656  -34.8898   22.4638 O   0  0  0  0  0  0
  -23.5562  -32.1326   23.7095 O   0  0  0  0  0  0
  -30.4594  -18.3334   19.5662 C   0  0  0  0  0  0
  -30.3020  -19.7602   19.3718 C   0  0  0  0  0  0
  -29.7018  -17.6007   20.5301 C   0  0  0  0  0  0
  -28.8418  -18.5113   21.2701 C   0  0  0  0  0  0
  -29.4021  -20.5803   20.1210 C   0  0  0  0  0  0
  -26.4730  -18.1062   22.3374 C   0  0  0  0  0  0
  -27.2745  -18.8298   23.4025 C   0  0  0  0  0  0
  -27.9732  -17.9639   22.3770 C   0  0  0  0  0  0
  -28.3150  -24.6894   19.7395 C   0  0  0  0  0  0
  -28.5904  -23.2073   20.5244 C   0  0  0  0  0  0
  -28.7027  -19.8990   21.0791 N   0  0  0  0  0  0
  -29.6880  -16.0670   20.7159 N   0  0  0  0  0  0
  -29.2329  -22.0063   19.8013 O   0  0  0  0  0  0
  -31.4852  -12.7520   19.1981 H   0  0  0  0  0  0
  -30.4465  -11.6229   20.0161 H   0  0  0  0  0  0
  -29.8561  -11.7597   17.5742 H   0  0  0  0  0  0
  -29.6237  -13.4834   17.7072 H   0  0  0  0  0  0
  -27.9518  -11.2828   18.9562 H   0  0  0  0  0  0
  -27.4042  -12.4797   17.8092 H   0  0  0  0  0  0
  -27.6113  -14.2540   19.4304 H   0  0  0  0  0  0
  -28.7594  -12.2565   21.4422 H   0  0  0  0  0  0
  -28.3708  -13.9230   21.7832 H   0  0  0  0  0  0
  -25.2767   -9.5726   22.4744 H   0  0  0  0  0  0
  -24.0017   -7.4675   22.7488 H   0  0  0  0  0  0
  -21.0844   -8.8776   19.8968 H   0  0  0  0  0  0
  -22.3692  -10.9678   19.6151 H   0  0  0  0  0  0
  -21.2024   -7.6161   23.9724 H   0  0  0  0  0  0
  -21.1485   -6.0524   25.9079 H   0  0  0  0  0  0
  -22.0596   -2.7618   23.2813 H   0  0  0  0  0  0
  -22.4020  -11.9877   22.4807 H   0  0  0  0  0  0
  -21.1072  -13.1307   22.2586 H   0  0  0  0  0  0
  -24.6648  -15.8504   20.5752 H   0  0  0  0  0  0
  -26.2570  -15.6360   20.0583 H   0  0  0  0  0  0
  -26.7280  -32.5288   23.1000 H   0  0  0  0  0  0
  -25.0117  -33.9598   25.0342 H   0  0  0  0  0  0
  -22.7501  -31.2872   21.3821 H   0  0  0  0  0  0
  -23.3772  -35.9564   23.3237 H   0  0  0  0  0  0
  -24.3607  -36.8938   22.2067 H   0  0  0  0  0  0
  -23.7219  -37.6413   23.6710 H   0  0  0  0  0  0
  -26.1578  -31.4679   20.6137 H   0  0  0  0  0  0
  -26.8716  -30.7637   22.0314 H   0  0  0  0  0  0
  -28.1213  -28.7860   21.2517 H   0  0  0  0  0  0
  -25.8973  -25.8323   19.0103 H   0  0  0  0  0  0
  -23.9818  -27.2937   18.9810 H   0  0  0  0  0  0
  -23.8031  -30.5620   19.3961 H   0  0  0  0  0  0
  -22.7852  -29.2297   19.8488 H   0  0  0  0  0  0
  -25.1297  -36.1834   25.0802 H   0  0  0  0  0  0
  -20.9997  -28.3295   24.1378 H   0  0  0  0  0  0
  -20.5685  -26.2330   23.3611 H   0  0  0  0  0  0
  -21.6645  -26.7435   22.1203 H   0  0  0  0  0  0
  -19.6915  -25.6277   21.1268 H   0  0  0  0  0  0
  -19.6698  -27.3162   20.6725 H   0  0  0  0  0  0
  -17.4210  -26.6681   21.4023 H   0  0  0  0  0  0
  -18.0335  -26.0084   22.9027 H   0  0  0  0  0  0
  -19.7931  -30.7299   24.2235 H   0  0  0  0  0  0
  -17.5004  -31.6277   24.5144 H   0  0  0  0  0  0
  -15.5341  -30.2962   23.7689 H   0  0  0  0  0  0
  -15.8687  -28.0802   22.7101 H   0  0  0  0  0  0
  -24.5863  -30.7148   25.7732 H   0  0  0  0  0  0
  -24.8929  -32.2959   26.4809 H   0  0  0  0  0  0
  -25.7974  -30.8939   27.0221 H   0  0  0  0  0  0
  -26.3003  -29.6665   24.1315 H   0  0  0  0  0  0
  -27.3977  -29.7249   25.4895 H   0  0  0  0  0  0
  -27.8924  -30.4164   23.9647 H   0  0  0  0  0  0
  -27.2676  -33.3638   26.2033 H   0  0  0  0  0  0
  -28.3905  -32.6840   25.0349 H   0  0  0  0  0  0
  -28.0713  -31.8475   26.5457 H   0  0  0  0  0  0
  -28.2522  -38.0136   24.7588 H   0  0  0  0  0  0
  -28.1163  -36.2669   24.6138 H   0  0  0  0  0  0
  -27.2338  -37.1243   25.8851 H   0  0  0  0  0  0
  -20.9477  -29.8756   21.6799 H   0  0  0  0  0  0
  -26.0132  -38.2798   24.1466 H   0  0  0  0  0  0
  -31.1502  -17.8014   18.9288 H   0  0  0  0  0  0
  -30.8919  -20.2360   18.6016 H   0  0  0  0  0  0
  -26.0425  -18.7093   21.5398 H   0  0  0  0  0  0
  -25.8813  -17.2502   22.6526 H   0  0  0  0  0  0
  -27.2073  -18.4442   24.4178 H   0  0  0  0  0  0
  -27.3583  -19.9112   23.3230 H   0  0  0  0  0  0
  -28.3784  -17.0314   22.7624 H   0  0  0  0  0  0
  -27.4772  -24.5238   19.0688 H   0  0  0  0  0  0
  -29.1562  -24.7475   19.0493 H   0  0  0  0  0  0
  -27.6505  -22.8654   20.9581 H   0  0  0  0  0  0
  -29.2380  -23.4090   21.3776 H   0  0  0  0  0  0
  -28.8168  -15.7406   21.1060 H   0  0  0  0  0  0
  1 25  1  0  0  0
  1 30  2  0  0  0
  1 82  1  0  0  0
  2  3  1  0  0  0
  2 25  1  0  0  0
  2 84  1  0  0  0
  2 85  1  0  0  0
  3  4  1  0  0  0
  3 86  1  0  0  0
  3 87  1  0  0  0
  4  5  1  0  0  0
  4 88  1  0  0  0
  4 89  1  0  0  0
  5  6  1  0  0  0
  5 26  1  0  0  0
  5 90  1  0  0  0
  6 25  1  0  0  0
  6 91  1  0  0  0
  6 92  1  0  0  0
  7  8  2  0  0  0
  7 26  1  0  0  0
  7 29  1  0  0  0
  8  9  1  0  0  0
  8 22  1  0  0  0
  9 10  1  0  0  0
  9 27  2  0  0  0
 10 11  2  0  0  0
 10 15  1  0  0  0
 11 12  1  0  0  0
 11 93  1  0  0  0
 12 13  2  0  0  0
 12 94  1  0  0  0
 13 14  1  0  0  0
 13 31  1  0  0  0
 14 15  2  0  0  0
 14 95  1  0  0  0
 15 96  1  0  0  0
 16 17  2  0  0  0
 16 21  1  0  0  0
 16 31  1  0  0  0
 17 18  1  0  0  0
 17 97  1  0  0  0
 18 19  2  0  0  0
 18 98  1  0  0  0
 19 20  1  0  0  0
 19 24  1  0  0  0
 20 21  2  0  0  0
 20 99  1  0  0  0
 21 23  1  0  0  0
 22 28  1  0  0  0
 22 32  2  0  0  0
 26 27  1  0  0  0
 28100  1  0  0  0
 28101  1  0  0  0
 29102  1  0  0  0
 29103  1  0  0  0
 33 34  1  0  0  0
 33 66  1  0  0  0
 33 70  2  0  0  0
 34 36  1  0  0  0
 34 59  1  0  0  0
 34104  1  0  0  0
 35 44  2  0  0  0
 35 45  1  0  0  0
 35 68  1  0  0  0
 36 56  1  0  0  0
 36105  1  0  0  0
 37 39  1  0  0  0
 37 47  1  0  0  0
 37 66  1  0  0  0
 37106  1  0  0  0
 38 43  2  0  0  0
 38 46  1  0  0  0
 38 47  1  0  0  0
 39 64  1  0  0  0
 39 67  2  0  0  0
 40 52  1  0  0  0
 40 53  2  0  0  0
 40 58  1  0  0  0
 41107  1  0  0  0
 41108  1  0  0  0
 41109  1  0  0  0
 41 48  1  0  0  0
 42 43  1  0  0  0
 42 66  1  0  0  0
 42110  1  0  0  0
 42111  1  0  0  0
 43 44  1  0  0  0
 44112  1  0  0  0
 45 46  2  0  0  0
 45113  1  0  0  0
 46114  1  0  0  0
 47115  1  0  0  0
 47116  1  0  0  0
 48 56  1  0  0  0
 48 65  1  0  0  0
 48117  1  0  0  0
 49 50  1  0  0  0
 49 53  1  0  0  0
 49 64  1  0  0  0
 49118  1  0  0  0
 50 51  1  0  0  0
 50119  1  0  0  0
 50120  1  0  0  0
 51 52  1  0  0  0
 51121  1  0  0  0
 51122  1  0  0  0
 52123  1  0  0  0
 52124  1  0  0  0
 53 54  1  0  0  0
 54 55  2  0  0  0
 54125  1  0  0  0
 55 57  1  0  0  0
 55126  1  0  0  0
 56 69  2  0  0  0
 57 58  2  0  0  0
 57127  1  0  0  0
 58128  1  0  0  0
 59 60  1  0  0  0
 59 61  1  0  0  0
 59 62  1  0  0  0
 60129  1  0  0  0
 60130  1  0  0  0
 60131  1  0  0  0
 61132  1  0  0  0
 61133  1  0  0  0
 61134  1  0  0  0
 62135  1  0  0  0
 62136  1  0  0  0
 62137  1  0  0  0
 63 65  1  0  0  0
 63138  1  0  0  0
 63139  1  0  0  0
 63140  1  0  0  0
 64141  1  0  0  0
 65142  1  0  0  0
 68 79  1  0  0  0
 71 72  2  0  0  0
 71 73  1  0  0  0
 71143  1  0  0  0
 72 75  1  0  0  0
 72144  1  0  0  0
 73 74  2  0  0  0
 73 82  1  0  0  0
 74 81  1  0  0  0
 74 78  1  0  0  0
 75 81  2  0  0  0
 75 83  1  0  0  0
 76 77  1  0  0  0
 76 78  1  0  0  0
 76145  1  0  0  0
 76146  1  0  0  0
 77 78  1  0  0  0
 77147  1  0  0  0
 77148  1  0  0  0
 78149  1  0  0  0
 79 80  1  0  0  0
 79150  1  0  0  0
 79151  1  0  0  0
 80 83  1  0  0  0
 80152  1  0  0  0
 80153  1  0  0  0
 82154  1  0  0  0
M  ISO  4   1 100  68 101  79 101  82 100
M  END
> <chiral flag>
0

> <version>
0

> <s_m_source_file>
/data/baiqing/PycharmProjects/Reinvent-master-3.2/result/LINK_invent/BTK/process_docking_weight1_custom_sum_contain_oxygen_bond_distance_aromatic_linkinvent_7_9_3/rearranged_h_0136.sdf

> <i_m_source_file_index>
67

> <r_mmod_Potential_Energy-OPLS-2005>
315.285308837891

> <r_mmod_Stretch_Energy-OPLS-2005>
243.631500244141

> <r_mmod_Bend_Energy-OPLS-2005>
308.313171386719

> <r_mmod_Torsional_Energy-OPLS-2005>
233.121109008789

> <r_mmod_Improper_Torsional_Energy-OPLS-2005>
3.44157886505127

> <r_mmod_Van_der_Waal_Energy-OPLS-2005>
130.351272583008

> <r_mmod_Electrostatic_Energy-OPLS-2005>
-582.6220703125

> <r_mmod_Solvation_Energy-OPLS-2005>
-216.166748046875

> <b_mmod_Minimization_Converged-OPLS-2005>
0

> <r_mmod_RMS_Derivative-OPLS-2005>
1.88973665237427

$$$$
70
                    3D
 Structure written by MMmdl.
167175  0  0  1  0            999 V2000
  -30.7124  -14.4005   20.6249 C   0  0  0  0  0  0
  -30.4267  -12.2808   19.3967 C   0  0  0  0  0  0
  -29.4918  -12.5228   18.1940 C   0  0  0  0  0  0
  -28.0114  -12.3805   18.6053 C   0  0  0  0  0  0
  -27.6682  -13.1941   19.8815 C   0  0  2  0  0  0
  -28.7082  -12.9146   20.9906 C   0  0  0  0  0  0
  -25.2617  -13.8138   20.5665 C   0  0  0  0  0  0
  -24.1842  -13.0435   20.9160 C   0  0  0  0  0  0
  -24.6367  -11.6887   20.8726 C   0  0  0  0  0  0
  -23.9016  -10.4285   21.0423 C   0  0  0  0  0  0
  -24.3578   -9.4215   21.9202 C   0  0  0  0  0  0
  -23.6282   -8.2233   22.0760 C   0  0  0  0  0  0
  -22.4264   -8.0257   21.3539 C   0  0  0  0  0  0
  -21.9885   -9.0239   20.4647 C   0  0  0  0  0  0
  -22.7193  -10.2126   20.3073 C   0  0  0  0  0  0
  -21.6846   -6.0730   22.5284 C   0  0  0  0  0  0
  -21.4008   -6.5636   23.8222 C   0  0  0  0  0  0
  -21.3663   -5.6791   24.9183 C   0  0  0  0  0  0
  -21.6050   -4.3058   24.7230 C   0  0  0  0  0  0
  -21.8819   -3.8136   23.4351 C   0  0  0  0  0  0
  -21.9188   -4.6953   22.3403 C   0  0  0  0  0  0
  -22.7872  -13.5266   21.1833 C   0  0  0  0  0  0
  -22.1658   -4.2144   21.0986 F   0  0  0  0  0  0
  -21.5638   -3.4545   25.7745 F   0  0  0  0  0  0
  -30.0491  -13.2276   20.4551 N   0  0  0  0  0  0
  -26.3051  -12.9281   20.3374 N   0  0  0  0  0  0
  -25.9294  -11.6439   20.5742 N   0  0  0  0  0  0
  -22.0468  -12.8282   22.0377 N   0  0  0  0  0  0
  -25.4388  -15.1849   20.4056 N   0  0  0  0  0  0
  -31.7892  -14.6681   20.0817 O   0  0  0  0  0  0
  -21.6623   -6.8859   21.4241 O   0  0  0  0  0  0
  -22.3579  -14.5584   20.6691 O   0  0  0  0  0  0
  -24.6126  -31.8683   23.2115 C   0  0  0  0  0  0
  -25.9047  -32.4828   23.8392 C   0  0  1  0  0  0
  -27.2409  -27.4648   20.1033 C   0  0  0  0  0  0
  -25.5919  -33.8618   24.2323 N   0  0  0  0  0  0
  -23.3991  -30.4908   21.5496 C   0  0  2  0  0  0
  -24.8472  -28.9526   20.1198 C   0  0  0  0  0  0
  -22.7399  -29.4670   22.5010 C   0  0  0  0  0  0
  -18.0270  -28.1369   22.8515 C   0  0  0  0  0  0
  -24.1481  -36.7321   23.2641 C   0  0  0  0  0  0
  -25.9227  -30.8432   21.3600 C   0  0  0  0  0  0
  -26.0009  -29.4748   20.7191 C   0  0  0  0  0  0
  -27.2020  -28.7331   20.7179 C   0  0  0  0  0  0
  -26.0776  -26.9477   19.4993 C   0  0  0  0  0  0
  -24.8790  -27.6845   19.5100 C   0  0  0  0  0  0
  -23.6067  -29.8160   20.1648 C   0  0  0  0  0  0
  -25.4102  -36.3111   24.0348 C   0  0  1  0  0  0
  -20.5867  -28.3653   23.1335 C   0  0  2  0  0  0
  -20.6754  -26.9398   22.5417 C   0  0  0  0  0  0
  -19.5726  -26.6383   21.5224 C   0  0  0  0  0  0
  -18.1908  -26.7914   22.1632 C   0  0  0  0  0  0
  -19.1516  -28.8825   23.2921 C   0  0  0  0  0  0
  -18.9449  -30.1453   23.8917 C   0  0  0  0  0  0
  -17.6441  -30.6582   24.0577 C   0  0  0  0  0  0
  -25.9030  -34.9477   23.5118 C   0  0  0  0  0  0
  -16.5339  -29.9084   23.6341 C   0  0  0  0  0  0
  -16.7257  -28.6499   23.0361 C   0  0  0  0  0  0
  -26.4461  -31.6611   25.0732 C   0  0  0  0  0  0
  -25.3757  -31.3742   26.1505 C   0  0  0  0  0  0
  -27.0283  -30.3054   24.6105 C   0  0  0  0  0  0
  -27.6026  -32.4334   25.7498 C   0  0  0  0  0  0
  -27.5569  -37.1820   24.8465 C   0  0  0  0  0  0
  -21.4120  -29.3022   22.3751 N   0  0  0  0  0  0
  -26.4272  -37.3821   23.9430 N   0  0  0  0  0  0
  -24.6621  -31.0807   22.1001 N   0  0  0  0  0  0
  -23.4184  -28.8251   23.3060 O   0  0  0  0  0  0
  -28.4088  -26.7527   20.0130 O   0  0  0  0  0  0
  -26.5563  -34.8927   22.4661 O   0  0  0  0  0  0
  -23.5333  -32.1413   23.7527 O   0  0  0  0  0  0
  -28.6813  -22.6243   25.3532 C   0  0  0  0  0  0
  -28.5296  -23.0169   22.8918 C   0  0  0  0  0  0
  -28.0553  -21.4912   26.1383 C   0  0  0  0  0  0
  -29.1666  -22.1602   23.9829 C   0  0  2  0  0  0
  -28.4954  -20.2256   25.3928 C   0  0  2  0  0  0
  -28.7726  -20.6545   23.9229 C   0  0  2  0  0  0
  -27.4556  -19.0979   25.5585 C   0  0  0  0  0  0
  -29.8413  -19.7614   23.2347 C   0  0  0  0  0  0
  -28.4123  -24.6537   21.2274 C   0  0  0  0  0  0
  -30.2298  -16.7544   21.3711 C   0  0  0  0  0  0
  -30.2872  -17.2947   22.8163 C   0  0  0  0  0  0
  -28.8563  -26.1305   21.2145 C   0  0  0  0  0  0
  -29.1624  -23.8971   22.2232 N   0  0  0  0  0  0
  -30.0387  -15.3033   21.3455 N   0  0  0  0  0  0
  -29.3173  -18.3923   23.0273 N   0  3  0  0  0  0
  -28.8004  -23.7709   25.7953 O   0  0  0  0  0  0
  -31.4724  -12.3836   19.0985 H   0  0  0  0  0  0
  -30.3227  -11.2571   19.7602 H   0  0  0  0  0  0
  -29.7238  -11.8253   17.3883 H   0  0  0  0  0  0
  -29.6651  -13.5216   17.7907 H   0  0  0  0  0  0
  -27.8174  -11.3216   18.7817 H   0  0  0  0  0  0
  -27.3594  -12.6757   17.7817 H   0  0  0  0  0  0
  -27.7292  -14.2502   19.6168 H   0  0  0  0  0  0
  -28.6732  -11.8642   21.2820 H   0  0  0  0  0  0
  -28.4636  -13.4634   21.9004 H   0  0  0  0  0  0
  -25.2730   -9.5719   22.4764 H   0  0  0  0  0  0
  -24.0010   -7.4640   22.7491 H   0  0  0  0  0  0
  -21.0814   -8.8749   19.8965 H   0  0  0  0  0  0
  -22.3653  -10.9663   19.6173 H   0  0  0  0  0  0
  -21.1991   -7.6148   23.9727 H   0  0  0  0  0  0
  -21.1494   -6.0518   25.9096 H   0  0  0  0  0  0
  -22.0589   -2.7598   23.2851 H   0  0  0  0  0  0
  -22.4024  -11.9933   22.4803 H   0  0  0  0  0  0
  -21.1097  -13.1367   22.2543 H   0  0  0  0  0  0
  -24.6754  -15.8456   20.5044 H   0  0  0  0  0  0
  -26.2896  -15.6125   20.0637 H   0  0  0  0  0  0
  -26.7161  -32.5556   23.1197 H   0  0  0  0  0  0
  -25.0153  -33.9776   25.0510 H   0  0  0  0  0  0
  -22.6892  -31.3093   21.4091 H   0  0  0  0  0  0
  -23.3733  -35.9666   23.3300 H   0  0  0  0  0  0
  -24.3584  -36.8914   22.2055 H   0  0  0  0  0  0
  -23.7225  -37.6533   23.6627 H   0  0  0  0  0  0
  -26.0299  -31.6092   20.5898 H   0  0  0  0  0  0
  -26.8118  -30.8987   21.9758 H   0  0  0  0  0  0
  -28.0969  -29.1422   21.1677 H   0  0  0  0  0  0
  -26.1066  -25.9811   19.0144 H   0  0  0  0  0  0
  -23.9945  -27.2790   19.0356 H   0  0  0  0  0  0
  -23.7111  -30.5849   19.3985 H   0  0  0  0  0  0
  -22.7316  -29.2299   19.8747 H   0  0  0  0  0  0
  -25.1278  -36.1964   25.0848 H   0  0  0  0  0  0
  -20.9970  -28.3199   24.1443 H   0  0  0  0  0  0
  -20.5662  -26.2269   23.3599 H   0  0  0  0  0  0
  -21.6632  -26.7427   22.1225 H   0  0  0  0  0  0
  -19.6873  -25.6301   21.1243 H   0  0  0  0  0  0
  -19.6661  -27.3196   20.6757 H   0  0  0  0  0  0
  -17.4191  -26.6712   21.4011 H   0  0  0  0  0  0
  -18.0293  -26.0032   22.8994 H   0  0  0  0  0  0
  -19.7919  -30.7295   24.2262 H   0  0  0  0  0  0
  -17.4985  -31.6266   24.5182 H   0  0  0  0  0  0
  -15.5336  -30.2987   23.7641 H   0  0  0  0  0  0
  -15.8664  -28.0832   22.7036 H   0  0  0  0  0  0
  -24.5920  -30.7067   25.7901 H   0  0  0  0  0  0
  -24.8959  -32.2909   26.4949 H   0  0  0  0  0  0
  -25.8145  -30.8955   27.0268 H   0  0  0  0  0  0
  -26.2811  -29.6837   24.1158 H   0  0  0  0  0  0
  -27.4044  -29.7279   25.4557 H   0  0  0  0  0  0
  -27.8656  -30.4379   23.9252 H   0  0  0  0  0  0
  -27.2629  -33.3634   26.2073 H   0  0  0  0  0  0
  -28.3841  -32.6893   25.0332 H   0  0  0  0  0  0
  -28.0695  -31.8475   26.5424 H   0  0  0  0  0  0
  -28.2620  -38.0093   24.7522 H   0  0  0  0  0  0
  -28.1033  -36.2629   24.6267 H   0  0  0  0  0  0
  -27.2312  -37.1462   25.8879 H   0  0  0  0  0  0
  -20.9267  -29.8786   21.7024 H   0  0  0  0  0  0
  -26.0149  -38.2901   24.1413 H   0  0  0  0  0  0
  -27.4641  -22.8173   22.7298 H   0  0  0  0  0  0
  -26.9717  -21.6081   26.1229 H   0  0  0  0  0  0
  -28.3865  -21.4994   27.1766 H   0  0  0  0  0  0
  -30.2492  -22.2848   23.9628 H   0  0  0  0  0  0
  -29.4336  -19.8987   25.8452 H   0  0  0  0  0  0
  -27.8377  -20.5688   23.3644 H   0  0  0  0  0  0
  -26.4961  -19.3593   25.1078 H   0  0  0  0  0  0
  -27.2676  -18.9057   26.6152 H   0  0  0  0  0  0
  -27.7766  -18.1507   25.1280 H   0  0  0  0  0  0
  -30.7448  -19.7357   23.8469 H   0  0  0  0  0  0
  -30.1302  -20.1801   22.2693 H   0  0  0  0  0  0
  -28.6014  -24.2267   20.2411 H   0  0  0  0  0  0
  -27.3284  -24.6078   21.3727 H   0  0  0  0  0  0
  -31.1342  -17.0497   20.8358 H   0  0  0  0  0  0
  -29.4049  -17.1993   20.8118 H   0  0  0  0  0  0
  -31.3028  -17.6078   23.0670 H   0  0  0  0  0  0
  -30.0399  -16.5084   23.5314 H   0  0  0  0  0  0
  -29.9449  -26.1968   21.2273 H   0  0  0  0  0  0
  -28.5006  -26.6514   22.1068 H   0  0  0  0  0  0
  -29.1811  -14.9559   21.7490 H   0  0  0  0  0  0
  -28.6485  -18.3889   22.2739 H   0  0  0  0  0  0
  -28.8145  -18.1566   23.8684 H   0  0  0  0  0  0
  1 25  1  0  0  0
  1 30  2  0  0  0
  1 84  1  0  0  0
  2  3  1  0  0  0
  2 25  1  0  0  0
  2 87  1  0  0  0
  2 88  1  0  0  0
  3  4  1  0  0  0
  3 89  1  0  0  0
  3 90  1  0  0  0
  4  5  1  0  0  0
  4 91  1  0  0  0
  4 92  1  0  0  0
  5  6  1  0  0  0
  5 26  1  0  0  0
  5 93  1  0  0  0
  6 25  1  0  0  0
  6 94  1  0  0  0
  6 95  1  0  0  0
  7  8  2  0  0  0
  7 26  1  0  0  0
  7 29  1  0  0  0
  8  9  1  0  0  0
  8 22  1  0  0  0
  9 10  1  0  0  0
  9 27  2  0  0  0
 10 11  2  0  0  0
 10 15  1  0  0  0
 11 12  1  0  0  0
 11 96  1  0  0  0
 12 13  2  0  0  0
 12 97  1  0  0  0
 13 14  1  0  0  0
 13 31  1  0  0  0
 14 15  2  0  0  0
 14 98  1  0  0  0
 15 99  1  0  0  0
 16 17  2  0  0  0
 16 21  1  0  0  0
 16 31  1  0  0  0
 17 18  1  0  0  0
 17100  1  0  0  0
 18 19  2  0  0  0
 18101  1  0  0  0
 19 20  1  0  0  0
 19 24  1  0  0  0
 20 21  2  0  0  0
 20102  1  0  0  0
 21 23  1  0  0  0
 22 28  1  0  0  0
 22 32  2  0  0  0
 26 27  1  0  0  0
 28103  1  0  0  0
 28104  1  0  0  0
 29105  1  0  0  0
 29106  1  0  0  0
 33 34  1  0  0  0
 33 66  1  0  0  0
 33 70  2  0  0  0
 34 36  1  0  0  0
 34 59  1  0  0  0
 34107  1  0  0  0
 35 44  2  0  0  0
 35 45  1  0  0  0
 35 68  1  0  0  0
 36 56  1  0  0  0
 36108  1  0  0  0
 37 39  1  0  0  0
 37 47  1  0  0  0
 37 66  1  0  0  0
 37109  1  0  0  0
 38 43  2  0  0  0
 38 46  1  0  0  0
 38 47  1  0  0  0
 39 64  1  0  0  0
 39 67  2  0  0  0
 40 52  1  0  0  0
 40 53  2  0  0  0
 40 58  1  0  0  0
 41110  1  0  0  0
 41111  1  0  0  0
 41112  1  0  0  0
 41 48  1  0  0  0
 42 43  1  0  0  0
 42 66  1  0  0  0
 42113  1  0  0  0
 42114  1  0  0  0
 43 44  1  0  0  0
 44115  1  0  0  0
 45 46  2  0  0  0
 45116  1  0  0  0
 46117  1  0  0  0
 47118  1  0  0  0
 47119  1  0  0  0
 48 56  1  0  0  0
 48 65  1  0  0  0
 48120  1  0  0  0
 49 50  1  0  0  0
 49 53  1  0  0  0
 49 64  1  0  0  0
 49121  1  0  0  0
 50 51  1  0  0  0
 50122  1  0  0  0
 50123  1  0  0  0
 51 52  1  0  0  0
 51124  1  0  0  0
 51125  1  0  0  0
 52126  1  0  0  0
 52127  1  0  0  0
 53 54  1  0  0  0
 54 55  2  0  0  0
 54128  1  0  0  0
 55 57  1  0  0  0
 55129  1  0  0  0
 56 69  2  0  0  0
 57 58  2  0  0  0
 57130  1  0  0  0
 58131  1  0  0  0
 59 60  1  0  0  0
 59 61  1  0  0  0
 59 62  1  0  0  0
 60132  1  0  0  0
 60133  1  0  0  0
 60134  1  0  0  0
 61135  1  0  0  0
 61136  1  0  0  0
 61137  1  0  0  0
 62138  1  0  0  0
 62139  1  0  0  0
 62140  1  0  0  0
 63 65  1  0  0  0
 63141  1  0  0  0
 63142  1  0  0  0
 63143  1  0  0  0
 64144  1  0  0  0
 65145  1  0  0  0
 68 82  1  0  0  0
 71 73  1  0  0  0
 71 74  1  0  0  0
 71 86  2  0  0  0
 72 83  2  0  0  0
 72146  1  0  0  0
 72 74  1  0  0  0
 73 75  1  0  0  0
 73147  1  0  0  0
 73148  1  0  0  0
 74 76  1  0  0  0
 74149  1  0  0  0
 75 76  1  0  0  0
 75 77  1  0  0  0
 75150  1  0  0  0
 76 78  1  0  0  0
 76151  1  0  0  0
 77152  1  0  0  0
 77153  1  0  0  0
 77154  1  0  0  0
 78 85  1  0  0  0
 78155  1  0  0  0
 78156  1  0  0  0
 79 82  1  0  0  0
 79 83  1  0  0  0
 79157  1  0  0  0
 79158  1  0  0  0
 80 81  1  0  0  0
 80 84  1  0  0  0
 80159  1  0  0  0
 80160  1  0  0  0
 81 85  1  0  0  0
 81161  1  0  0  0
 81162  1  0  0  0
 82163  1  0  0  0
 82164  1  0  0  0
 84165  1  0  0  0
 85166  1  0  0  0
 85167  1  0  0  0
M  CHG  1  85   1
M  ISO  4   1 100  68 101  82 101  84 100
M  END
> <chiral flag>
0

> <version>
0

> <s_m_source_file>
/data/baiqing/PycharmProjects/Reinvent-master-3.2/result/LINK_invent/BTK/process_docking_weight1_custom_sum_contain_oxygen_bond_distance_aromatic_linkinvent_7_9_3/rearranged_h_0136.sdf

> <i_m_source_file_index>
68

> <r_mmod_Potential_Energy-OPLS-2005>
-195.77897644043

> <r_mmod_Stretch_Energy-OPLS-2005>
34.7361183166504

> <r_mmod_Bend_Energy-OPLS-2005>
113.662437438965

> <r_mmod_Torsional_Energy-OPLS-2005>
296.727630615234

> <r_mmod_Improper_Torsional_Energy-OPLS-2005>
3.57958245277405

> <r_mmod_Van_der_Waal_Energy-OPLS-2005>
131.425048828125

> <r_mmod_Electrostatic_Energy-OPLS-2005>
-240.894515991211

> <r_mmod_Solvation_Energy-OPLS-2005>
-542.031311035156

> <b_mmod_Minimization_Converged-OPLS-2005>
0

> <r_mmod_RMS_Derivative-OPLS-2005>
3.00058650970459

$$$$
71
                    3D
 Structure written by MMmdl.
165173  0  0  1  0            999 V2000
  -30.6853  -14.3982   20.6591 C   0  0  0  0  0  0
  -30.4355  -12.2873   19.4038 C   0  0  0  0  0  0
  -29.4981  -12.5345   18.2030 C   0  0  0  0  0  0
  -28.0170  -12.3851   18.6087 C   0  0  0  0  0  0
  -27.6703  -13.1890   19.8895 C   0  0  2  0  0  0
  -28.7025  -12.8844   20.9982 C   0  0  0  0  0  0
  -25.2614  -13.8125   20.5654 C   0  0  0  0  0  0
  -24.1840  -13.0417   20.9133 C   0  0  0  0  0  0
  -24.6369  -11.6889   20.8683 C   0  0  0  0  0  0
  -23.9024  -10.4283   21.0394 C   0  0  0  0  0  0
  -24.3594   -9.4210   21.9170 C   0  0  0  0  0  0
  -23.6277   -8.2244   22.0762 C   0  0  0  0  0  0
  -22.4257   -8.0268   21.3545 C   0  0  0  0  0  0
  -21.9883   -9.0238   20.4637 C   0  0  0  0  0  0
  -22.7209  -10.2121   20.3042 C   0  0  0  0  0  0
  -21.6855   -6.0717   22.5269 C   0  0  0  0  0  0
  -21.4017   -6.5625   23.8199 C   0  0  0  0  0  0
  -21.3654   -5.6783   24.9159 C   0  0  0  0  0  0
  -21.6053   -4.3047   24.7220 C   0  0  0  0  0  0
  -21.8816   -3.8132   23.4340 C   0  0  0  0  0  0
  -21.9193   -4.6945   22.3396 C   0  0  0  0  0  0
  -22.7862  -13.5245   21.1794 C   0  0  0  0  0  0
  -22.1654   -4.2140   21.0974 F   0  0  0  0  0  0
  -21.5636   -3.4525   25.7729 F   0  0  0  0  0  0
  -30.0468  -13.2114   20.4780 N   0  0  0  0  0  0
  -26.3036  -12.9260   20.3367 N   0  0  0  0  0  0
  -25.9279  -11.6426   20.5694 N   0  0  0  0  0  0
  -22.0501  -12.8249   22.0364 N   0  0  0  0  0  0
  -25.4356  -15.1845   20.4083 N   0  0  0  0  0  0
  -31.7392  -14.7105   20.0948 O   0  0  0  0  0  0
  -21.6641   -6.8859   21.4230 O   0  0  0  0  0  0
  -22.3547  -14.5557   20.6661 O   0  0  0  0  0  0
  -24.6118  -31.8691   23.2119 C   0  0  0  0  0  0
  -25.9035  -32.4829   23.8398 C   0  0  1  0  0  0
  -27.2506  -27.4599   20.0850 C   0  0  0  0  0  0
  -25.5885  -33.8629   24.2340 N   0  0  0  0  0  0
  -23.3994  -30.4911   21.5502 C   0  0  2  0  0  0
  -24.8490  -28.9471   20.1290 C   0  0  0  0  0  0
  -22.7381  -29.4668   22.4996 C   0  0  0  0  0  0
  -18.0285  -28.1338   22.8523 C   0  0  0  0  0  0
  -24.1477  -36.7324   23.2644 C   0  0  0  0  0  0
  -25.9256  -30.8362   21.3636 C   0  0  0  0  0  0
  -26.0039  -29.4656   20.7255 C   0  0  0  0  0  0
  -27.2068  -28.7270   20.7078 C   0  0  0  0  0  0
  -26.0824  -26.9526   19.4825 C   0  0  0  0  0  0
  -24.8792  -27.6831   19.5119 C   0  0  0  0  0  0
  -23.6120  -29.8157   20.1677 C   0  0  0  0  0  0
  -25.4091  -36.3117   24.0348 C   0  0  1  0  0  0
  -20.5849  -28.3669   23.1358 C   0  0  2  0  0  0
  -20.6756  -26.9378   22.5479 C   0  0  0  0  0  0
  -19.5735  -26.6311   21.5283 C   0  0  0  0  0  0
  -18.1937  -26.7843   22.1728 C   0  0  0  0  0  0
  -19.1518  -28.8830   23.2923 C   0  0  0  0  0  0
  -18.9435  -30.1449   23.8899 C   0  0  0  0  0  0
  -17.6432  -30.6579   24.0521 C   0  0  0  0  0  0
  -25.9022  -34.9472   23.5131 C   0  0  0  0  0  0
  -16.5334  -29.9073   23.6285 C   0  0  0  0  0  0
  -16.7270  -28.6460   23.0376 C   0  0  0  0  0  0
  -26.4465  -31.6587   25.0702 C   0  0  0  0  0  0
  -25.3744  -31.3666   26.1452 C   0  0  0  0  0  0
  -27.0292  -30.3043   24.6037 C   0  0  0  0  0  0
  -27.6031  -32.4294   25.7478 C   0  0  0  0  0  0
  -27.5570  -37.1819   24.8478 C   0  0  0  0  0  0
  -21.4115  -29.3070   22.3779 N   0  0  0  0  0  0
  -26.4290  -37.3795   23.9405 N   0  0  0  0  0  0
  -24.6639  -31.0801   22.1012 N   0  0  0  0  0  0
  -23.4157  -28.8174   23.3012 O   0  0  0  0  0  0
  -28.4511  -26.8022   19.9661 O   0  0  0  0  0  0
  -26.5589  -34.8928   22.4702 O   0  0  0  0  0  0
  -23.5313  -32.1438   23.7506 O   0  0  0  0  0  0
  -26.6445  -20.2900   21.2859 C   0  0  0  0  0  0
  -28.9165  -21.0769   21.6594 C   0  0  0  0  0  0
  -27.0645  -18.9665   21.5127 C   0  0  0  0  0  0
  -29.3400  -19.7489   21.8856 C   0  0  0  0  0  0
  -27.5602  -21.3565   21.3824 C   0  0  0  0  0  0
  -28.4121  -18.6871   21.8276 C   0  0  0  0  0  0
  -27.0522  -22.7892   21.2727 C   0  0  0  0  0  0
  -28.8139  -17.2574   22.1605 C   0  0  0  0  0  0
  -27.2350  -23.4447   19.8842 C   0  0  0  0  0  0
  -30.0380  -16.7136   21.3951 C   0  0  0  0  0  0
  -29.0592  -24.5171   18.2657 C   0  0  0  0  0  0
  -28.6153  -25.5454   20.6224 C   0  0  0  0  0  0
  -28.5456  -24.2719   19.7216 C   0  0  1  0  0  0
  -30.0091  -15.2515   21.4342 N   0  0  0  0  0  0
  -28.1751  -24.0380   17.1866 N   0  3  0  0  0  0
  -31.4764  -12.4198   19.0986 H   0  0  0  0  0  0
  -30.3542  -11.2544   19.7476 H   0  0  0  0  0  0
  -29.7341  -11.8432   17.3934 H   0  0  0  0  0  0
  -29.6690  -13.5366   17.8066 H   0  0  0  0  0  0
  -27.8227  -11.3230   18.7716 H   0  0  0  0  0  0
  -27.3688  -12.6852   17.7840 H   0  0  0  0  0  0
  -27.7425  -14.2484   19.6420 H   0  0  0  0  0  0
  -28.6633  -11.8244   21.2566 H   0  0  0  0  0  0
  -28.4438  -13.4007   21.9239 H   0  0  0  0  0  0
  -25.2747   -9.5694   22.4724 H   0  0  0  0  0  0
  -23.9989   -7.4646   22.7491 H   0  0  0  0  0  0
  -21.0818   -8.8732   19.8947 H   0  0  0  0  0  0
  -22.3659  -10.9641   19.6138 H   0  0  0  0  0  0
  -21.2006   -7.6133   23.9697 H   0  0  0  0  0  0
  -21.1488   -6.0513   25.9067 H   0  0  0  0  0  0
  -22.0609   -2.7596   23.2840 H   0  0  0  0  0  0
  -22.4115  -11.9914   22.4758 H   0  0  0  0  0  0
  -21.1114  -13.1259   22.2553 H   0  0  0  0  0  0
  -24.6705  -15.8418   20.5122 H   0  0  0  0  0  0
  -26.2923  -15.6198   20.0890 H   0  0  0  0  0  0
  -26.7108  -32.5565   23.1166 H   0  0  0  0  0  0
  -25.0029  -33.9797   25.0476 H   0  0  0  0  0  0
  -22.6914  -31.3087   21.4047 H   0  0  0  0  0  0
  -23.3720  -35.9686   23.3335 H   0  0  0  0  0  0
  -24.3577  -36.8906   22.2059 H   0  0  0  0  0  0
  -23.7254  -37.6548   23.6638 H   0  0  0  0  0  0
  -26.0247  -31.5908   20.5818 H   0  0  0  0  0  0
  -26.8197  -30.9045   21.9712 H   0  0  0  0  0  0
  -28.1027  -29.1344   21.1532 H   0  0  0  0  0  0
  -26.1107  -26.0204   18.9442 H   0  0  0  0  0  0
  -23.9969  -27.2814   19.0331 H   0  0  0  0  0  0
  -23.7297  -30.5840   19.4033 H   0  0  0  0  0  0
  -22.7359  -29.2362   19.8729 H   0  0  0  0  0  0
  -25.1264  -36.1980   25.0846 H   0  0  0  0  0  0
  -20.9944  -28.3194   24.1476 H   0  0  0  0  0  0
  -20.5665  -26.2279   23.3705 H   0  0  0  0  0  0
  -21.6624  -26.7392   22.1282 H   0  0  0  0  0  0
  -19.6942  -25.6202   21.1357 H   0  0  0  0  0  0
  -19.6637  -27.3075   20.6787 H   0  0  0  0  0  0
  -17.4194  -26.6525   21.4154 H   0  0  0  0  0  0
  -18.0360  -26.0039   22.9183 H   0  0  0  0  0  0
  -19.7898  -30.7268   24.2280 H   0  0  0  0  0  0
  -17.4977  -31.6284   24.5057 H   0  0  0  0  0  0
  -15.5324  -30.2978   23.7560 H   0  0  0  0  0  0
  -15.8686  -28.0729   22.7106 H   0  0  0  0  0  0
  -24.5934  -30.6991   25.7793 H   0  0  0  0  0  0
  -24.8910  -32.2807   26.4911 H   0  0  0  0  0  0
  -25.8117  -30.8838   27.0199 H   0  0  0  0  0  0
  -26.2836  -29.6817   24.1081 H   0  0  0  0  0  0
  -27.4081  -29.7249   25.4462 H   0  0  0  0  0  0
  -27.8653  -30.4381   23.9168 H   0  0  0  0  0  0
  -27.2656  -33.3595   26.2065 H   0  0  0  0  0  0
  -28.3856  -32.6847   25.0320 H   0  0  0  0  0  0
  -28.0681  -31.8401   26.5394 H   0  0  0  0  0  0
  -28.2603  -38.0094   24.7472 H   0  0  0  0  0  0
  -28.1035  -36.2616   24.6346 H   0  0  0  0  0  0
  -27.2291  -37.1532   25.8887 H   0  0  0  0  0  0
  -20.9259  -29.8880   21.7081 H   0  0  0  0  0  0
  -26.0170  -38.2879   24.1380 H   0  0  0  0  0  0
  -25.6025  -20.4882   21.0763 H   0  0  0  0  0  0
  -29.6330  -21.8817   21.7348 H   0  0  0  0  0  0
  -26.3358  -18.1685   21.4693 H   0  0  0  0  0  0
  -30.3743  -19.5513   22.1309 H   0  0  0  0  0  0
  -27.5096  -23.3856   22.0601 H   0  0  0  0  0  0
  -25.9849  -22.7800   21.5076 H   0  0  0  0  0  0
  -27.9477  -16.6202   21.9746 H   0  0  0  0  0  0
  -29.0046  -17.1974   23.2344 H   0  0  0  0  0  0
  -27.1415  -22.6627   19.1310 H   0  0  0  0  0  0
  -26.3829  -24.0993   19.7257 H   0  0  0  0  0  0
  -30.9680  -17.1083   21.8089 H   0  0  0  0  0  0
  -29.9865  -17.0387   20.3554 H   0  0  0  0  0  0
  -30.0250  -24.0234   18.1362 H   0  0  0  0  0  0
  -29.2606  -25.5713   18.0821 H   0  0  0  0  0  0
  -29.6229  -25.5886   21.0368 H   0  0  0  0  0  0
  -27.9590  -25.4805   21.4892 H   0  0  0  0  0  0
  -29.3045  -23.6124   20.1426 H   0  0  0  0  0  0
  -29.2191  -14.8403   21.9087 H   0  0  0  0  0  0
  -27.2727  -24.4738   17.2257 H   0  0  0  0  0  0
  -28.0644  -23.0417   17.2284 H   0  0  0  0  0  0
  -28.5840  -24.2621   16.2966 H   0  0  0  0  0  0
  1 25  1  0  0  0
  1 30  2  0  0  0
  1 84  1  0  0  0
  2  3  1  0  0  0
  2 25  1  0  0  0
  2 86  1  0  0  0
  2 87  1  0  0  0
  3  4  1  0  0  0
  3 88  1  0  0  0
  3 89  1  0  0  0
  4  5  1  0  0  0
  4 90  1  0  0  0
  4 91  1  0  0  0
  5  6  1  0  0  0
  5 26  1  0  0  0
  5 92  1  0  0  0
  6 25  1  0  0  0
  6 93  1  0  0  0
  6 94  1  0  0  0
  7  8  2  0  0  0
  7 26  1  0  0  0
  7 29  1  0  0  0
  8  9  1  0  0  0
  8 22  1  0  0  0
  9 10  1  0  0  0
  9 27  2  0  0  0
 10 11  2  0  0  0
 10 15  1  0  0  0
 11 12  1  0  0  0
 11 95  1  0  0  0
 12 13  2  0  0  0
 12 96  1  0  0  0
 13 14  1  0  0  0
 13 31  1  0  0  0
 14 15  2  0  0  0
 14 97  1  0  0  0
 15 98  1  0  0  0
 16 17  2  0  0  0
 16 21  1  0  0  0
 16 31  1  0  0  0
 17 18  1  0  0  0
 17 99  1  0  0  0
 18 19  2  0  0  0
 18100  1  0  0  0
 19 20  1  0  0  0
 19 24  1  0  0  0
 20 21  2  0  0  0
 20101  1  0  0  0
 21 23  1  0  0  0
 22 28  1  0  0  0
 22 32  2  0  0  0
 26 27  1  0  0  0
 28102  1  0  0  0
 28103  1  0  0  0
 29104  1  0  0  0
 29105  1  0  0  0
 33 34  1  0  0  0
 33 66  1  0  0  0
 33 70  2  0  0  0
 34 36  1  0  0  0
 34 59  1  0  0  0
 34106  1  0  0  0
 35 44  2  0  0  0
 35 45  1  0  0  0
 35 68  1  0  0  0
 36 56  1  0  0  0
 36107  1  0  0  0
 37 39  1  0  0  0
 37 47  1  0  0  0
 37 66  1  0  0  0
 37108  1  0  0  0
 38 43  2  0  0  0
 38 46  1  0  0  0
 38 47  1  0  0  0
 39 64  1  0  0  0
 39 67  2  0  0  0
 40 52  1  0  0  0
 40 53  2  0  0  0
 40 58  1  0  0  0
 41109  1  0  0  0
 41110  1  0  0  0
 41111  1  0  0  0
 41 48  1  0  0  0
 42 43  1  0  0  0
 42 66  1  0  0  0
 42112  1  0  0  0
 42113  1  0  0  0
 43 44  1  0  0  0
 44114  1  0  0  0
 45 46  2  0  0  0
 45115  1  0  0  0
 46116  1  0  0  0
 47117  1  0  0  0
 47118  1  0  0  0
 48 56  1  0  0  0
 48 65  1  0  0  0
 48119  1  0  0  0
 49 50  1  0  0  0
 49 53  1  0  0  0
 49 64  1  0  0  0
 49120  1  0  0  0
 50 51  1  0  0  0
 50121  1  0  0  0
 50122  1  0  0  0
 51 52  1  0  0  0
 51123  1  0  0  0
 51124  1  0  0  0
 52125  1  0  0  0
 52126  1  0  0  0
 53 54  1  0  0  0
 54 55  2  0  0  0
 54127  1  0  0  0
 55 57  1  0  0  0
 55128  1  0  0  0
 56 69  2  0  0  0
 57 58  2  0  0  0
 57129  1  0  0  0
 58130  1  0  0  0
 59 60  1  0  0  0
 59 61  1  0  0  0
 59 62  1  0  0  0
 60131  1  0  0  0
 60132  1  0  0  0
 60133  1  0  0  0
 61134  1  0  0  0
 61135  1  0  0  0
 61136  1  0  0  0
 62137  1  0  0  0
 62138  1  0  0  0
 62139  1  0  0  0
 63 65  1  0  0  0
 63140  1  0  0  0
 63141  1  0  0  0
 63142  1  0  0  0
 64143  1  0  0  0
 65144  1  0  0  0
 68 82  1  0  0  0
 71 73  2  0  0  0
 71 75  1  0  0  0
 71145  1  0  0  0
 72 74  1  0  0  0
 72 75  2  0  0  0
 72146  1  0  0  0
 73 76  1  0  0  0
 73147  1  0  0  0
 74 76  2  0  0  0
 74148  1  0  0  0
 75 77  1  0  0  0
 76 78  1  0  0  0
 77 79  1  0  0  0
 77149  1  0  0  0
 77150  1  0  0  0
 78 80  1  0  0  0
 78151  1  0  0  0
 78152  1  0  0  0
 79153  1  0  0  0
 79154  1  0  0  0
 79 83  1  0  0  0
 80 84  1  0  0  0
 80155  1  0  0  0
 80156  1  0  0  0
 81 83  1  0  0  0
 81 85  1  0  0  0
 81157  1  0  0  0
 81158  1  0  0  0
 82 83  1  0  0  0
 82159  1  0  0  0
 82160  1  0  0  0
 83161  1  0  0  0
 84162  1  0  0  0
 85163  1  0  0  0
 85164  1  0  0  0
 85165  1  0  0  0
M  CHG  1  85   1
M  ISO  4   1 100  68 101  82 101  84 100
M  END
> <chiral flag>
0

> <version>
0

> <s_m_source_file>
/data/baiqing/PycharmProjects/Reinvent-master-3.2/result/LINK_invent/BTK/process_docking_weight1_custom_sum_contain_oxygen_bond_distance_aromatic_linkinvent_7_9_3/rearranged_h_0136.sdf

> <i_m_source_file_index>
69

> <r_mmod_Potential_Energy-OPLS-2005>
-250.421951293945

> <r_mmod_Stretch_Energy-OPLS-2005>
36.1755752563477

> <r_mmod_Bend_Energy-OPLS-2005>
110.081115722656

> <r_mmod_Torsional_Energy-OPLS-2005>
275.106323242188

> <r_mmod_Improper_Torsional_Energy-OPLS-2005>
4.31953763961792

> <r_mmod_Van_der_Waal_Energy-OPLS-2005>
148.466781616211

> <r_mmod_Electrostatic_Energy-OPLS-2005>
-346.984344482422

> <r_mmod_Solvation_Energy-OPLS-2005>
-486.676330566406

> <b_mmod_Minimization_Converged-OPLS-2005>
0

> <r_mmod_RMS_Derivative-OPLS-2005>
4.07915687561035

$$$$
72
                    3D
 Structure written by MMmdl.
163172  0  0  1  0            999 V2000
  -30.7002  -14.4390   20.6038 C   0  0  0  0  0  0
  -30.4251  -12.2949   19.4099 C   0  0  0  0  0  0
  -29.4911  -12.5127   18.2010 C   0  0  0  0  0  0
  -28.0117  -12.3763   18.6136 C   0  0  0  0  0  0
  -27.6654  -13.2011   19.8813 C   0  0  2  0  0  0
  -28.7053  -12.9423   20.9953 C   0  0  0  0  0  0
  -25.2604  -13.8159   20.5684 C   0  0  0  0  0  0
  -24.1845  -13.0444   20.9172 C   0  0  0  0  0  0
  -24.6386  -11.6907   20.8728 C   0  0  0  0  0  0
  -23.9053  -10.4297   21.0400 C   0  0  0  0  0  0
  -24.3609   -9.4217   21.9182 C   0  0  0  0  0  0
  -23.6288   -8.2251   22.0754 C   0  0  0  0  0  0
  -22.4270   -8.0284   21.3544 C   0  0  0  0  0  0
  -21.9902   -9.0254   20.4643 C   0  0  0  0  0  0
  -22.7226  -10.2136   20.3052 C   0  0  0  0  0  0
  -21.6853   -6.0736   22.5275 C   0  0  0  0  0  0
  -21.4015   -6.5640   23.8209 C   0  0  0  0  0  0
  -21.3661   -5.6795   24.9172 C   0  0  0  0  0  0
  -21.6044   -4.3057   24.7224 C   0  0  0  0  0  0
  -21.8820   -3.8147   23.4346 C   0  0  0  0  0  0
  -21.9194   -4.6964   22.3401 C   0  0  0  0  0  0
  -22.7866  -13.5244   21.1840 C   0  0  0  0  0  0
  -22.1659   -4.2149   21.0978 F   0  0  0  0  0  0
  -21.5629   -3.4543   25.7738 F   0  0  0  0  0  0
  -30.0420  -13.2563   20.4544 N   0  0  0  0  0  0
  -26.3037  -12.9314   20.3387 N   0  0  0  0  0  0
  -25.9310  -11.6477   20.5763 N   0  0  0  0  0  0
  -22.0510  -12.8227   22.0394 N   0  0  0  0  0  0
  -25.4353  -15.1876   20.4091 N   0  0  0  0  0  0
  -31.8059  -14.6509   20.0924 O   0  0  0  0  0  0
  -21.6638   -6.8878   21.4236 O   0  0  0  0  0  0
  -22.3552  -14.5560   20.6709 O   0  0  0  0  0  0
  -24.6131  -31.8689   23.2108 C   0  0  0  0  0  0
  -25.9029  -32.4829   23.8408 C   0  0  1  0  0  0
  -27.2397  -27.4620   20.0917 C   0  0  0  0  0  0
  -25.5885  -33.8627   24.2338 N   0  0  0  0  0  0
  -23.4003  -30.4908   21.5510 C   0  0  2  0  0  0
  -24.8487  -28.9564   20.1168 C   0  0  0  0  0  0
  -22.7391  -29.4671   22.5012 C   0  0  0  0  0  0
  -18.0269  -28.1383   22.8507 C   0  0  0  0  0  0
  -24.1479  -36.7318   23.2639 C   0  0  0  0  0  0
  -25.9250  -30.8436   21.3580 C   0  0  0  0  0  0
  -26.0064  -29.4787   20.7080 C   0  0  0  0  0  0
  -27.2083  -28.7386   20.6922 C   0  0  0  0  0  0
  -26.0701  -26.9427   19.5018 C   0  0  0  0  0  0
  -24.8730  -27.6855   19.5132 C   0  0  0  0  0  0
  -23.6072  -29.8180   20.1669 C   0  0  0  0  0  0
  -25.4105  -36.3118   24.0334 C   0  0  1  0  0  0
  -20.5852  -28.3667   23.1324 C   0  0  2  0  0  0
  -20.6759  -26.9405   22.5421 C   0  0  0  0  0  0
  -19.5735  -26.6392   21.5220 C   0  0  0  0  0  0
  -18.1914  -26.7935   22.1630 C   0  0  0  0  0  0
  -19.1516  -28.8843   23.2914 C   0  0  0  0  0  0
  -18.9447  -30.1452   23.8925 C   0  0  0  0  0  0
  -17.6449  -30.6590   24.0577 C   0  0  0  0  0  0
  -25.9032  -34.9479   23.5136 C   0  0  0  0  0  0
  -16.5343  -29.9096   23.6328 C   0  0  0  0  0  0
  -16.7261  -28.6511   23.0357 C   0  0  0  0  0  0
  -26.4469  -31.6601   25.0726 C   0  0  0  0  0  0
  -25.3748  -31.3677   26.1474 C   0  0  0  0  0  0
  -27.0310  -30.3059   24.6079 C   0  0  0  0  0  0
  -27.6046  -32.4323   25.7482 C   0  0  0  0  0  0
  -27.5584  -37.1804   24.8464 C   0  0  0  0  0  0
  -21.4125  -29.3036   22.3739 N   0  0  0  0  0  0
  -26.4289  -37.3804   23.9419 N   0  0  0  0  0  0
  -24.6644  -31.0810   22.0994 N   0  0  0  0  0  0
  -23.4164  -28.8217   23.3056 O   0  0  0  0  0  0
  -28.3947  -26.7203   20.0870 O   0  0  0  0  0  0
  -26.5601  -34.8922   22.4702 O   0  0  0  0  0  0
  -23.5328  -32.1430   23.7514 O   0  0  0  0  0  0
  -28.9253  -18.8647   21.7750 C   0  0  0  0  0  0
  -28.9574  -17.4578   21.7611 C   0  0  0  0  0  0
  -31.1470  -18.8284   20.8516 C   0  0  0  0  0  0
  -30.0478  -19.5775   21.3128 C   0  0  0  0  0  0
  -30.0942  -16.7804   21.2751 C   0  0  0  0  0  0
  -28.8415  -23.1543   21.0910 C   0  0  0  0  0  0
  -28.5494  -24.2918   20.4243 C   0  0  0  0  0  0
  -29.0411  -21.7994   20.4503 C   0  0  0  0  0  0
  -29.8974  -21.7122   22.7381 C   0  0  0  0  0  0
  -30.0939  -21.1080   21.3312 C   0  0  1  0  0  0
  -29.1266  -23.0412   22.5763 C   0  0  2  0  0  0
  -28.0750  -23.1483   24.9212 C   0  0  0  0  0  0
  -28.4015  -25.6685   21.0561 C   0  0  0  0  0  0
  -27.8276  -23.0809   23.4088 C   0  0  0  0  0  0
  -31.1689  -17.4766   20.8339 N   0  0  0  0  0  0
  -30.0044  -15.3631   21.2920 N   0  0  0  0  0  0
  -31.4681  -12.3991   19.1066 H   0  0  0  0  0  0
  -30.3283  -11.2762   19.7879 H   0  0  0  0  0  0
  -29.7238  -11.7961   17.4123 H   0  0  0  0  0  0
  -29.6633  -13.5019   17.7741 H   0  0  0  0  0  0
  -27.8152  -11.3192   18.7975 H   0  0  0  0  0  0
  -27.3614  -12.6662   17.7867 H   0  0  0  0  0  0
  -27.7205  -14.2544   19.6049 H   0  0  0  0  0  0
  -28.6764  -11.8943   21.2977 H   0  0  0  0  0  0
  -28.4599  -13.5004   21.9000 H   0  0  0  0  0  0
  -25.2754   -9.5693   22.4758 H   0  0  0  0  0  0
  -24.0001   -7.4641   22.7471 H   0  0  0  0  0  0
  -21.0839   -8.8766   19.8942 H   0  0  0  0  0  0
  -22.3684  -10.9675   19.6162 H   0  0  0  0  0  0
  -21.2011   -7.6148   23.9714 H   0  0  0  0  0  0
  -21.1480   -6.0524   25.9073 H   0  0  0  0  0  0
  -22.0599   -2.7608   23.2848 H   0  0  0  0  0  0
  -22.4130  -11.9882   22.4765 H   0  0  0  0  0  0
  -21.1127  -13.1242   22.2612 H   0  0  0  0  0  0
  -24.6710  -15.8464   20.5131 H   0  0  0  0  0  0
  -26.2894  -15.6224   20.0827 H   0  0  0  0  0  0
  -26.7106  -32.5557   23.1184 H   0  0  0  0  0  0
  -25.0033  -33.9800   25.0481 H   0  0  0  0  0  0
  -22.6891  -31.3071   21.4086 H   0  0  0  0  0  0
  -23.3745  -35.9649   23.3299 H   0  0  0  0  0  0
  -24.3575  -36.8946   22.2056 H   0  0  0  0  0  0
  -23.7219  -37.6512   23.6663 H   0  0  0  0  0  0
  -26.0282  -31.6076   20.5861 H   0  0  0  0  0  0
  -26.8157  -30.9025   21.9719 H   0  0  0  0  0  0
  -28.1048  -29.1378   21.1454 H   0  0  0  0  0  0
  -26.0872  -25.9653   19.0402 H   0  0  0  0  0  0
  -23.9810  -27.2752   19.0601 H   0  0  0  0  0  0
  -23.7094  -30.5901   19.4032 H   0  0  0  0  0  0
  -22.7337  -29.2319   19.8755 H   0  0  0  0  0  0
  -25.1273  -36.1986   25.0825 H   0  0  0  0  0  0
  -20.9947  -28.3234   24.1441 H   0  0  0  0  0  0
  -20.5674  -26.2277   23.3609 H   0  0  0  0  0  0
  -21.6632  -26.7453   22.1209 H   0  0  0  0  0  0
  -19.6896  -25.6306   21.1241 H   0  0  0  0  0  0
  -19.6672  -27.3219   20.6763 H   0  0  0  0  0  0
  -17.4183  -26.6703   21.4028 H   0  0  0  0  0  0
  -18.0305  -26.0065   22.9011 H   0  0  0  0  0  0
  -19.7916  -30.7271   24.2306 H   0  0  0  0  0  0
  -17.4995  -31.6272   24.5177 H   0  0  0  0  0  0
  -15.5348  -30.3008   23.7632 H   0  0  0  0  0  0
  -15.8660  -28.0839   22.7059 H   0  0  0  0  0  0
  -24.5920  -30.7032   25.7800 H   0  0  0  0  0  0
  -24.8938  -32.2814   26.4974 H   0  0  0  0  0  0
  -25.8108  -30.8804   27.0204 H   0  0  0  0  0  0
  -26.2843  -29.6801   24.1174 H   0  0  0  0  0  0
  -27.4144  -29.7312   25.4522 H   0  0  0  0  0  0
  -27.8643  -30.4411   23.9179 H   0  0  0  0  0  0
  -27.2679  -33.3625   26.2073 H   0  0  0  0  0  0
  -28.3843  -32.6885   25.0295 H   0  0  0  0  0  0
  -28.0726  -31.8437   26.5383 H   0  0  0  0  0  0
  -28.2584  -38.0118   24.7543 H   0  0  0  0  0  0
  -28.1093  -36.2647   24.6250 H   0  0  0  0  0  0
  -27.2299  -37.1413   25.8865 H   0  0  0  0  0  0
  -20.9292  -29.8754   21.6953 H   0  0  0  0  0  0
  -26.0174  -38.2879   24.1441 H   0  0  0  0  0  0
  -28.0518  -19.3833   22.1442 H   0  0  0  0  0  0
  -28.0938  -16.9134   22.1192 H   0  0  0  0  0  0
  -32.0383  -19.3205   20.4907 H   0  0  0  0  0  0
  -28.3875  -24.2470   19.3568 H   0  0  0  0  0  0
  -29.3378  -21.8619   19.4024 H   0  0  0  0  0  0
  -28.0870  -21.2735   20.5004 H   0  0  0  0  0  0
  -30.8541  -21.8570   23.2419 H   0  0  0  0  0  0
  -29.3251  -21.0327   23.3695 H   0  0  0  0  0  0
  -31.0736  -21.4321   20.9742 H   0  0  0  0  0  0
  -29.7729  -23.8701   22.8676 H   0  0  0  0  0  0
  -27.1312  -23.2247   25.4619 H   0  0  0  0  0  0
  -28.6763  -24.0191   25.1844 H   0  0  0  0  0  0
  -28.5917  -22.2605   25.2867 H   0  0  0  0  0  0
  -29.2357  -25.8422   21.7357 H   0  0  0  0  0  0
  -27.4983  -25.6754   21.6690 H   0  0  0  0  0  0
  -27.2077  -22.2140   23.1739 H   0  0  0  0  0  0
  -27.2335  -23.9496   23.1273 H   0  0  0  0  0  0
  -29.1602  -14.9989   21.7007 H   0  0  0  0  0  0
  1 25  1  0  0  0
  1 30  2  0  0  0
  1 86  1  0  0  0
  2  3  1  0  0  0
  2 25  1  0  0  0
  2 87  1  0  0  0
  2 88  1  0  0  0
  3  4  1  0  0  0
  3 89  1  0  0  0
  3 90  1  0  0  0
  4  5  1  0  0  0
  4 91  1  0  0  0
  4 92  1  0  0  0
  5  6  1  0  0  0
  5 26  1  0  0  0
  5 93  1  0  0  0
  6 25  1  0  0  0
  6 94  1  0  0  0
  6 95  1  0  0  0
  7  8  2  0  0  0
  7 26  1  0  0  0
  7 29  1  0  0  0
  8  9  1  0  0  0
  8 22  1  0  0  0
  9 10  1  0  0  0
  9 27  2  0  0  0
 10 11  2  0  0  0
 10 15  1  0  0  0
 11 12  1  0  0  0
 11 96  1  0  0  0
 12 13  2  0  0  0
 12 97  1  0  0  0
 13 14  1  0  0  0
 13 31  1  0  0  0
 14 15  2  0  0  0
 14 98  1  0  0  0
 15 99  1  0  0  0
 16 17  2  0  0  0
 16 21  1  0  0  0
 16 31  1  0  0  0
 17 18  1  0  0  0
 17100  1  0  0  0
 18 19  2  0  0  0
 18101  1  0  0  0
 19 20  1  0  0  0
 19 24  1  0  0  0
 20 21  2  0  0  0
 20102  1  0  0  0
 21 23  1  0  0  0
 22 28  1  0  0  0
 22 32  2  0  0  0
 26 27  1  0  0  0
 28103  1  0  0  0
 28104  1  0  0  0
 29105  1  0  0  0
 29106  1  0  0  0
 33 34  1  0  0  0
 33 66  1  0  0  0
 33 70  2  0  0  0
 34 36  1  0  0  0
 34 59  1  0  0  0
 34107  1  0  0  0
 35 44  2  0  0  0
 35 45  1  0  0  0
 35 68  1  0  0  0
 36 56  1  0  0  0
 36108  1  0  0  0
 37 39  1  0  0  0
 37 47  1  0  0  0
 37 66  1  0  0  0
 37109  1  0  0  0
 38 43  2  0  0  0
 38 46  1  0  0  0
 38 47  1  0  0  0
 39 64  1  0  0  0
 39 67  2  0  0  0
 40 52  1  0  0  0
 40 53  2  0  0  0
 40 58  1  0  0  0
 41110  1  0  0  0
 41111  1  0  0  0
 41112  1  0  0  0
 41 48  1  0  0  0
 42 43  1  0  0  0
 42 66  1  0  0  0
 42113  1  0  0  0
 42114  1  0  0  0
 43 44  1  0  0  0
 44115  1  0  0  0
 45 46  2  0  0  0
 45116  1  0  0  0
 46117  1  0  0  0
 47118  1  0  0  0
 47119  1  0  0  0
 48 56  1  0  0  0
 48 65  1  0  0  0
 48120  1  0  0  0
 49 50  1  0  0  0
 49 53  1  0  0  0
 49 64  1  0  0  0
 49121  1  0  0  0
 50 51  1  0  0  0
 50122  1  0  0  0
 50123  1  0  0  0
 51 52  1  0  0  0
 51124  1  0  0  0
 51125  1  0  0  0
 52126  1  0  0  0
 52127  1  0  0  0
 53 54  1  0  0  0
 54 55  2  0  0  0
 54128  1  0  0  0
 55 57  1  0  0  0
 55129  1  0  0  0
 56 69  2  0  0  0
 57 58  2  0  0  0
 57130  1  0  0  0
 58131  1  0  0  0
 59 60  1  0  0  0
 59 61  1  0  0  0
 59 62  1  0  0  0
 60132  1  0  0  0
 60133  1  0  0  0
 60134  1  0  0  0
 61135  1  0  0  0
 61136  1  0  0  0
 61137  1  0  0  0
 62138  1  0  0  0
 62139  1  0  0  0
 62140  1  0  0  0
 63 65  1  0  0  0
 63141  1  0  0  0
 63142  1  0  0  0
 63143  1  0  0  0
 64144  1  0  0  0
 65145  1  0  0  0
 68 83  1  0  0  0
 71 72  2  0  0  0
 71 74  1  0  0  0
 71146  1  0  0  0
 72 75  1  0  0  0
 72147  1  0  0  0
 73 74  2  0  0  0
 73 85  1  0  0  0
 73148  1  0  0  0
 74 80  1  0  0  0
 75 85  2  0  0  0
 75 86  1  0  0  0
 76 77  2  0  0  0
 76 78  1  0  0  0
 76 81  1  0  0  0
 77 83  1  0  0  0
 77149  1  0  0  0
 78 80  1  0  0  0
 78150  1  0  0  0
 78151  1  0  0  0
 79 80  1  0  0  0
 79 81  1  0  0  0
 79152  1  0  0  0
 79153  1  0  0  0
 80154  1  0  0  0
 81 84  1  0  0  0
 81155  1  0  0  0
 82 84  1  0  0  0
 82156  1  0  0  0
 82157  1  0  0  0
 82158  1  0  0  0
 83159  1  0  0  0
 83160  1  0  0  0
 84161  1  0  0  0
 84162  1  0  0  0
 86163  1  0  0  0
M  ISO  4   1 100  68 101  83 101  86 100
M  END
> <chiral flag>
0

> <version>
0

> <s_m_source_file>
/data/baiqing/PycharmProjects/Reinvent-master-3.2/result/LINK_invent/BTK/process_docking_weight1_custom_sum_contain_oxygen_bond_distance_aromatic_linkinvent_7_9_3/rearranged_h_0136.sdf

> <i_m_source_file_index>
70

> <r_mmod_Potential_Energy-OPLS-2005>
-115.676895141602

> <r_mmod_Stretch_Energy-OPLS-2005>
33.6717643737793

> <r_mmod_Bend_Energy-OPLS-2005>
116.840408325195

> <r_mmod_Torsional_Energy-OPLS-2005>
276.300689697266

> <r_mmod_Improper_Torsional_Energy-OPLS-2005>
3.07621049880981

> <r_mmod_Van_der_Waal_Energy-OPLS-2005>
149.4375

> <r_mmod_Electrostatic_Energy-OPLS-2005>
-481.847229003906

> <r_mmod_Solvation_Energy-OPLS-2005>
-222.001037597656

> <b_mmod_Minimization_Converged-OPLS-2005>
0

> <r_mmod_RMS_Derivative-OPLS-2005>
0.883737862110138

$$$$
73
                    3D
 Structure written by MMmdl.
167176  0  0  1  0            999 V2000
  -30.7447  -14.3863   20.5856 C   0  0  0  0  0  0
  -30.4083  -12.2578   19.4160 C   0  0  0  0  0  0
  -29.4892  -12.5040   18.2032 C   0  0  0  0  0  0
  -28.0091  -12.3790   18.6129 C   0  0  0  0  0  0
  -27.6661  -13.2054   19.8817 C   0  0  2  0  0  0
  -28.7049  -12.9627   21.0019 C   0  0  0  0  0  0
  -25.2601  -13.8164   20.5666 C   0  0  0  0  0  0
  -24.1841  -13.0446   20.9159 C   0  0  0  0  0  0
  -24.6397  -11.6914   20.8731 C   0  0  0  0  0  0
  -23.9067  -10.4297   21.0400 C   0  0  0  0  0  0
  -24.3615   -9.4212   21.9181 C   0  0  0  0  0  0
  -23.6291   -8.2248   22.0756 C   0  0  0  0  0  0
  -22.4273   -8.0284   21.3544 C   0  0  0  0  0  0
  -21.9909   -9.0255   20.4644 C   0  0  0  0  0  0
  -22.7243  -10.2134   20.3050 C   0  0  0  0  0  0
  -21.6854   -6.0737   22.5281 C   0  0  0  0  0  0
  -21.4008   -6.5643   23.8211 C   0  0  0  0  0  0
  -21.3654   -5.6792   24.9170 C   0  0  0  0  0  0
  -21.6042   -4.3055   24.7220 C   0  0  0  0  0  0
  -21.8821   -3.8148   23.4342 C   0  0  0  0  0  0
  -21.9193   -4.6966   22.3402 C   0  0  0  0  0  0
  -22.7866  -13.5255   21.1834 C   0  0  0  0  0  0
  -22.1663   -4.2153   21.0978 F   0  0  0  0  0  0
  -21.5630   -3.4537   25.7733 F   0  0  0  0  0  0
  -30.0450  -13.2319   20.4544 N   0  0  0  0  0  0
  -26.3047  -12.9334   20.3397 N   0  0  0  0  0  0
  -25.9324  -11.6493   20.5773 N   0  0  0  0  0  0
  -22.0503  -12.8241   22.0387 N   0  0  0  0  0  0
  -25.4346  -15.1873   20.4065 N   0  0  0  0  0  0
  -31.8519  -14.5656   20.0706 O   0  0  0  0  0  0
  -21.6639   -6.8875   21.4242 O   0  0  0  0  0  0
  -22.3558  -14.5570   20.6701 O   0  0  0  0  0  0
  -24.6095  -31.8709   23.2140 C   0  0  0  0  0  0
  -25.9014  -32.4835   23.8416 C   0  0  1  0  0  0
  -27.2416  -27.4809   20.0721 C   0  0  0  0  0  0
  -25.5894  -33.8634   24.2359 N   0  0  0  0  0  0
  -23.3948  -30.4933   21.5539 C   0  0  2  0  0  0
  -24.8402  -28.9600   20.1178 C   0  0  0  0  0  0
  -22.7375  -29.4670   22.5033 C   0  0  0  0  0  0
  -18.0255  -28.1370   22.8498 C   0  0  0  0  0  0
  -24.1483  -36.7322   23.2638 C   0  0  0  0  0  0
  -25.9180  -30.8443   21.3630 C   0  0  0  0  0  0
  -25.9942  -29.4790   20.7163 C   0  0  0  0  0  0
  -27.1917  -28.7379   20.7063 C   0  0  0  0  0  0
  -26.0656  -26.9523   19.4930 C   0  0  0  0  0  0
  -24.8664  -27.6906   19.5122 C   0  0  0  0  0  0
  -23.6000  -29.8223   20.1687 C   0  0  0  0  0  0
  -25.4103  -36.3125   24.0343 C   0  0  1  0  0  0
  -20.5841  -28.3645   23.1340 C   0  0  2  0  0  0
  -20.6745  -26.9385   22.5431 C   0  0  0  0  0  0
  -19.5727  -26.6378   21.5219 C   0  0  0  0  0  0
  -18.1899  -26.7926   22.1615 C   0  0  0  0  0  0
  -19.1504  -28.8825   23.2918 C   0  0  0  0  0  0
  -18.9437  -30.1435   23.8924 C   0  0  0  0  0  0
  -17.6439  -30.6580   24.0567 C   0  0  0  0  0  0
  -25.9028  -34.9483   23.5149 C   0  0  0  0  0  0
  -16.5328  -29.9082   23.6331 C   0  0  0  0  0  0
  -16.7244  -28.6493   23.0354 C   0  0  0  0  0  0
  -26.4462  -31.6596   25.0725 C   0  0  0  0  0  0
  -25.3748  -31.3674   26.1484 C   0  0  0  0  0  0
  -27.0276  -30.3037   24.6075 C   0  0  0  0  0  0
  -27.6050  -32.4295   25.7491 C   0  0  0  0  0  0
  -27.5589  -37.1810   24.8459 C   0  0  0  0  0  0
  -21.4110  -29.3021   22.3762 N   0  0  0  0  0  0
  -26.4295  -37.3807   23.9415 N   0  0  0  0  0  0
  -24.6587  -31.0835   22.1028 N   0  0  0  0  0  0
  -23.4166  -28.8220   23.3068 O   0  0  0  0  0  0
  -28.4415  -26.8142   20.0650 O   0  0  0  0  0  0
  -26.5593  -34.8924   22.4710 O   0  0  0  0  0  0
  -23.5304  -32.1459   23.7561 O   0  0  0  0  0  0
  -30.4241  -22.1498   20.5863 C   0  0  0  0  0  0
  -30.5157  -19.1545   21.7854 C   0  0  0  0  0  0
  -30.3195  -18.6971   19.2723 C   0  0  0  0  0  0
  -30.0159  -17.7258   22.0670 C   0  0  0  0  0  0
  -29.8309  -17.2844   19.5974 C   0  0  0  0  0  0
  -29.0233  -24.6234   19.2914 C   0  0  0  0  0  0
  -30.2058  -26.5329   18.5030 C   0  0  0  0  0  0
  -30.0319  -19.6903   20.4154 C   0  0  2  0  0  0
  -30.4441  -16.7979   20.9229 C   0  0  2  0  0  0
  -28.8026  -26.0762   18.8993 C   0  0  2  0  0  0
  -30.3942  -24.6573   19.9910 C   0  0  1  0  0  0
  -31.1798  -23.3274   19.9625 C   0  0  0  0  0  0
  -30.6955  -20.9431   20.0800 N   0  0  0  0  0  0
  -30.0835  -15.4017   21.1569 N   0  0  0  0  0  0
  -31.1406  -25.7663   19.3545 N   0  3  0  0  0  0
  -29.6066  -22.3256   21.4918 O   0  0  0  0  0  0
  -31.4566  -12.3256   19.1193 H   0  0  0  0  0  0
  -30.2754  -11.2435   19.7961 H   0  0  0  0  0  0
  -29.7165  -11.7940   17.4067 H   0  0  0  0  0  0
  -29.6750  -13.4971   17.7906 H   0  0  0  0  0  0
  -27.8026  -11.3231   18.7911 H   0  0  0  0  0  0
  -27.3639  -12.6775   17.7856 H   0  0  0  0  0  0
  -27.7198  -14.2576   19.6001 H   0  0  0  0  0  0
  -28.6570  -11.9284   21.3445 H   0  0  0  0  0  0
  -28.4785  -13.5679   21.8807 H   0  0  0  0  0  0
  -25.2758   -9.5689   22.4758 H   0  0  0  0  0  0
  -23.9997   -7.4640   22.7479 H   0  0  0  0  0  0
  -21.0838   -8.8772   19.8948 H   0  0  0  0  0  0
  -22.3703  -10.9669   19.6151 H   0  0  0  0  0  0
  -21.1993   -7.6150   23.9717 H   0  0  0  0  0  0
  -21.1472   -6.0518   25.9071 H   0  0  0  0  0  0
  -22.0603   -2.7611   23.2840 H   0  0  0  0  0  0
  -22.4102  -11.9881   22.4742 H   0  0  0  0  0  0
  -21.1133  -13.1285   22.2617 H   0  0  0  0  0  0
  -24.6709  -15.8464   20.5076 H   0  0  0  0  0  0
  -26.2938  -15.6238   20.0961 H   0  0  0  0  0  0
  -26.7086  -32.5554   23.1188 H   0  0  0  0  0  0
  -25.0050  -33.9808   25.0504 H   0  0  0  0  0  0
  -22.6821  -31.3085   21.4157 H   0  0  0  0  0  0
  -23.3752  -35.9649   23.3290 H   0  0  0  0  0  0
  -24.3588  -36.8949   22.2055 H   0  0  0  0  0  0
  -23.7214  -37.6512   23.6659 H   0  0  0  0  0  0
  -26.0239  -31.6084   20.5916 H   0  0  0  0  0  0
  -26.8082  -30.9012   21.9775 H   0  0  0  0  0  0
  -28.0848  -29.1381   21.1654 H   0  0  0  0  0  0
  -26.0609  -25.9750   19.0320 H   0  0  0  0  0  0
  -23.9740  -27.2801   19.0599 H   0  0  0  0  0  0
  -23.7032  -30.5951   19.4057 H   0  0  0  0  0  0
  -22.7256  -29.2379   19.8773 H   0  0  0  0  0  0
  -25.1280  -36.1999   25.0838 H   0  0  0  0  0  0
  -20.9921  -28.3195   24.1467 H   0  0  0  0  0  0
  -20.5635  -26.2255   23.3619 H   0  0  0  0  0  0
  -21.6614  -26.7437   22.1222 H   0  0  0  0  0  0
  -19.6881  -25.6292   21.1240 H   0  0  0  0  0  0
  -19.6679  -27.3197   20.6761 H   0  0  0  0  0  0
  -17.4188  -26.6712   21.3994 H   0  0  0  0  0  0
  -18.0264  -26.0045   22.8980 H   0  0  0  0  0  0
  -19.7912  -30.7244   24.2303 H   0  0  0  0  0  0
  -17.4991  -31.6263   24.5157 H   0  0  0  0  0  0
  -15.5328  -30.2988   23.7650 H   0  0  0  0  0  0
  -15.8642  -28.0821   22.7071 H   0  0  0  0  0  0
  -24.5931  -30.7011   25.7816 H   0  0  0  0  0  0
  -24.8932  -32.2813   26.4966 H   0  0  0  0  0  0
  -25.8116  -30.8820   27.0219 H   0  0  0  0  0  0
  -26.2796  -29.6806   24.1155 H   0  0  0  0  0  0
  -27.4068  -29.7265   25.4517 H   0  0  0  0  0  0
  -27.8627  -30.4352   23.9191 H   0  0  0  0  0  0
  -27.2682  -33.3579   26.2115 H   0  0  0  0  0  0
  -28.3852  -32.6872   25.0317 H   0  0  0  0  0  0
  -28.0726  -31.8382   26.5377 H   0  0  0  0  0  0
  -28.2595  -38.0125   24.7540 H   0  0  0  0  0  0
  -28.1106  -36.2658   24.6245 H   0  0  0  0  0  0
  -27.2316  -37.1396   25.8865 H   0  0  0  0  0  0
  -20.9266  -29.8748   21.6994 H   0  0  0  0  0  0
  -26.0190  -38.2885   24.1433 H   0  0  0  0  0  0
  -31.6061  -19.1593   21.8162 H   0  0  0  0  0  0
  -30.1866  -19.8174   22.5861 H   0  0  0  0  0  0
  -29.8515  -19.0400   18.3483 H   0  0  0  0  0  0
  -31.3920  -18.6542   19.0738 H   0  0  0  0  0  0
  -28.9304  -17.7241   22.1752 H   0  0  0  0  0  0
  -30.4276  -17.3758   23.0147 H   0  0  0  0  0  0
  -30.1062  -16.6191   18.7775 H   0  0  0  0  0  0
  -28.7414  -17.2715   19.6538 H   0  0  0  0  0  0
  -29.0661  -24.0083   18.3924 H   0  0  0  0  0  0
  -28.2271  -24.2339   19.9259 H   0  0  0  0  0  0
  -30.3411  -27.6102   18.6035 H   0  0  0  0  0  0
  -30.3937  -26.2709   17.4615 H   0  0  0  0  0  0
  -28.9532  -19.8560   20.4629 H   0  0  0  0  0  0
  -31.5322  -16.8733   20.8509 H   0  0  0  0  0  0
  -28.1078  -26.1909   18.0664 H   0  0  0  0  0  0
  -30.2388  -24.9524   21.0306 H   0  0  0  0  0  0
  -31.4366  -23.0783   18.9319 H   0  0  0  0  0  0
  -32.1223  -23.4402   20.4985 H   0  0  0  0  0  0
  -31.3917  -20.8984   19.3475 H   0  0  0  0  0  0
  -29.1825  -15.2005   21.5642 H   0  0  0  0  0  0
  -31.5154  -26.3626   20.0769 H   0  0  0  0  0  0
  -31.9106  -25.4252   18.8007 H   0  0  0  0  0  0
  1 25  1  0  0  0
  1 30  2  0  0  0
  1 84  1  0  0  0
  2  3  1  0  0  0
  2 25  1  0  0  0
  2 87  1  0  0  0
  2 88  1  0  0  0
  3  4  1  0  0  0
  3 89  1  0  0  0
  3 90  1  0  0  0
  4  5  1  0  0  0
  4 91  1  0  0  0
  4 92  1  0  0  0
  5  6  1  0  0  0
  5 26  1  0  0  0
  5 93  1  0  0  0
  6 25  1  0  0  0
  6 94  1  0  0  0
  6 95  1  0  0  0
  7  8  2  0  0  0
  7 26  1  0  0  0
  7 29  1  0  0  0
  8  9  1  0  0  0
  8 22  1  0  0  0
  9 10  1  0  0  0
  9 27  2  0  0  0
 10 11  2  0  0  0
 10 15  1  0  0  0
 11 12  1  0  0  0
 11 96  1  0  0  0
 12 13  2  0  0  0
 12 97  1  0  0  0
 13 14  1  0  0  0
 13 31  1  0  0  0
 14 15  2  0  0  0
 14 98  1  0  0  0
 15 99  1  0  0  0
 16 17  2  0  0  0
 16 21  1  0  0  0
 16 31  1  0  0  0
 17 18  1  0  0  0
 17100  1  0  0  0
 18 19  2  0  0  0
 18101  1  0  0  0
 19 20  1  0  0  0
 19 24  1  0  0  0
 20 21  2  0  0  0
 20102  1  0  0  0
 21 23  1  0  0  0
 22 28  1  0  0  0
 22 32  2  0  0  0
 26 27  1  0  0  0
 28103  1  0  0  0
 28104  1  0  0  0
 29105  1  0  0  0
 29106  1  0  0  0
 33 34  1  0  0  0
 33 66  1  0  0  0
 33 70  2  0  0  0
 34 36  1  0  0  0
 34 59  1  0  0  0
 34107  1  0  0  0
 35 44  2  0  0  0
 35 45  1  0  0  0
 35 68  1  0  0  0
 36 56  1  0  0  0
 36108  1  0  0  0
 37 39  1  0  0  0
 37 47  1  0  0  0
 37 66  1  0  0  0
 37109  1  0  0  0
 38 43  2  0  0  0
 38 46  1  0  0  0
 38 47  1  0  0  0
 39 64  1  0  0  0
 39 67  2  0  0  0
 40 52  1  0  0  0
 40 53  2  0  0  0
 40 58  1  0  0  0
 41110  1  0  0  0
 41111  1  0  0  0
 41112  1  0  0  0
 41 48  1  0  0  0
 42 43  1  0  0  0
 42 66  1  0  0  0
 42113  1  0  0  0
 42114  1  0  0  0
 43 44  1  0  0  0
 44115  1  0  0  0
 45 46  2  0  0  0
 45116  1  0  0  0
 46117  1  0  0  0
 47118  1  0  0  0
 47119  1  0  0  0
 48 56  1  0  0  0
 48 65  1  0  0  0
 48120  1  0  0  0
 49 50  1  0  0  0
 49 53  1  0  0  0
 49 64  1  0  0  0
 49121  1  0  0  0
 50 51  1  0  0  0
 50122  1  0  0  0
 50123  1  0  0  0
 51 52  1  0  0  0
 51124  1  0  0  0
 51125  1  0  0  0
 52126  1  0  0  0
 52127  1  0  0  0
 53 54  1  0  0  0
 54 55  2  0  0  0
 54128  1  0  0  0
 55 57  1  0  0  0
 55129  1  0  0  0
 56 69  2  0  0  0
 57 58  2  0  0  0
 57130  1  0  0  0
 58131  1  0  0  0
 59 60  1  0  0  0
 59 61  1  0  0  0
 59 62  1  0  0  0
 60132  1  0  0  0
 60133  1  0  0  0
 60134  1  0  0  0
 61135  1  0  0  0
 61136  1  0  0  0
 61137  1  0  0  0
 62138  1  0  0  0
 62139  1  0  0  0
 62140  1  0  0  0
 63 65  1  0  0  0
 63141  1  0  0  0
 63142  1  0  0  0
 63143  1  0  0  0
 64144  1  0  0  0
 65145  1  0  0  0
 68 80  1  0  0  0
 71 82  1  0  0  0
 71 83  1  0  0  0
 71 86  2  0  0  0
 72 74  1  0  0  0
 72 78  1  0  0  0
 72146  1  0  0  0
 72147  1  0  0  0
 73 75  1  0  0  0
 73 78  1  0  0  0
 73148  1  0  0  0
 73149  1  0  0  0
 74 79  1  0  0  0
 74150  1  0  0  0
 74151  1  0  0  0
 75 79  1  0  0  0
 75152  1  0  0  0
 75153  1  0  0  0
 76 80  1  0  0  0
 76 81  1  0  0  0
 76154  1  0  0  0
 76155  1  0  0  0
 77 80  1  0  0  0
 77 85  1  0  0  0
 77156  1  0  0  0
 77157  1  0  0  0
 78 83  1  0  0  0
 78158  1  0  0  0
 79 84  1  0  0  0
 79159  1  0  0  0
 80160  1  0  0  0
 81 82  1  0  0  0
 81 85  1  0  0  0
 81161  1  0  0  0
 82162  1  0  0  0
 82163  1  0  0  0
 83164  1  0  0  0
 84165  1  0  0  0
 85166  1  0  0  0
 85167  1  0  0  0
M  CHG  1  85   1
M  ISO  4   1 100  68 101  80 101  84 100
M  END
> <chiral flag>
0

> <version>
0

> <s_m_source_file>
/data/baiqing/PycharmProjects/Reinvent-master-3.2/result/LINK_invent/BTK/process_docking_weight1_custom_sum_contain_oxygen_bond_distance_aromatic_linkinvent_7_9_3/rearranged_h_0136.sdf

> <i_m_source_file_index>
71

> <r_mmod_Potential_Energy-OPLS-2005>
-244.086090087891

> <r_mmod_Stretch_Energy-OPLS-2005>
30.5372295379639

> <r_mmod_Bend_Energy-OPLS-2005>
119.244750976562

> <r_mmod_Torsional_Energy-OPLS-2005>
276.970672607422

> <r_mmod_Improper_Torsional_Energy-OPLS-2005>
4.63805341720581

> <r_mmod_Van_der_Waal_Energy-OPLS-2005>
139.495483398438

> <r_mmod_Electrostatic_Energy-OPLS-2005>
-358.845825195312

> <r_mmod_Solvation_Energy-OPLS-2005>
-465.647003173828

> <b_mmod_Minimization_Converged-OPLS-2005>
0

> <r_mmod_RMS_Derivative-OPLS-2005>
1.12909245491028

$$$$
74
                    3D
 Structure written by MMmdl.
167176  0  0  1  0            999 V2000
  -30.7537  -14.3653   20.6225 C   0  0  0  0  0  0
  -30.4123  -12.2507   19.4180 C   0  0  0  0  0  0
  -29.5010  -12.5214   18.2034 C   0  0  0  0  0  0
  -28.0160  -12.3824   18.5987 C   0  0  0  0  0  0
  -27.6626  -13.2000   19.8695 C   0  0  2  0  0  0
  -28.6928  -12.9424   20.9882 C   0  0  0  0  0  0
  -25.2602  -13.8176   20.5679 C   0  0  0  0  0  0
  -24.1857  -13.0432   20.9195 C   0  0  0  0  0  0
  -24.6403  -11.6904   20.8690 C   0  0  0  0  0  0
  -23.9082  -10.4279   21.0365 C   0  0  0  0  0  0
  -24.3680   -9.4152   21.9076 C   0  0  0  0  0  0
  -23.6335   -8.2211   22.0674 C   0  0  0  0  0  0
  -22.4292   -8.0266   21.3498 C   0  0  0  0  0  0
  -21.9953   -9.0229   20.4562 C   0  0  0  0  0  0
  -22.7292  -10.2108   20.2969 C   0  0  0  0  0  0
  -21.6844   -6.0753   22.5255 C   0  0  0  0  0  0
  -21.4032   -6.5652   23.8186 C   0  0  0  0  0  0
  -21.3647   -5.6788   24.9125 C   0  0  0  0  0  0
  -21.6042   -4.3056   24.7184 C   0  0  0  0  0  0
  -21.8851   -3.8167   23.4303 C   0  0  0  0  0  0
  -21.9213   -4.6988   22.3373 C   0  0  0  0  0  0
  -22.7888  -13.5211   21.1835 C   0  0  0  0  0  0
  -22.1668   -4.2186   21.0955 F   0  0  0  0  0  0
  -21.5620   -3.4542   25.7697 F   0  0  0  0  0  0
  -30.0493  -13.2133   20.4681 N   0  0  0  0  0  0
  -26.3013  -12.9317   20.3304 N   0  0  0  0  0  0
  -25.9309  -11.6489   20.5702 N   0  0  0  0  0  0
  -22.0508  -12.8137   22.0334 N   0  0  0  0  0  0
  -25.4300  -15.1897   20.4095 N   0  0  0  0  0  0
  -31.8323  -14.5926   20.0686 O   0  0  0  0  0  0
  -21.6589   -6.8917   21.4231 O   0  0  0  0  0  0
  -22.3548  -14.5522   20.6703 O   0  0  0  0  0  0
  -24.6149  -31.8713   23.2180 C   0  0  0  0  0  0
  -25.9058  -32.4836   23.8441 C   0  0  1  0  0  0
  -27.2034  -27.4301   20.0661 C   0  0  0  0  0  0
  -25.5924  -33.8646   24.2362 N   0  0  0  0  0  0
  -23.3983  -30.5047   21.5606 C   0  0  2  0  0  0
  -24.8328  -28.9813   20.1151 C   0  0  0  0  0  0
  -22.7382  -29.4718   22.5015 C   0  0  0  0  0  0
  -18.0251  -28.1390   22.8452 C   0  0  0  0  0  0
  -24.1497  -36.7331   23.2632 C   0  0  0  0  0  0
  -25.9337  -30.8266   21.3799 C   0  0  0  0  0  0
  -25.9991  -29.4665   20.7188 C   0  0  0  0  0  0
  -27.1827  -28.6912   20.7057 C   0  0  0  0  0  0
  -26.0225  -26.9989   19.4058 C   0  0  0  0  0  0
  -24.8393  -27.7459   19.4597 C   0  0  0  0  0  0
  -23.6027  -29.8532   20.1707 C   0  0  0  0  0  0
  -25.4117  -36.3136   24.0336 C   0  0  1  0  0  0
  -20.5830  -28.3691   23.1283 C   0  0  2  0  0  0
  -20.6759  -26.9436   22.5397 C   0  0  0  0  0  0
  -19.5767  -26.6403   21.5178 C   0  0  0  0  0  0
  -18.1930  -26.7929   22.1585 C   0  0  0  0  0  0
  -19.1490  -28.8852   23.2865 C   0  0  0  0  0  0
  -18.9442  -30.1438   23.8908 C   0  0  0  0  0  0
  -17.6449  -30.6595   24.0561 C   0  0  0  0  0  0
  -25.9040  -34.9488   23.5153 C   0  0  0  0  0  0
  -16.5339  -29.9107   23.6315 C   0  0  0  0  0  0
  -16.7239  -28.6524   23.0333 C   0  0  0  0  0  0
  -26.4496  -31.6589   25.0748 C   0  0  0  0  0  0
  -25.3753  -31.3702   26.1482 C   0  0  0  0  0  0
  -27.0315  -30.3019   24.6134 C   0  0  0  0  0  0
  -27.6092  -32.4291   25.7479 C   0  0  0  0  0  0
  -27.5588  -37.1828   24.8464 C   0  0  0  0  0  0
  -21.4110  -29.3070   22.3711 N   0  0  0  0  0  0
  -26.4308  -37.3809   23.9393 N   0  0  0  0  0  0
  -24.6676  -31.0791   22.1111 N   0  0  0  0  0  0
  -23.4140  -28.8223   23.3038 O   0  0  0  0  0  0
  -28.3630  -26.6725   20.1046 O   0  0  0  0  0  0
  -26.5600  -34.8928   22.4709 O   0  0  0  0  0  0
  -23.5345  -32.1499   23.7555 O   0  0  0  0  0  0
  -29.8067  -14.8479   24.9619 C   0  0  0  0  0  0
  -29.4816  -16.1671   25.3281 C   0  0  0  0  0  0
  -30.0660  -14.5391   23.6143 C   0  0  0  0  0  0
  -29.4540  -17.1930   24.3623 C   0  0  0  0  0  0
  -30.0034  -15.5631   22.6431 C   0  0  0  0  0  0
  -29.7635  -16.9022   23.0106 C   0  0  0  0  0  0
  -27.7379  -20.8908   21.9998 C   0  0  0  0  0  0
  -29.9094  -21.2633   20.6773 C   0  0  0  0  0  0
  -28.1246  -19.4311   21.7098 C   0  0  0  0  0  0
  -30.5601  -20.0481   21.3686 C   0  0  0  0  0  0
  -28.8191  -21.9198   21.5552 C   0  0  1  0  0  0
  -29.5622  -19.1916   22.1756 C   0  0  2  0  0  0
  -28.9229  -24.3361   20.8078 C   0  0  0  0  0  0
  -28.2648  -25.2696   19.7784 C   0  0  0  0  0  0
  -30.1280  -15.3551   21.2507 N   0  0  0  0  0  0
  -28.1805  -23.0455   20.8475 N   0  3  0  0  0  0
  -29.8745  -17.8227   21.9812 O   0  0  0  0  0  0
  -31.4628  -12.3181   19.1265 H   0  0  0  0  0  0
  -30.2657  -11.2347   19.7847 H   0  0  0  0  0  0
  -29.7322  -11.8367   17.3855 H   0  0  0  0  0  0
  -29.6963  -13.5265   17.8236 H   0  0  0  0  0  0
  -27.8217  -11.3238   18.7740 H   0  0  0  0  0  0
  -27.3735  -12.6844   17.7688 H   0  0  0  0  0  0
  -27.7163  -14.2527   19.5959 H   0  0  0  0  0  0
  -28.6294  -11.9114   21.3334 H   0  0  0  0  0  0
  -28.4243  -13.5386   21.8552 H   0  0  0  0  0  0
  -25.2890   -9.5574   22.4521 H   0  0  0  0  0  0
  -24.0052   -7.4562   22.7352 H   0  0  0  0  0  0
  -21.0922   -8.8761   19.8801 H   0  0  0  0  0  0
  -22.3818  -10.9613   19.6000 H   0  0  0  0  0  0
  -21.2058   -7.6162   23.9691 H   0  0  0  0  0  0
  -21.1427   -6.0495   25.9025 H   0  0  0  0  0  0
  -22.0678   -2.7644   23.2791 H   0  0  0  0  0  0
  -22.4144  -11.9828   22.4756 H   0  0  0  0  0  0
  -21.0976  -13.0932   22.2221 H   0  0  0  0  0  0
  -24.6718  -15.8532   20.5307 H   0  0  0  0  0  0
  -26.2914  -15.6318   20.1189 H   0  0  0  0  0  0
  -26.7099  -32.5531   23.1169 H   0  0  0  0  0  0
  -25.0077  -33.9816   25.0509 H   0  0  0  0  0  0
  -22.6899  -31.3248   21.4322 H   0  0  0  0  0  0
  -23.3751  -35.9675   23.3331 H   0  0  0  0  0  0
  -24.3588  -36.8902   22.2037 H   0  0  0  0  0  0
  -23.7250  -37.6555   23.6613 H   0  0  0  0  0  0
  -26.0550  -31.5953   20.6154 H   0  0  0  0  0  0
  -26.8206  -30.8680   22.0009 H   0  0  0  0  0  0
  -28.0796  -29.0572   21.1859 H   0  0  0  0  0  0
  -25.9641  -26.1072   18.8014 H   0  0  0  0  0  0
  -23.9491  -27.3818   18.9627 H   0  0  0  0  0  0
  -23.7254  -30.6394   19.4250 H   0  0  0  0  0  0
  -22.7209  -29.2865   19.8636 H   0  0  0  0  0  0
  -25.1288  -36.2037   25.0828 H   0  0  0  0  0  0
  -20.9890  -28.3287   24.1411 H   0  0  0  0  0  0
  -20.5646  -26.2331   23.3590 H   0  0  0  0  0  0
  -21.6642  -26.7511   22.1211 H   0  0  0  0  0  0
  -19.6961  -25.6313   21.1221 H   0  0  0  0  0  0
  -19.6701  -27.3196   20.6692 H   0  0  0  0  0  0
  -17.4190  -26.6605   21.4000 H   0  0  0  0  0  0
  -18.0390  -26.0075   22.9003 H   0  0  0  0  0  0
  -19.7930  -30.7218   24.2314 H   0  0  0  0  0  0
  -17.5033  -31.6274   24.5171 H   0  0  0  0  0  0
  -15.5349  -30.3042   23.7640 H   0  0  0  0  0  0
  -15.8628  -28.0862   22.7063 H   0  0  0  0  0  0
  -24.5933  -30.7043   25.7805 H   0  0  0  0  0  0
  -24.8939  -32.2860   26.4924 H   0  0  0  0  0  0
  -25.8088  -30.8867   27.0239 H   0  0  0  0  0  0
  -26.2870  -29.6778   24.1168 H   0  0  0  0  0  0
  -27.4045  -29.7252   25.4605 H   0  0  0  0  0  0
  -27.8738  -30.4324   23.9333 H   0  0  0  0  0  0
  -27.2746  -33.3575   26.2123 H   0  0  0  0  0  0
  -28.3858  -32.6861   25.0261 H   0  0  0  0  0  0
  -28.0817  -31.8368   26.5324 H   0  0  0  0  0  0
  -28.2639  -38.0093   24.7480 H   0  0  0  0  0  0
  -28.1051  -36.2622   24.6344 H   0  0  0  0  0  0
  -27.2298  -37.1545   25.8867 H   0  0  0  0  0  0
  -20.9281  -29.8805   21.6931 H   0  0  0  0  0  0
  -26.0218  -38.2903   24.1364 H   0  0  0  0  0  0
  -29.8378  -14.0719   25.7144 H   0  0  0  0  0  0
  -29.2681  -16.3970   26.3652 H   0  0  0  0  0  0
  -30.2817  -13.5158   23.3370 H   0  0  0  0  0  0
  -29.2042  -18.1826   24.7069 H   0  0  0  0  0  0
  -27.5872  -20.9933   23.0753 H   0  0  0  0  0  0
  -26.7675  -21.0927   21.5479 H   0  0  0  0  0  0
  -29.4542  -20.9400   19.7399 H   0  0  0  0  0  0
  -30.6832  -21.9751   20.3930 H   0  0  0  0  0  0
  -28.0358  -19.2135   20.6423 H   0  0  0  0  0  0
  -27.4390  -18.7464   22.2090 H   0  0  0  0  0  0
  -31.3438  -20.3876   22.0476 H   0  0  0  0  0  0
  -31.0642  -19.4448   20.6121 H   0  0  0  0  0  0
  -29.2925  -22.3093   22.4593 H   0  0  0  0  0  0
  -29.6499  -19.5102   23.2120 H   0  0  0  0  0  0
  -28.9057  -24.7794   21.8031 H   0  0  0  0  0  0
  -29.9685  -24.1890   20.5444 H   0  0  0  0  0  0
  -27.2414  -24.9132   19.7248 H   0  0  0  0  0  0
  -28.6890  -25.0924   18.7893 H   0  0  0  0  0  0
  -30.2569  -16.2433   20.7902 H   0  0  0  0  0  0
  -27.2931  -23.2153   21.2968 H   0  0  0  0  0  0
  -27.9847  -22.7411   19.9047 H   0  0  0  0  0  0
  1 25  1  0  0  0
  1 30  2  0  0  0
  1 85  1  0  0  0
  2  3  1  0  0  0
  2 25  1  0  0  0
  2 88  1  0  0  0
  2 89  1  0  0  0
  3  4  1  0  0  0
  3 90  1  0  0  0
  3 91  1  0  0  0
  4  5  1  0  0  0
  4 92  1  0  0  0
  4 93  1  0  0  0
  5  6  1  0  0  0
  5 26  1  0  0  0
  5 94  1  0  0  0
  6 25  1  0  0  0
  6 95  1  0  0  0
  6 96  1  0  0  0
  7  8  2  0  0  0
  7 26  1  0  0  0
  7 29  1  0  0  0
  8  9  1  0  0  0
  8 22  1  0  0  0
  9 10  1  0  0  0
  9 27  2  0  0  0
 10 11  2  0  0  0
 10 15  1  0  0  0
 11 12  1  0  0  0
 11 97  1  0  0  0
 12 13  2  0  0  0
 12 98  1  0  0  0
 13 14  1  0  0  0
 13 31  1  0  0  0
 14 15  2  0  0  0
 14 99  1  0  0  0
 15100  1  0  0  0
 16 17  2  0  0  0
 16 21  1  0  0  0
 16 31  1  0  0  0
 17 18  1  0  0  0
 17101  1  0  0  0
 18 19  2  0  0  0
 18102  1  0  0  0
 19 20  1  0  0  0
 19 24  1  0  0  0
 20 21  2  0  0  0
 20103  1  0  0  0
 21 23  1  0  0  0
 22 28  1  0  0  0
 22 32  2  0  0  0
 26 27  1  0  0  0
 28104  1  0  0  0
 28105  1  0  0  0
 29106  1  0  0  0
 29107  1  0  0  0
 33 34  1  0  0  0
 33 66  1  0  0  0
 33 70  2  0  0  0
 34 36  1  0  0  0
 34 59  1  0  0  0
 34108  1  0  0  0
 35 44  2  0  0  0
 35 45  1  0  0  0
 35 68  1  0  0  0
 36 56  1  0  0  0
 36109  1  0  0  0
 37 39  1  0  0  0
 37 47  1  0  0  0
 37 66  1  0  0  0
 37110  1  0  0  0
 38 43  2  0  0  0
 38 46  1  0  0  0
 38 47  1  0  0  0
 39 64  1  0  0  0
 39 67  2  0  0  0
 40 52  1  0  0  0
 40 53  2  0  0  0
 40 58  1  0  0  0
 41111  1  0  0  0
 41112  1  0  0  0
 41113  1  0  0  0
 41 48  1  0  0  0
 42 43  1  0  0  0
 42 66  1  0  0  0
 42114  1  0  0  0
 42115  1  0  0  0
 43 44  1  0  0  0
 44116  1  0  0  0
 45 46  2  0  0  0
 45117  1  0  0  0
 46118  1  0  0  0
 47119  1  0  0  0
 47120  1  0  0  0
 48 56  1  0  0  0
 48 65  1  0  0  0
 48121  1  0  0  0
 49 50  1  0  0  0
 49 53  1  0  0  0
 49 64  1  0  0  0
 49122  1  0  0  0
 50 51  1  0  0  0
 50123  1  0  0  0
 50124  1  0  0  0
 51 52  1  0  0  0
 51125  1  0  0  0
 51126  1  0  0  0
 52127  1  0  0  0
 52128  1  0  0  0
 53 54  1  0  0  0
 54 55  2  0  0  0
 54129  1  0  0  0
 55 57  1  0  0  0
 55130  1  0  0  0
 56 69  2  0  0  0
 57 58  2  0  0  0
 57131  1  0  0  0
 58132  1  0  0  0
 59 60  1  0  0  0
 59 61  1  0  0  0
 59 62  1  0  0  0
 60133  1  0  0  0
 60134  1  0  0  0
 60135  1  0  0  0
 61136  1  0  0  0
 61137  1  0  0  0
 61138  1  0  0  0
 62139  1  0  0  0
 62140  1  0  0  0
 62141  1  0  0  0
 63 65  1  0  0  0
 63142  1  0  0  0
 63143  1  0  0  0
 63144  1  0  0  0
 64145  1  0  0  0
 65146  1  0  0  0
 68 84  1  0  0  0
 71 72  2  0  0  0
 71 73  1  0  0  0
 71147  1  0  0  0
 72 74  1  0  0  0
 72148  1  0  0  0
 73 75  2  0  0  0
 73149  1  0  0  0
 74 76  2  0  0  0
 74150  1  0  0  0
 75 76  1  0  0  0
 75 85  1  0  0  0
 76 87  1  0  0  0
 77 79  1  0  0  0
 77 81  1  0  0  0
 77151  1  0  0  0
 77152  1  0  0  0
 78 80  1  0  0  0
 78 81  1  0  0  0
 78153  1  0  0  0
 78154  1  0  0  0
 79 82  1  0  0  0
 79155  1  0  0  0
 79156  1  0  0  0
 80 82  1  0  0  0
 80157  1  0  0  0
 80158  1  0  0  0
 81 86  1  0  0  0
 81159  1  0  0  0
 82 87  1  0  0  0
 82160  1  0  0  0
 83 84  1  0  0  0
 83 86  1  0  0  0
 83161  1  0  0  0
 83162  1  0  0  0
 84163  1  0  0  0
 84164  1  0  0  0
 85165  1  0  0  0
 86166  1  0  0  0
 86167  1  0  0  0
M  CHG  1  86   1
M  ISO  4   1 100  68 101  84 101  85 100
M  END
> <chiral flag>
0

> <version>
0

> <s_m_source_file>
/data/baiqing/PycharmProjects/Reinvent-master-3.2/result/LINK_invent/BTK/process_docking_weight1_custom_sum_contain_oxygen_bond_distance_aromatic_linkinvent_7_9_3/rearranged_h_0136.sdf

> <i_m_source_file_index>
72

> <r_mmod_Potential_Energy-OPLS-2005>
-85.4628067016602

> <r_mmod_Stretch_Energy-OPLS-2005>
36.2239837646484

> <r_mmod_Bend_Energy-OPLS-2005>
132.754486083984

> <r_mmod_Torsional_Energy-OPLS-2005>
301.733764648438

> <r_mmod_Improper_Torsional_Energy-OPLS-2005>
7.87424373626709

> <r_mmod_Van_der_Waal_Energy-OPLS-2005>
184.66682434082

> <r_mmod_Electrostatic_Energy-OPLS-2005>
-315.611450195312

> <r_mmod_Solvation_Energy-OPLS-2005>
-446.220672607422

> <b_mmod_Minimization_Converged-OPLS-2005>
0

> <r_mmod_RMS_Derivative-OPLS-2005>
4.87724733352661

$$$$
75
                    3D
 Structure written by MMmdl.
167176  0  0  1  0            999 V2000
  -30.7511  -14.4843   20.5803 C   0  0  0  0  0  0
  -30.3875  -12.3134   19.4502 C   0  0  0  0  0  0
  -29.4867  -12.5109   18.2152 C   0  0  0  0  0  0
  -27.9979  -12.4143   18.5967 C   0  0  0  0  0  0
  -27.6452  -13.2434   19.8632 C   0  0  2  0  0  0
  -28.6835  -13.0708   20.9926 C   0  0  0  0  0  0
  -25.2506  -13.8334   20.5743 C   0  0  0  0  0  0
  -24.1792  -13.0463   20.9193 C   0  0  0  0  0  0
  -24.6408  -11.6991   20.8702 C   0  0  0  0  0  0
  -23.9137  -10.4322   21.0338 C   0  0  0  0  0  0
  -24.3709   -9.4231   21.9096 C   0  0  0  0  0  0
  -23.6380   -8.2263   22.0673 C   0  0  0  0  0  0
  -22.4343   -8.0312   21.3510 C   0  0  0  0  0  0
  -21.9982   -9.0269   20.4587 C   0  0  0  0  0  0
  -22.7319  -10.2144   20.2979 C   0  0  0  0  0  0
  -21.6898   -6.0769   22.5249 C   0  0  0  0  0  0
  -21.4023   -6.5623   23.8191 C   0  0  0  0  0  0
  -21.3697   -5.6768   24.9132 C   0  0  0  0  0  0
  -21.6067   -4.3035   24.7174 C   0  0  0  0  0  0
  -21.8840   -3.8152   23.4281 C   0  0  0  0  0  0
  -21.9241   -4.6993   22.3358 C   0  0  0  0  0  0
  -22.7855  -13.5231   21.1895 C   0  0  0  0  0  0
  -22.1702   -4.2184   21.0942 F   0  0  0  0  0  0
  -21.5646   -3.4507   25.7679 F   0  0  0  0  0  0
  -30.0189  -13.3405   20.4449 N   0  0  0  0  0  0
  -26.2939  -12.9543   20.3323 N   0  0  0  0  0  0
  -25.9319  -11.6659   20.5676 N   0  0  0  0  0  0
  -22.0609  -12.8095   22.0473 N   0  0  0  0  0  0
  -25.4189  -15.2046   20.4309 N   0  0  0  0  0  0
  -31.8147  -14.6196   19.9652 O   0  0  0  0  0  0
  -21.6692   -6.8916   21.4218 O   0  0  0  0  0  0
  -22.3481  -14.5519   20.6799 O   0  0  0  0  0  0
  -24.6101  -31.8683   23.2020 C   0  0  0  0  0  0
  -25.8998  -32.4810   23.8252 C   0  0  1  0  0  0
  -27.2107  -27.4033   20.0710 C   0  0  0  0  0  0
  -25.5844  -33.8617   24.2214 N   0  0  0  0  0  0
  -23.3991  -30.4905   21.5485 C   0  0  2  0  0  0
  -24.8326  -28.9388   20.1343 C   0  0  0  0  0  0
  -22.7335  -29.4653   22.4964 C   0  0  0  0  0  0
  -18.0227  -28.1295   22.8462 C   0  0  0  0  0  0
  -24.1459  -36.7412   23.2658 C   0  0  0  0  0  0
  -25.9313  -30.8220   21.3542 C   0  0  0  0  0  0
  -26.0040  -29.4520   20.7044 C   0  0  0  0  0  0
  -27.2035  -28.6950   20.6584 C   0  0  0  0  0  0
  -26.0196  -26.9142   19.5058 C   0  0  0  0  0  0
  -24.8314  -27.6625   19.5465 C   0  0  0  0  0  0
  -23.6069  -29.8197   20.1710 C   0  0  0  0  0  0
  -25.4078  -36.3149   24.0315 C   0  0  1  0  0  0
  -20.5798  -28.3631   23.1309 C   0  0  2  0  0  0
  -20.6692  -26.9368   22.5424 C   0  0  0  0  0  0
  -19.5702  -26.6323   21.5214 C   0  0  0  0  0  0
  -18.1861  -26.7825   22.1614 C   0  0  0  0  0  0
  -19.1459  -28.8777   23.2869 C   0  0  0  0  0  0
  -18.9408  -30.1371   23.8890 C   0  0  0  0  0  0
  -17.6422  -30.6515   24.0540 C   0  0  0  0  0  0
  -25.9018  -34.9502   23.5077 C   0  0  0  0  0  0
  -16.5299  -29.9022   23.6348 C   0  0  0  0  0  0
  -16.7219  -28.6441   23.0353 C   0  0  0  0  0  0
  -26.4363  -31.6560   25.0581 C   0  0  0  0  0  0
  -25.3518  -31.3731   26.1249 C   0  0  0  0  0  0
  -27.0230  -30.2960   24.6089 C   0  0  0  0  0  0
  -27.5922  -32.4272   25.7324 C   0  0  0  0  0  0
  -27.5545  -37.1804   24.8418 C   0  0  0  0  0  0
  -21.4064  -29.3008   22.3707 N   0  0  0  0  0  0
  -26.4257  -37.3846   23.9383 N   0  0  0  0  0  0
  -24.6662  -31.0738   22.0936 N   0  0  0  0  0  0
  -23.4143  -28.8142   23.2923 O   0  0  0  0  0  0
  -28.3672  -26.6639   19.9321 O   0  0  0  0  0  0
  -26.5697  -34.8985   22.4706 O   0  0  0  0  0  0
  -23.5309  -32.1377   23.7449 O   0  0  0  0  0  0
  -29.1291  -18.6645   22.1643 C   0  0  0  0  0  0
  -28.4566  -19.9119   22.1905 C   0  0  0  0  0  0
  -28.2319  -19.8259   19.7861 C   0  0  0  0  0  0
  -29.4608  -18.0205   20.9423 C   0  0  0  0  0  0
  -28.9206  -18.5872   19.7470 C   0  0  0  0  0  0
  -28.0354  -20.5286   20.9886 C   0  0  0  0  0  0
  -31.9798  -16.2798   22.8360 C   0  0  0  0  0  0
  -30.7001  -15.4351   22.7536 C   0  0  0  0  0  0
  -30.5742  -16.9240   20.9247 C   0  0  1  0  0  0
  -31.7887  -17.3828   21.7898 C   0  0  2  0  0  0
  -29.0815  -17.9309   18.3872 C   0  0  0  0  0  0
  -33.0421  -17.6592   20.9491 C   0  0  0  0  0  0
  -27.7301  -24.1159   20.2702 C   0  0  0  0  0  0
  -28.4954  -25.4257   20.6615 C   0  0  0  0  0  0
  -28.1246  -22.9321   21.2155 C   0  0  0  0  0  0
  -30.2693  -15.5104   21.3498 N   0  0  0  0  0  0
  -27.3743  -21.7434   20.9368 O   0  0  0  0  0  0
  -31.4402  -12.3512   19.1562 H   0  0  0  0  0  0
  -30.2440  -11.3187   19.8707 H   0  0  0  0  0  0
  -29.7180  -11.7688   17.4508 H   0  0  0  0  0  0
  -29.6866  -13.4838   17.7660 H   0  0  0  0  0  0
  -27.7427  -11.3649   18.7343 H   0  0  0  0  0  0
  -27.3990  -12.7685   17.7550 H   0  0  0  0  0  0
  -27.6698  -14.2874   19.5518 H   0  0  0  0  0  0
  -28.6372  -12.0517   21.3798 H   0  0  0  0  0  0
  -28.4444  -13.7374   21.8211 H   0  0  0  0  0  0
  -25.2851   -9.5724   22.4648 H   0  0  0  0  0  0
  -24.0132   -7.4655   22.7327 H   0  0  0  0  0  0
  -21.0952   -8.8801   19.8857 H   0  0  0  0  0  0
  -22.3787  -10.9696   19.6085 H   0  0  0  0  0  0
  -21.1941   -7.6120   23.9709 H   0  0  0  0  0  0
  -21.1538   -6.0459   25.9060 H   0  0  0  0  0  0
  -22.0593   -2.7618   23.2756 H   0  0  0  0  0  0
  -22.4403  -11.9760   22.4759 H   0  0  0  0  0  0
  -21.1176  -13.0884   22.2732 H   0  0  0  0  0  0
  -24.6660  -15.8730   20.5646 H   0  0  0  0  0  0
  -26.2984  -15.6560   20.2068 H   0  0  0  0  0  0
  -26.7030  -32.5521   23.0967 H   0  0  0  0  0  0
  -24.9710  -33.9723   25.0156 H   0  0  0  0  0  0
  -22.6905  -31.3086   21.4005 H   0  0  0  0  0  0
  -23.3670  -35.9798   23.3266 H   0  0  0  0  0  0
  -24.3550  -36.9116   22.2090 H   0  0  0  0  0  0
  -23.7226  -37.6614   23.6710 H   0  0  0  0  0  0
  -26.0569  -31.5900   20.5894 H   0  0  0  0  0  0
  -26.8148  -30.8669   21.9791 H   0  0  0  0  0  0
  -28.1234  -29.1108   21.0476 H   0  0  0  0  0  0
  -26.0117  -25.9568   19.0067 H   0  0  0  0  0  0
  -23.9190  -27.2555   19.1318 H   0  0  0  0  0  0
  -23.7288  -30.5860   19.4020 H   0  0  0  0  0  0
  -22.7223  -29.2509   19.8744 H   0  0  0  0  0  0
  -25.1196  -36.2034   25.0799 H   0  0  0  0  0  0
  -20.9886  -28.3214   24.1447 H   0  0  0  0  0  0
  -20.5526  -26.2268   23.3610 H   0  0  0  0  0  0
  -21.6560  -26.7338   22.1248 H   0  0  0  0  0  0
  -19.6888  -25.6266   21.1215 H   0  0  0  0  0  0
  -19.6609  -27.3138   20.6742 H   0  0  0  0  0  0
  -17.4111  -26.6545   21.4020 H   0  0  0  0  0  0
  -18.0286  -25.9910   22.8960 H   0  0  0  0  0  0
  -19.7901  -30.7141   24.2235 H   0  0  0  0  0  0
  -17.5015  -31.6229   24.5097 H   0  0  0  0  0  0
  -15.5324  -30.2926   23.7693 H   0  0  0  0  0  0
  -15.8598  -28.0792   22.7085 H   0  0  0  0  0  0
  -24.5714  -30.7117   25.7449 H   0  0  0  0  0  0
  -24.8672  -32.2933   26.4526 H   0  0  0  0  0  0
  -25.7676  -30.8886   27.0085 H   0  0  0  0  0  0
  -26.2850  -29.6665   24.1140 H   0  0  0  0  0  0
  -27.3871  -29.7254   25.4636 H   0  0  0  0  0  0
  -27.8681  -30.4099   23.9315 H   0  0  0  0  0  0
  -27.2548  -33.3615   26.1789 H   0  0  0  0  0  0
  -28.3740  -32.6774   25.0140 H   0  0  0  0  0  0
  -28.0543  -31.8443   26.5287 H   0  0  0  0  0  0
  -28.2521  -38.0155   24.7552 H   0  0  0  0  0  0
  -28.1030  -36.2664   24.6040 H   0  0  0  0  0  0
  -27.2261  -37.1270   25.8827 H   0  0  0  0  0  0
  -20.9207  -29.8901   21.7077 H   0  0  0  0  0  0
  -26.0136  -38.2923   24.1388 H   0  0  0  0  0  0
  -29.4979  -18.2632   23.0982 H   0  0  0  0  0  0
  -28.3015  -20.4003   23.1425 H   0  0  0  0  0  0
  -27.8852  -20.2876   18.8711 H   0  0  0  0  0  0
  -32.8476  -15.6645   22.5881 H   0  0  0  0  0  0
  -32.1580  -16.6572   23.8439 H   0  0  0  0  0  0
  -29.9147  -15.8550   23.3810 H   0  0  0  0  0  0
  -30.8945  -14.4212   23.1223 H   0  0  0  0  0  0
  -30.9144  -16.8976   19.8908 H   0  0  0  0  0  0
  -31.5961  -18.3190   22.3111 H   0  0  0  0  0  0
  -28.4981  -18.4724   17.6384 H   0  0  0  0  0  0
  -28.7249  -16.8986   18.3925 H   0  0  0  0  0  0
  -30.1215  -17.9530   18.0660 H   0  0  0  0  0  0
  -33.4369  -16.7279   20.5391 H   0  0  0  0  0  0
  -33.8214  -18.1283   21.5524 H   0  0  0  0  0  0
  -32.8183  -18.3382   20.1206 H   0  0  0  0  0  0
  -27.9261  -23.8352   19.2299 H   0  0  0  0  0  0
  -26.6537  -24.2647   20.3417 H   0  0  0  0  0  0
  -29.5514  -25.1826   20.5597 H   0  0  0  0  0  0
  -28.3497  -25.6485   21.7171 H   0  0  0  0  0  0
  -27.9113  -23.2210   22.2483 H   0  0  0  0  0  0
  -29.2028  -22.7514   21.1731 H   0  0  0  0  0  0
  1 25  1  0  0  0
  1 30  2  0  0  0
  1 86  1  0  0  0
  2  3  1  0  0  0
  2 25  1  0  0  0
  2 88  1  0  0  0
  2 89  1  0  0  0
  3  4  1  0  0  0
  3 90  1  0  0  0
  3 91  1  0  0  0
  4  5  1  0  0  0
  4 92  1  0  0  0
  4 93  1  0  0  0
  5  6  1  0  0  0
  5 26  1  0  0  0
  5 94  1  0  0  0
  6 25  1  0  0  0
  6 95  1  0  0  0
  6 96  1  0  0  0
  7  8  2  0  0  0
  7 26  1  0  0  0
  7 29  1  0  0  0
  8  9  1  0  0  0
  8 22  1  0  0  0
  9 10  1  0  0  0
  9 27  2  0  0  0
 10 11  2  0  0  0
 10 15  1  0  0  0
 11 12  1  0  0  0
 11 97  1  0  0  0
 12 13  2  0  0  0
 12 98  1  0  0  0
 13 14  1  0  0  0
 13 31  1  0  0  0
 14 15  2  0  0  0
 14 99  1  0  0  0
 15100  1  0  0  0
 16 17  2  0  0  0
 16 21  1  0  0  0
 16 31  1  0  0  0
 17 18  1  0  0  0
 17101  1  0  0  0
 18 19  2  0  0  0
 18102  1  0  0  0
 19 20  1  0  0  0
 19 24  1  0  0  0
 20 21  2  0  0  0
 20103  1  0  0  0
 21 23  1  0  0  0
 22 28  1  0  0  0
 22 32  2  0  0  0
 26 27  1  0  0  0
 28104  1  0  0  0
 28105  1  0  0  0
 29106  1  0  0  0
 29107  1  0  0  0
 33 34  1  0  0  0
 33 66  1  0  0  0
 33 70  2  0  0  0
 34 36  1  0  0  0
 34 59  1  0  0  0
 34108  1  0  0  0
 35 44  2  0  0  0
 35 45  1  0  0  0
 35 68  1  0  0  0
 36 56  1  0  0  0
 36109  1  0  0  0
 37 39  1  0  0  0
 37 47  1  0  0  0
 37 66  1  0  0  0
 37110  1  0  0  0
 38 43  2  0  0  0
 38 46  1  0  0  0
 38 47  1  0  0  0
 39 64  1  0  0  0
 39 67  2  0  0  0
 40 52  1  0  0  0
 40 53  2  0  0  0
 40 58  1  0  0  0
 41111  1  0  0  0
 41112  1  0  0  0
 41113  1  0  0  0
 41 48  1  0  0  0
 42 43  1  0  0  0
 42 66  1  0  0  0
 42114  1  0  0  0
 42115  1  0  0  0
 43 44  1  0  0  0
 44116  1  0  0  0
 45 46  2  0  0  0
 45117  1  0  0  0
 46118  1  0  0  0
 47119  1  0  0  0
 47120  1  0  0  0
 48 56  1  0  0  0
 48 65  1  0  0  0
 48121  1  0  0  0
 49 50  1  0  0  0
 49 53  1  0  0  0
 49 64  1  0  0  0
 49122  1  0  0  0
 50 51  1  0  0  0
 50123  1  0  0  0
 50124  1  0  0  0
 51 52  1  0  0  0
 51125  1  0  0  0
 51126  1  0  0  0
 52127  1  0  0  0
 52128  1  0  0  0
 53 54  1  0  0  0
 54 55  2  0  0  0
 54129  1  0  0  0
 55 57  1  0  0  0
 55130  1  0  0  0
 56 69  2  0  0  0
 57 58  2  0  0  0
 57131  1  0  0  0
 58132  1  0  0  0
 59 60  1  0  0  0
 59 61  1  0  0  0
 59 62  1  0  0  0
 60133  1  0  0  0
 60134  1  0  0  0
 60135  1  0  0  0
 61136  1  0  0  0
 61137  1  0  0  0
 61138  1  0  0  0
 62139  1  0  0  0
 62140  1  0  0  0
 62141  1  0  0  0
 63 65  1  0  0  0
 63142  1  0  0  0
 63143  1  0  0  0
 63144  1  0  0  0
 64145  1  0  0  0
 65146  1  0  0  0
 68 84  1  0  0  0
 71 72  2  0  0  0
 71 74  1  0  0  0
 71147  1  0  0  0
 72 76  1  0  0  0
 72148  1  0  0  0
 73 75  1  0  0  0
 73 76  2  0  0  0
 73149  1  0  0  0
 74 75  2  0  0  0
 74 79  1  0  0  0
 75 81  1  0  0  0
 76 87  1  0  0  0
 77 78  1  0  0  0
 77 80  1  0  0  0
 77150  1  0  0  0
 77151  1  0  0  0
 78 86  1  0  0  0
 78152  1  0  0  0
 78153  1  0  0  0
 79 80  1  0  0  0
 79 86  1  0  0  0
 79154  1  0  0  0
 80 82  1  0  0  0
 80155  1  0  0  0
 81156  1  0  0  0
 81157  1  0  0  0
 81158  1  0  0  0
 82159  1  0  0  0
 82160  1  0  0  0
 82161  1  0  0  0
 83 84  1  0  0  0
 83 85  1  0  0  0
 83162  1  0  0  0
 83163  1  0  0  0
 84164  1  0  0  0
 84165  1  0  0  0
 85 87  1  0  0  0
 85166  1  0  0  0
 85167  1  0  0  0
M  ISO  4   1 100  68 101  84 101  86 100
M  END
> <chiral flag>
0

> <version>
0

> <s_m_source_file>
/data/baiqing/PycharmProjects/Reinvent-master-3.2/result/LINK_invent/BTK/process_docking_weight1_custom_sum_contain_oxygen_bond_distance_aromatic_linkinvent_7_9_3/rearranged_h_0136.sdf

> <i_m_source_file_index>
73

> <r_mmod_Potential_Energy-OPLS-2005>
290.013671875

> <r_mmod_Stretch_Energy-OPLS-2005>
53.6440086364746

> <r_mmod_Bend_Energy-OPLS-2005>
162.610595703125

> <r_mmod_Torsional_Energy-OPLS-2005>
391.452178955078

> <r_mmod_Improper_Torsional_Energy-OPLS-2005>
9.90364360809326

> <r_mmod_Van_der_Waal_Energy-OPLS-2005>
149.976043701172

> <r_mmod_Electrostatic_Energy-OPLS-2005>
-313.098937988281

> <r_mmod_Solvation_Energy-OPLS-2005>
-184.04833984375

> <b_mmod_Minimization_Converged-OPLS-2005>
0

> <r_mmod_RMS_Derivative-OPLS-2005>
8.85529899597168

$$$$
76
                    3D
 Structure written by MMmdl.
156165  0  0  1  0            999 V2000
  -30.6951  -14.5240   20.5411 C   0  0  0  0  0  0
  -30.4153  -12.3323   19.4390 C   0  0  0  0  0  0
  -29.4935  -12.5067   18.2153 C   0  0  0  0  0  0
  -28.0155  -12.3639   18.6278 C   0  0  0  0  0  0
  -27.6557  -13.2171   19.8742 C   0  0  2  0  0  0
  -28.6990  -13.0440   21.0014 C   0  0  0  0  0  0
  -25.2551  -13.8188   20.5677 C   0  0  0  0  0  0
  -24.1820  -13.0446   20.9189 C   0  0  0  0  0  0
  -24.6389  -11.6916   20.8747 C   0  0  0  0  0  0
  -23.9066  -10.4294   21.0398 C   0  0  0  0  0  0
  -24.3622   -9.4213   21.9177 C   0  0  0  0  0  0
  -23.6300   -8.2249   22.0749 C   0  0  0  0  0  0
  -22.4284   -8.0281   21.3540 C   0  0  0  0  0  0
  -21.9915   -9.0253   20.4644 C   0  0  0  0  0  0
  -22.7238  -10.2137   20.3048 C   0  0  0  0  0  0
  -21.6856   -6.0732   22.5271 C   0  0  0  0  0  0
  -21.4011   -6.5634   23.8203 C   0  0  0  0  0  0
  -21.3660   -5.6789   24.9162 C   0  0  0  0  0  0
  -21.6045   -4.3051   24.7215 C   0  0  0  0  0  0
  -21.8825   -3.8141   23.4335 C   0  0  0  0  0  0
  -21.9195   -4.6958   22.3389 C   0  0  0  0  0  0
  -22.7842  -13.5231   21.1852 C   0  0  0  0  0  0
  -22.1664   -4.2146   21.0968 F   0  0  0  0  0  0
  -21.5638   -3.4533   25.7728 F   0  0  0  0  0  0
  -30.0210  -13.3449   20.4344 N   0  0  0  0  0  0
  -26.2998  -12.9378   20.3394 N   0  0  0  0  0  0
  -25.9327  -11.6529   20.5811 N   0  0  0  0  0  0
  -22.0504  -12.8197   22.0414 N   0  0  0  0  0  0
  -25.4245  -15.1892   20.4018 N   0  0  0  0  0  0
  -31.8482  -14.6590   20.1238 O   0  0  0  0  0  0
  -21.6645   -6.8875   21.4236 O   0  0  0  0  0  0
  -22.3507  -14.5536   20.6712 O   0  0  0  0  0  0
  -24.6179  -31.8646   23.2114 C   0  0  0  0  0  0
  -25.9064  -32.4804   23.8401 C   0  0  1  0  0  0
  -27.2252  -27.3986   20.1129 C   0  0  0  0  0  0
  -25.5916  -33.8605   24.2339 N   0  0  0  0  0  0
  -23.4068  -30.4898   21.5509 C   0  0  2  0  0  0
  -24.8537  -28.9477   20.1189 C   0  0  0  0  0  0
  -22.7439  -29.4656   22.5005 C   0  0  0  0  0  0
  -18.0292  -28.1376   22.8537 C   0  0  0  0  0  0
  -24.1487  -36.7313   23.2645 C   0  0  0  0  0  0
  -25.9378  -30.8232   21.3666 C   0  0  0  0  0  0
  -26.0167  -29.4524   20.7170 C   0  0  0  0  0  0
  -27.2086  -28.6854   20.7099 C   0  0  0  0  0  0
  -26.0492  -26.9144   19.5078 C   0  0  0  0  0  0
  -24.8656  -27.6788   19.5109 C   0  0  0  0  0  0
  -23.6179  -29.8208   20.1653 C   0  0  0  0  0  0
  -25.4107  -36.3107   24.0350 C   0  0  1  0  0  0
  -20.5885  -28.3663   23.1337 C   0  0  2  0  0  0
  -20.6783  -26.9411   22.5407 C   0  0  0  0  0  0
  -19.5746  -26.6414   21.5210 C   0  0  0  0  0  0
  -18.1953  -26.7915   22.1687 C   0  0  0  0  0  0
  -19.1547  -28.8838   23.2926 C   0  0  0  0  0  0
  -18.9487  -30.1462   23.8916 C   0  0  0  0  0  0
  -17.6494  -30.6602   24.0569 C   0  0  0  0  0  0
  -25.9035  -34.9464   23.5138 C   0  0  0  0  0  0
  -16.5371  -29.9098   23.6356 C   0  0  0  0  0  0
  -16.7280  -28.6511   23.0385 C   0  0  0  0  0  0
  -26.4478  -31.6580   25.0731 C   0  0  0  0  0  0
  -25.3744  -31.3682   26.1483 C   0  0  0  0  0  0
  -27.0323  -30.3040   24.6087 C   0  0  0  0  0  0
  -27.6053  -32.4283   25.7501 C   0  0  0  0  0  0
  -27.5577  -37.1814   24.8474 C   0  0  0  0  0  0
  -21.4159  -29.3062   22.3781 N   0  0  0  0  0  0
  -26.4294  -37.3788   23.9413 N   0  0  0  0  0  0
  -24.6726  -31.0738   22.1013 N   0  0  0  0  0  0
  -23.4230  -28.8160   23.3008 O   0  0  0  0  0  0
  -28.3558  -26.6042   20.0938 O   0  0  0  0  0  0
  -26.5584  -34.8924   22.4693 O   0  0  0  0  0  0
  -23.5360  -32.1395   23.7495 O   0  0  0  0  0  0
  -27.1290  -23.4075   20.9904 C   0  0  0  0  0  0
  -27.0878  -22.0233   20.7110 C   0  0  0  0  0  0
  -29.4172  -23.3838   20.2692 C   0  0  0  0  0  0
  -28.3177  -24.1285   20.7554 C   0  0  0  0  0  0
  -28.2271  -21.3649   20.1985 C   0  0  0  0  0  0
  -27.2348  -18.9379   20.2710 C   0  0  0  0  0  0
  -28.1211  -19.9567   19.6068 C   0  0  2  0  0  0
  -28.6822  -18.5663   20.0271 C   0  0  2  0  0  0
  -28.4376  -25.6194   21.1519 C   0  0  0  0  0  0
  -29.5417  -18.1689   21.2324 C   0  0  0  0  0  0
  -30.5381  -16.9855   20.9716 C   0  0  0  0  0  0
  -29.3773  -22.0492   19.9914 N   0  0  0  0  0  0
  -29.9913  -15.6041   20.9603 N   0  0  0  0  0  0
  -31.4625  -12.4202   19.1418 H   0  0  0  0  0  0
  -30.3099  -11.3320   19.8614 H   0  0  0  0  0  0
  -29.7416  -11.7723   17.4484 H   0  0  0  0  0  0
  -29.6552  -13.4873   17.7644 H   0  0  0  0  0  0
  -27.8298  -11.3096   18.8356 H   0  0  0  0  0  0
  -27.3629  -12.6267   17.7936 H   0  0  0  0  0  0
  -27.6882  -14.2592   19.5563 H   0  0  0  0  0  0
  -28.6834  -12.0244   21.3873 H   0  0  0  0  0  0
  -28.4666  -13.6859   21.8521 H   0  0  0  0  0  0
  -25.2774   -9.5683   22.4745 H   0  0  0  0  0  0
  -24.0014   -7.4628   22.7457 H   0  0  0  0  0  0
  -21.0854   -8.8761   19.8937 H   0  0  0  0  0  0
  -22.3696  -10.9673   19.6150 H   0  0  0  0  0  0
  -21.2000   -7.6143   23.9701 H   0  0  0  0  0  0
  -21.1483   -6.0519   25.9067 H   0  0  0  0  0  0
  -22.0608   -2.7610   23.2830 H   0  0  0  0  0  0
  -22.4150  -11.9864   22.4787 H   0  0  0  0  0  0
  -21.1115  -13.1183   22.2641 H   0  0  0  0  0  0
  -24.6532  -15.8422   20.4850 H   0  0  0  0  0  0
  -26.2720  -15.6232   20.0604 H   0  0  0  0  0  0
  -26.7137  -32.5517   23.1160 H   0  0  0  0  0  0
  -25.0059  -33.9752   25.0482 H   0  0  0  0  0  0
  -22.6958  -31.3072   21.4088 H   0  0  0  0  0  0
  -23.3741  -35.9652   23.3322 H   0  0  0  0  0  0
  -24.3580  -36.8914   22.2056 H   0  0  0  0  0  0
  -23.7241  -37.6529   23.6636 H   0  0  0  0  0  0
  -26.0490  -31.5868   20.5962 H   0  0  0  0  0  0
  -26.8263  -30.8817   21.9829 H   0  0  0  0  0  0
  -28.1086  -29.0705   21.1692 H   0  0  0  0  0  0
  -26.0523  -25.9388   19.0430 H   0  0  0  0  0  0
  -23.9720  -27.2859   19.0464 H   0  0  0  0  0  0
  -23.7346  -30.5973   19.4081 H   0  0  0  0  0  0
  -22.7395  -29.2468   19.8655 H   0  0  0  0  0  0
  -25.1280  -36.1974   25.0843 H   0  0  0  0  0  0
  -20.9983  -28.3209   24.1449 H   0  0  0  0  0  0
  -20.5700  -26.2263   23.3584 H   0  0  0  0  0  0
  -21.6649  -26.7460   22.1201 H   0  0  0  0  0  0
  -19.6884  -25.6341   21.1209 H   0  0  0  0  0  0
  -19.6657  -27.3256   20.6769 H   0  0  0  0  0  0
  -17.4171  -26.6603   21.4147 H   0  0  0  0  0  0
  -18.0450  -26.0058   22.9115 H   0  0  0  0  0  0
  -19.7970  -30.7271   24.2264 H   0  0  0  0  0  0
  -17.5059  -31.6296   24.5146 H   0  0  0  0  0  0
  -15.5378  -30.3013   23.7685 H   0  0  0  0  0  0
  -15.8665  -28.0844   22.7101 H   0  0  0  0  0  0
  -24.5918  -30.7017   25.7842 H   0  0  0  0  0  0
  -24.8927  -32.2836   26.4933 H   0  0  0  0  0  0
  -25.8105  -30.8866   27.0242 H   0  0  0  0  0  0
  -26.2884  -29.6803   24.1118 H   0  0  0  0  0  0
  -27.4116  -29.7261   25.4525 H   0  0  0  0  0  0
  -27.8696  -30.4414   23.9239 H   0  0  0  0  0  0
  -27.2688  -33.3569   26.2118 H   0  0  0  0  0  0
  -28.3851  -32.6856   25.0324 H   0  0  0  0  0  0
  -28.0717  -31.8366   26.5388 H   0  0  0  0  0  0
  -28.2616  -38.0084   24.7483 H   0  0  0  0  0  0
  -28.1045  -36.2618   24.6338 H   0  0  0  0  0  0
  -27.2291  -37.1521   25.8875 H   0  0  0  0  0  0
  -20.9282  -29.8918   21.7148 H   0  0  0  0  0  0
  -26.0193  -38.2880   24.1366 H   0  0  0  0  0  0
  -26.2523  -23.9045   21.3805 H   0  0  0  0  0  0
  -26.1603  -21.4829   20.8439 H   0  0  0  0  0  0
  -30.3660  -23.8714   20.1005 H   0  0  0  0  0  0
  -26.4788  -18.4531   19.6559 H   0  0  0  0  0  0
  -26.9377  -19.1275   21.3013 H   0  0  0  0  0  0
  -27.9719  -20.0811   18.5349 H   0  0  0  0  0  0
  -28.8247  -17.8808   19.1928 H   0  0  0  0  0  0
  -29.4093  -25.7488   21.6312 H   0  0  0  0  0  0
  -27.7043  -25.8327   21.9331 H   0  0  0  0  0  0
  -28.9057  -17.9459   22.0901 H   0  0  0  0  0  0
  -30.1204  -19.0496   21.5152 H   0  0  0  0  0  0
  -31.0648  -17.1708   20.0332 H   0  0  0  0  0  0
  -31.3063  -17.0129   21.7451 H   0  0  0  0  0  0
  -29.0378  -15.4583   21.2584 H   0  0  0  0  0  0
  1 25  1  0  0  0
  1 30  2  0  0  0
  1 83  1  0  0  0
  2  3  1  0  0  0
  2 25  1  0  0  0
  2 84  1  0  0  0
  2 85  1  0  0  0
  3  4  1  0  0  0
  3 86  1  0  0  0
  3 87  1  0  0  0
  4  5  1  0  0  0
  4 88  1  0  0  0
  4 89  1  0  0  0
  5  6  1  0  0  0
  5 26  1  0  0  0
  5 90  1  0  0  0
  6 25  1  0  0  0
  6 91  1  0  0  0
  6 92  1  0  0  0
  7  8  2  0  0  0
  7 26  1  0  0  0
  7 29  1  0  0  0
  8  9  1  0  0  0
  8 22  1  0  0  0
  9 10  1  0  0  0
  9 27  2  0  0  0
 10 11  2  0  0  0
 10 15  1  0  0  0
 11 12  1  0  0  0
 11 93  1  0  0  0
 12 13  2  0  0  0
 12 94  1  0  0  0
 13 14  1  0  0  0
 13 31  1  0  0  0
 14 15  2  0  0  0
 14 95  1  0  0  0
 15 96  1  0  0  0
 16 17  2  0  0  0
 16 21  1  0  0  0
 16 31  1  0  0  0
 17 18  1  0  0  0
 17 97  1  0  0  0
 18 19  2  0  0  0
 18 98  1  0  0  0
 19 20  1  0  0  0
 19 24  1  0  0  0
 20 21  2  0  0  0
 20 99  1  0  0  0
 21 23  1  0  0  0
 22 28  1  0  0  0
 22 32  2  0  0  0
 26 27  1  0  0  0
 28100  1  0  0  0
 28101  1  0  0  0
 29102  1  0  0  0
 29103  1  0  0  0
 33 34  1  0  0  0
 33 66  1  0  0  0
 33 70  2  0  0  0
 34 36  1  0  0  0
 34 59  1  0  0  0
 34104  1  0  0  0
 35 44  2  0  0  0
 35 45  1  0  0  0
 35 68  1  0  0  0
 36 56  1  0  0  0
 36105  1  0  0  0
 37 39  1  0  0  0
 37 47  1  0  0  0
 37 66  1  0  0  0
 37106  1  0  0  0
 38 43  2  0  0  0
 38 46  1  0  0  0
 38 47  1  0  0  0
 39 64  1  0  0  0
 39 67  2  0  0  0
 40 52  1  0  0  0
 40 53  2  0  0  0
 40 58  1  0  0  0
 41107  1  0  0  0
 41108  1  0  0  0
 41109  1  0  0  0
 41 48  1  0  0  0
 42 43  1  0  0  0
 42 66  1  0  0  0
 42110  1  0  0  0
 42111  1  0  0  0
 43 44  1  0  0  0
 44112  1  0  0  0
 45 46  2  0  0  0
 45113  1  0  0  0
 46114  1  0  0  0
 47115  1  0  0  0
 47116  1  0  0  0
 48 56  1  0  0  0
 48 65  1  0  0  0
 48117  1  0  0  0
 49 50  1  0  0  0
 49 53  1  0  0  0
 49 64  1  0  0  0
 49118  1  0  0  0
 50 51  1  0  0  0
 50119  1  0  0  0
 50120  1  0  0  0
 51 52  1  0  0  0
 51121  1  0  0  0
 51122  1  0  0  0
 52123  1  0  0  0
 52124  1  0  0  0
 53 54  1  0  0  0
 54 55  2  0  0  0
 54125  1  0  0  0
 55 57  1  0  0  0
 55126  1  0  0  0
 56 69  2  0  0  0
 57 58  2  0  0  0
 57127  1  0  0  0
 58128  1  0  0  0
 59 60  1  0  0  0
 59 61  1  0  0  0
 59 62  1  0  0  0
 60129  1  0  0  0
 60130  1  0  0  0
 60131  1  0  0  0
 61132  1  0  0  0
 61133  1  0  0  0
 61134  1  0  0  0
 62135  1  0  0  0
 62136  1  0  0  0
 62137  1  0  0  0
 63 65  1  0  0  0
 63138  1  0  0  0
 63139  1  0  0  0
 63140  1  0  0  0
 64141  1  0  0  0
 65142  1  0  0  0
 68 79  1  0  0  0
 71 72  2  0  0  0
 71 74  1  0  0  0
 71143  1  0  0  0
 72 75  1  0  0  0
 72144  1  0  0  0
 73 74  2  0  0  0
 73 82  1  0  0  0
 73145  1  0  0  0
 74 79  1  0  0  0
 75 82  2  0  0  0
 75 77  1  0  0  0
 76 77  1  0  0  0
 76 78  1  0  0  0
 76146  1  0  0  0
 76147  1  0  0  0
 77 78  1  0  0  0
 77148  1  0  0  0
 78 80  1  0  0  0
 78149  1  0  0  0
 79150  1  0  0  0
 79151  1  0  0  0
 80 81  1  0  0  0
 80152  1  0  0  0
 80153  1  0  0  0
 81 83  1  0  0  0
 81154  1  0  0  0
 81155  1  0  0  0
 83156  1  0  0  0
M  ISO  4   1 100  68 101  79 101  83 100
M  END
> <chiral flag>
0

> <version>
0

> <s_m_source_file>
/data/baiqing/PycharmProjects/Reinvent-master-3.2/result/LINK_invent/BTK/process_docking_weight1_custom_sum_contain_oxygen_bond_distance_aromatic_linkinvent_7_9_3/rearranged_h_0136.sdf

> <i_m_source_file_index>
74

> <r_mmod_Potential_Energy-OPLS-2005>
-97.6030426025391

> <r_mmod_Stretch_Energy-OPLS-2005>
46.9055709838867

> <r_mmod_Bend_Energy-OPLS-2005>
122.725143432617

> <r_mmod_Torsional_Energy-OPLS-2005>
281.364898681641

> <r_mmod_Improper_Torsional_Energy-OPLS-2005>
5.79789018630981

> <r_mmod_Van_der_Waal_Energy-OPLS-2005>
138.951568603516

> <r_mmod_Electrostatic_Energy-OPLS-2005>
-496.281646728516

> <r_mmod_Solvation_Energy-OPLS-2005>
-217.853881835938

> <b_mmod_Minimization_Converged-OPLS-2005>
0

> <r_mmod_RMS_Derivative-OPLS-2005>
2.30431246757507

$$$$
77
                    3D
 Structure written by MMmdl.
144152  0  0  1  0            999 V2000
  -30.2652  -15.7673   20.3147 C   0  0  0  0  0  0
  -30.4156  -13.1788   19.5381 C   0  0  0  0  0  0
  -29.5592  -12.6878   18.3329 C   0  0  0  0  0  0
  -28.1402  -12.3070   18.7797 C   0  0  0  0  0  0
  -27.5922  -13.3225   19.8068 C   0  0  2  0  0  0
  -28.6001  -13.7148   20.9163 C   0  0  0  0  0  0
  -25.2310  -13.8302   20.5802 C   0  0  0  0  0  0
  -24.1712  -13.0434   20.9291 C   0  0  0  0  0  0
  -24.6432  -11.6950   20.8748 C   0  0  0  0  0  0
  -23.9131  -10.4294   21.0382 C   0  0  0  0  0  0
  -24.3658   -9.4208   21.9172 C   0  0  0  0  0  0
  -23.6310   -8.2253   22.0760 C   0  0  0  0  0  0
  -22.4290   -8.0292   21.3553 C   0  0  0  0  0  0
  -21.9935   -9.0270   20.4654 C   0  0  0  0  0  0
  -22.7289  -10.2135   20.3046 C   0  0  0  0  0  0
  -21.6857   -6.0737   22.5280 C   0  0  0  0  0  0
  -21.4023   -6.5638   23.8215 C   0  0  0  0  0  0
  -21.3662   -5.6789   24.9177 C   0  0  0  0  0  0
  -21.6044   -4.3052   24.7228 C   0  0  0  0  0  0
  -21.8817   -3.8146   23.4347 C   0  0  0  0  0  0
  -21.9195   -4.6964   22.3403 C   0  0  0  0  0  0
  -22.7715  -13.5159   21.1917 C   0  0  0  0  0  0
  -22.1661   -4.2150   21.0981 F   0  0  0  0  0  0
  -21.5628   -3.4536   25.7740 F   0  0  0  0  0  0
  -29.7525  -14.3786   20.2493 N   0  0  0  0  0  0
  -26.2774  -12.9664   20.3225 N   0  0  0  0  0  0
  -25.9385  -11.6720   20.5666 N   0  0  0  0  0  0
  -22.0372  -12.8149   22.0470 N   0  0  0  0  0  0
  -25.3868  -15.2050   20.4258 N   0  0  0  0  0  0
  -31.5012  -15.6515   20.1801 O   0  0  0  0  0  0
  -21.6647   -6.8890   21.4247 O   0  0  0  0  0  0
  -22.3388  -14.5453   20.6746 O   0  0  0  0  0  0
  -24.6927  -31.7888   23.1439 C   0  0  0  0  0  0
  -25.9468  -32.4409   23.8019 C   0  0  1  0  0  0
  -27.2272  -26.6037   20.2251 C   0  0  0  0  0  0
  -25.6011  -33.8242   24.1894 N   0  0  0  0  0  0
  -23.5235  -30.3870   21.4998 C   0  0  2  0  0  0
  -24.9819  -28.7082   20.1204 C   0  0  0  0  0  0
  -22.7804  -29.4262   22.4684 C   0  0  0  0  0  0
  -18.0342  -28.1435   22.8441 C   0  0  0  0  0  0
  -24.1498  -36.7133   23.2653 C   0  0  0  0  0  0
  -26.1081  -30.4892   21.4236 C   0  0  0  0  0  0
  -26.1731  -29.0433   20.7748 C   0  0  0  0  0  0
  -27.2759  -28.0227   20.7905 C   0  0  0  0  0  0
  -26.0013  -26.5024   19.5124 C   0  0  0  0  0  0
  -24.9410  -27.4641   19.4654 C   0  0  0  0  0  0
  -23.7833  -29.6762   20.1389 C   0  0  0  0  0  0
  -25.4154  -36.2862   24.0268 C   0  0  1  0  0  0
  -20.5981  -28.3801   23.1123 C   0  0  2  0  0  0
  -20.6810  -26.9449   22.5411 C   0  0  0  0  0  0
  -19.5789  -26.6369   21.5223 C   0  0  0  0  0  0
  -18.1970  -26.7959   22.1617 C   0  0  0  0  0  0
  -19.1609  -28.8945   23.2759 C   0  0  0  0  0  0
  -18.9517  -30.1522   23.8813 C   0  0  0  0  0  0
  -17.6509  -30.6612   24.0546 C   0  0  0  0  0  0
  -25.9139  -34.9253   23.4922 C   0  0  0  0  0  0
  -16.5397  -29.9091   23.6355 C   0  0  0  0  0  0
  -16.7321  -28.6517   23.0363 C   0  0  0  0  0  0
  -26.4613  -31.6488   25.0686 C   0  0  0  0  0  0
  -25.3654  -31.3850   26.1287 C   0  0  0  0  0  0
  -27.0552  -30.2806   24.6668 C   0  0  0  0  0  0
  -27.6037  -32.4373   25.7516 C   0  0  0  0  0  0
  -27.5564  -37.1723   24.8460 C   0  0  0  0  0  0
  -21.4442  -29.3022   22.3427 N   0  0  0  0  0  0
  -26.4272  -37.3634   23.9401 N   0  0  0  0  0  0
  -24.7992  -30.9237   22.0748 N   0  0  0  0  0  0
  -23.4198  -28.7873   23.3071 O   0  0  0  0  0  0
  -28.1763  -25.3397   20.2895 O   0  0  0  0  0  0
  -26.5793  -34.8851   22.4546 O   0  0  0  0  0  0
  -23.5926  -32.1016   23.6330 O   0  0  0  0  0  0
  -30.3213  -22.0238   20.3355 C   0  0  0  0  0  0
  -31.2329  -20.9197   20.3781 C   0  0  0  0  0  0
  -28.6766  -20.2763   20.2781 C   0  0  0  0  0  0
  -28.9174  -21.9019   20.2805 C   0  0  0  0  0  0
  -29.6344  -18.9424   20.3231 C   0  0  0  0  0  0
  -30.9462  -19.5118   20.3751 C   0  0  0  0  0  0
  -27.9456  -23.5488   20.2025 C   0  0  0  0  0  0
  -29.5050  -17.1724   20.3359 N   0  0  0  0  0  0
  -32.3390  -18.4989   20.4547 Cl  0  0  0  0  0  0
  -31.4005  -13.4530   19.1588 H   0  0  0  0  0  0
  -30.6066  -12.3609   20.2345 H   0  0  0  0  0  0
  -30.0413  -11.8428   17.8393 H   0  0  0  0  0  0
  -29.5038  -13.4846   17.5896 H   0  0  0  0  0  0
  -28.1872  -11.3178   19.2360 H   0  0  0  0  0  0
  -27.4749  -12.2214   17.9198 H   0  0  0  0  0  0
  -27.4360  -14.2264   19.2160 H   0  0  0  0  0  0
  -28.8895  -12.8557   21.5234 H   0  0  0  0  0  0
  -28.1413  -14.4314   21.5993 H   0  0  0  0  0  0
  -25.2805   -9.5676   22.4747 H   0  0  0  0  0  0
  -24.0016   -7.4642   22.7476 H   0  0  0  0  0  0
  -21.0869   -8.8796   19.8953 H   0  0  0  0  0  0
  -22.3755  -10.9672   19.6147 H   0  0  0  0  0  0
  -21.2017   -7.6147   23.9718 H   0  0  0  0  0  0
  -21.1485   -6.0520   25.9078 H   0  0  0  0  0  0
  -22.0590   -2.7608   23.2847 H   0  0  0  0  0  0
  -22.4007  -11.9853   22.4922 H   0  0  0  0  0  0
  -21.0968  -13.1138   22.2624 H   0  0  0  0  0  0
  -24.6114  -15.8482   20.5445 H   0  0  0  0  0  0
  -26.2228  -15.6527   20.0750 H   0  0  0  0  0  0
  -26.7556  -32.4849   23.0734 H   0  0  0  0  0  0
  -25.0043  -33.9262   24.9969 H   0  0  0  0  0  0
  -22.8540  -31.2271   21.3024 H   0  0  0  0  0  0
  -23.3778  -35.9443   23.3260 H   0  0  0  0  0  0
  -24.3560  -36.8862   22.2079 H   0  0  0  0  0  0
  -23.7244  -37.6284   23.6783 H   0  0  0  0  0  0
  -26.3212  -31.2087   20.6321 H   0  0  0  0  0  0
  -26.9542  -30.5594   22.0942 H   0  0  0  0  0  0
  -28.1696  -28.2896   21.3373 H   0  0  0  0  0  0
  -25.8152  -25.5677   19.0029 H   0  0  0  0  0  0
  -24.0438  -27.1970   18.9237 H   0  0  0  0  0  0
  -23.9681  -30.4332   19.3761 H   0  0  0  0  0  0
  -22.8858  -29.1502   19.8101 H   0  0  0  0  0  0
  -25.1369  -36.1607   25.0757 H   0  0  0  0  0  0
  -21.0054  -28.3442   24.1254 H   0  0  0  0  0  0
  -20.5675  -26.2425   23.3682 H   0  0  0  0  0  0
  -21.6667  -26.7386   22.1237 H   0  0  0  0  0  0
  -19.6947  -25.6253   21.1312 H   0  0  0  0  0  0
  -19.6742  -27.3125   20.6709 H   0  0  0  0  0  0
  -17.4240  -26.6692   21.4017 H   0  0  0  0  0  0
  -18.0354  -26.0129   22.9041 H   0  0  0  0  0  0
  -19.7993  -30.7354   24.2151 H   0  0  0  0  0  0
  -17.5059  -31.6282   24.5166 H   0  0  0  0  0  0
  -15.5394  -30.2967   23.7732 H   0  0  0  0  0  0
  -15.8721  -28.0808   22.7129 H   0  0  0  0  0  0
  -24.5850  -30.7191   25.7592 H   0  0  0  0  0  0
  -24.8839  -32.3090   26.4493 H   0  0  0  0  0  0
  -25.7801  -30.9152   27.0213 H   0  0  0  0  0  0
  -26.3286  -29.6398   24.1666 H   0  0  0  0  0  0
  -27.3930  -29.7288   25.5452 H   0  0  0  0  0  0
  -27.9290  -30.3895   24.0243 H   0  0  0  0  0  0
  -27.2552  -33.3745   26.1872 H   0  0  0  0  0  0
  -28.3967  -32.6824   25.0438 H   0  0  0  0  0  0
  -28.0583  -31.8661   26.5621 H   0  0  0  0  0  0
  -28.2538  -38.0058   24.7507 H   0  0  0  0  0  0
  -28.1103  -36.2574   24.6287 H   0  0  0  0  0  0
  -27.2278  -37.1359   25.8863 H   0  0  0  0  0  0
  -20.9771  -29.8663   21.6462 H   0  0  0  0  0  0
  -26.0087  -38.2676   24.1417 H   0  0  0  0  0  0
  -30.7366  -23.0219   20.3403 H   0  0  0  0  0  0
  -32.2788  -21.1873   20.4180 H   0  0  0  0  0  0
  -27.6269  -20.0243   20.2347 H   0  0  0  0  0  0
  -27.1798  -23.3892   20.9615 H   0  0  0  0  0  0
  -27.4002  -23.4388   19.2655 H   0  0  0  0  0  0
  -28.5254  -16.9318   20.3650 H   0  0  0  0  0  0
  1 25  1  0  0  0
  1 30  2  0  0  0
  1 78  1  0  0  0
  2  3  1  0  0  0
  2 25  1  0  0  0
  2 80  1  0  0  0
  2 81  1  0  0  0
  3  4  1  0  0  0
  3 82  1  0  0  0
  3 83  1  0  0  0
  4  5  1  0  0  0
  4 84  1  0  0  0
  4 85  1  0  0  0
  5  6  1  0  0  0
  5 26  1  0  0  0
  5 86  1  0  0  0
  6 25  1  0  0  0
  6 87  1  0  0  0
  6 88  1  0  0  0
  7  8  2  0  0  0
  7 26  1  0  0  0
  7 29  1  0  0  0
  8  9  1  0  0  0
  8 22  1  0  0  0
  9 10  1  0  0  0
  9 27  2  0  0  0
 10 11  2  0  0  0
 10 15  1  0  0  0
 11 12  1  0  0  0
 11 89  1  0  0  0
 12 13  2  0  0  0
 12 90  1  0  0  0
 13 14  1  0  0  0
 13 31  1  0  0  0
 14 15  2  0  0  0
 14 91  1  0  0  0
 15 92  1  0  0  0
 16 17  2  0  0  0
 16 21  1  0  0  0
 16 31  1  0  0  0
 17 18  1  0  0  0
 17 93  1  0  0  0
 18 19  2  0  0  0
 18 94  1  0  0  0
 19 20  1  0  0  0
 19 24  1  0  0  0
 20 21  2  0  0  0
 20 95  1  0  0  0
 21 23  1  0  0  0
 22 28  1  0  0  0
 22 32  2  0  0  0
 26 27  1  0  0  0
 28 96  1  0  0  0
 28 97  1  0  0  0
 29 98  1  0  0  0
 29 99  1  0  0  0
 33 34  1  0  0  0
 33 66  1  0  0  0
 33 70  2  0  0  0
 34 36  1  0  0  0
 34 59  1  0  0  0
 34100  1  0  0  0
 35 44  2  0  0  0
 35 45  1  0  0  0
 35 68  1  0  0  0
 36 56  1  0  0  0
 36101  1  0  0  0
 37 39  1  0  0  0
 37 47  1  0  0  0
 37 66  1  0  0  0
 37102  1  0  0  0
 38 43  2  0  0  0
 38 46  1  0  0  0
 38 47  1  0  0  0
 39 64  1  0  0  0
 39 67  2  0  0  0
 40 52  1  0  0  0
 40 53  2  0  0  0
 40 58  1  0  0  0
 41103  1  0  0  0
 41104  1  0  0  0
 41105  1  0  0  0
 41 48  1  0  0  0
 42 43  1  0  0  0
 42 66  1  0  0  0
 42106  1  0  0  0
 42107  1  0  0  0
 43 44  1  0  0  0
 44108  1  0  0  0
 45 46  2  0  0  0
 45109  1  0  0  0
 46110  1  0  0  0
 47111  1  0  0  0
 47112  1  0  0  0
 48 56  1  0  0  0
 48 65  1  0  0  0
 48113  1  0  0  0
 49 50  1  0  0  0
 49 53  1  0  0  0
 49 64  1  0  0  0
 49114  1  0  0  0
 50 51  1  0  0  0
 50115  1  0  0  0
 50116  1  0  0  0
 51 52  1  0  0  0
 51117  1  0  0  0
 51118  1  0  0  0
 52119  1  0  0  0
 52120  1  0  0  0
 53 54  1  0  0  0
 54 55  2  0  0  0
 54121  1  0  0  0
 55 57  1  0  0  0
 55122  1  0  0  0
 56 69  2  0  0  0
 57 58  2  0  0  0
 57123  1  0  0  0
 58124  1  0  0  0
 59 60  1  0  0  0
 59 61  1  0  0  0
 59 62  1  0  0  0
 60125  1  0  0  0
 60126  1  0  0  0
 60127  1  0  0  0
 61128  1  0  0  0
 61129  1  0  0  0
 61130  1  0  0  0
 62131  1  0  0  0
 62132  1  0  0  0
 62133  1  0  0  0
 63 65  1  0  0  0
 63134  1  0  0  0
 63135  1  0  0  0
 63136  1  0  0  0
 64137  1  0  0  0
 65138  1  0  0  0
 68 77  1  0  0  0
 71 72  2  0  0  0
 71 74  1  0  0  0
 71139  1  0  0  0
 72 76  1  0  0  0
 72140  1  0  0  0
 73 74  2  0  0  0
 73 75  1  0  0  0
 73141  1  0  0  0
 74 77  1  0  0  0
 75 76  2  0  0  0
 75 78  1  0  0  0
 76 79  1  0  0  0
 77142  1  0  0  0
 77143  1  0  0  0
 78144  1  0  0  0
M  ISO  4   1 100  68 101  77 101  78 100
M  END
> <chiral flag>
0

> <version>
0

> <s_m_source_file>
/data/baiqing/PycharmProjects/Reinvent-master-3.2/result/LINK_invent/BTK/process_docking_weight1_custom_sum_contain_oxygen_bond_distance_aromatic_linkinvent_7_9_3/rearranged_h_0136.sdf

> <i_m_source_file_index>
75

> <r_mmod_Potential_Energy-OPLS-2005>
2799.751953125

> <r_mmod_Stretch_Energy-OPLS-2005>
1267.00988769531

> <r_mmod_Bend_Energy-OPLS-2005>
649.981872558594

> <r_mmod_Torsional_Energy-OPLS-2005>
222.998062133789

> <r_mmod_Improper_Torsional_Energy-OPLS-2005>
4.10822296142578

> <r_mmod_Van_der_Waal_Energy-OPLS-2005>
132.290893554688

> <r_mmod_Electrostatic_Energy-OPLS-2005>
-362.683471679688

> <r_mmod_Solvation_Energy-OPLS-2005>
-221.141159057617

> <b_mmod_Minimization_Converged-OPLS-2005>
0

> <r_mmod_RMS_Derivative-OPLS-2005>
1.11031103134155

$$$$
78
                    3D
 Structure written by MMmdl.
166175  0  0  1  0            999 V2000
  -30.6804  -14.5923   20.4751 C   0  0  0  0  0  0
  -30.4364  -12.3590   19.4414 C   0  0  0  0  0  0
  -29.4973  -12.4780   18.2222 C   0  0  0  0  0  0
  -28.0326  -12.3127   18.6580 C   0  0  0  0  0  0
  -27.6608  -13.2097   19.8662 C   0  0  2  0  0  0
  -28.7083  -13.0842   20.9981 C   0  0  0  0  0  0
  -25.2618  -13.8168   20.5708 C   0  0  0  0  0  0
  -24.1856  -13.0453   20.9186 C   0  0  0  0  0  0
  -24.6419  -11.6917   20.8758 C   0  0  0  0  0  0
  -23.9077  -10.4312   21.0420 C   0  0  0  0  0  0
  -24.3630   -9.4225   21.9201 C   0  0  0  0  0  0
  -23.6301   -8.2268   22.0774 C   0  0  0  0  0  0
  -22.4290   -8.0302   21.3561 C   0  0  0  0  0  0
  -21.9930   -9.0272   20.4653 C   0  0  0  0  0  0
  -22.7261  -10.2150   20.3063 C   0  0  0  0  0  0
  -21.6865   -6.0757   22.5291 C   0  0  0  0  0  0
  -21.4004   -6.5645   23.8231 C   0  0  0  0  0  0
  -21.3658   -5.6791   24.9183 C   0  0  0  0  0  0
  -21.6040   -4.3056   24.7230 C   0  0  0  0  0  0
  -21.8818   -3.8155   23.4348 C   0  0  0  0  0  0
  -21.9195   -4.6977   22.3406 C   0  0  0  0  0  0
  -22.7898  -13.5263   21.1800 C   0  0  0  0  0  0
  -22.1673   -4.2176   21.0985 F   0  0  0  0  0  0
  -21.5629   -3.4531   25.7735 F   0  0  0  0  0  0
  -30.0356  -13.3851   20.4281 N   0  0  0  0  0  0
  -26.3039  -12.9346   20.3363 N   0  0  0  0  0  0
  -25.9344  -11.6514   20.5806 N   0  0  0  0  0  0
  -22.0480  -12.8295   22.0312 N   0  0  0  0  0  0
  -25.4229  -15.1904   20.4119 N   0  0  0  0  0  0
  -31.8296  -14.7378   20.0589 O   0  0  0  0  0  0
  -21.6647   -6.8904   21.4266 O   0  0  0  0  0  0
  -22.3608  -14.5591   20.6640 O   0  0  0  0  0  0
  -24.6239  -31.8579   23.1982 C   0  0  0  0  0  0
  -25.9093  -32.4767   23.8301 C   0  0  1  0  0  0
  -27.2618  -27.3425   20.1119 C   0  0  0  0  0  0
  -25.5941  -33.8569   24.2251 N   0  0  0  0  0  0
  -23.4175  -30.4733   21.5411 C   0  0  2  0  0  0
  -24.8728  -28.9232   20.1119 C   0  0  0  0  0  0
  -22.7452  -29.4513   22.4914 C   0  0  0  0  0  0
  -18.0309  -28.1289   22.8491 C   0  0  0  0  0  0
  -24.1484  -36.7288   23.2639 C   0  0  0  0  0  0
  -25.9565  -30.7908   21.3700 C   0  0  0  0  0  0
  -26.0359  -29.4188   20.7156 C   0  0  0  0  0  0
  -27.2264  -28.6410   20.7037 C   0  0  0  0  0  0
  -26.0734  -26.8809   19.4995 C   0  0  0  0  0  0
  -24.8926  -27.6586   19.4962 C   0  0  0  0  0  0
  -23.6382  -29.8027   20.1577 C   0  0  0  0  0  0
  -25.4108  -36.3077   24.0323 C   0  0  1  0  0  0
  -20.5895  -28.3543   23.1287 C   0  0  2  0  0  0
  -20.6725  -26.9210   22.5482 C   0  0  0  0  0  0
  -19.5676  -26.6159   21.5328 C   0  0  0  0  0  0
  -18.1927  -26.7763   22.1802 C   0  0  0  0  0  0
  -19.1566  -28.8737   23.2881 C   0  0  0  0  0  0
  -18.9516  -30.1341   23.8909 C   0  0  0  0  0  0
  -17.6521  -30.6469   24.0586 C   0  0  0  0  0  0
  -25.9052  -34.9455   23.5078 C   0  0  0  0  0  0
  -16.5402  -29.9011   23.6311 C   0  0  0  0  0  0
  -16.7310  -28.6430   23.0352 C   0  0  0  0  0  0
  -26.4488  -31.6594   25.0690 C   0  0  0  0  0  0
  -25.3699  -31.3736   26.1394 C   0  0  0  0  0  0
  -27.0367  -30.3018   24.6172 C   0  0  0  0  0  0
  -27.6031  -32.4343   25.7496 C   0  0  0  0  0  0
  -27.5572  -37.1805   24.8470 C   0  0  0  0  0  0
  -21.4181  -29.2834   22.3596 N   0  0  0  0  0  0
  -26.4282  -37.3777   23.9416 N   0  0  0  0  0  0
  -24.6843  -31.0570   22.0948 N   0  0  0  0  0  0
  -23.4190  -28.8147   23.3076 O   0  0  0  0  0  0
  -28.4412  -26.5839   20.1418 O   0  0  0  0  0  0
  -26.5594  -34.8918   22.4630 O   0  0  0  0  0  0
  -23.5420  -32.1385   23.7320 O   0  0  0  0  0  0
  -30.2177  -19.3806   23.4454 C   0  0  0  0  0  0
  -30.6752  -18.2294   22.5488 C   0  0  0  0  0  0
  -28.9612  -19.9645   22.7770 C   0  0  0  0  0  0
  -28.4694  -22.8972   21.3536 C   0  0  0  0  0  0
  -30.1563  -23.0909   19.5026 C   0  0  0  0  0  0
  -27.7939  -24.2699   20.9618 C   0  0  0  0  0  0
  -29.9571  -24.6316   19.7739 C   0  0  0  0  0  0
  -29.6408  -18.1551   21.4279 C   0  0  2  0  0  0
  -29.1686  -22.0949   20.2068 C   0  0  1  0  0  0
  -29.0527  -19.6455   21.2635 C   0  0  1  0  0  0
  -28.4898  -25.1329   19.8728 C   0  0  2  0  0  0
  -30.0518  -17.1065   20.3256 C   0  0  0  0  0  0
  -29.9098  -15.6739   20.7764 N   0  0  0  0  0  0
  -29.8280  -20.7435   20.5532 N   0  3  0  0  0  0
  -31.4721  -12.4632   19.1118 H   0  0  0  0  0  0
  -30.3661  -11.3605   19.8789 H   0  0  0  0  0  0
  -29.7517  -11.7178   17.4810 H   0  0  0  0  0  0
  -29.6308  -13.4442   17.7342 H   0  0  0  0  0  0
  -27.8995  -11.2642   18.9308 H   0  0  0  0  0  0
  -27.3547  -12.4902   17.8218 H   0  0  0  0  0  0
  -27.6792  -14.2402   19.5101 H   0  0  0  0  0  0
  -28.6968  -12.0794   21.4252 H   0  0  0  0  0  0
  -28.4513  -13.7568   21.8182 H   0  0  0  0  0  0
  -25.2780   -9.5724   22.4769 H   0  0  0  0  0  0
  -24.0018   -7.4686   22.7516 H   0  0  0  0  0  0
  -21.0862   -8.8805   19.8958 H   0  0  0  0  0  0
  -22.3735  -10.9701   19.6170 H   0  0  0  0  0  0
  -21.1983   -7.6153   23.9749 H   0  0  0  0  0  0
  -21.1473   -6.0508   25.9098 H   0  0  0  0  0  0
  -22.0586   -2.7621   23.2834 H   0  0  0  0  0  0
  -22.4072  -11.9999   22.4814 H   0  0  0  0  0  0
  -21.1078  -13.1360   22.2380 H   0  0  0  0  0  0
  -24.6398  -15.8244   20.5292 H   0  0  0  0  0  0
  -26.2552  -15.6525   20.0695 H   0  0  0  0  0  0
  -26.7170  -32.5442   23.1069 H   0  0  0  0  0  0
  -25.0205  -33.9707   25.0481 H   0  0  0  0  0  0
  -22.7095  -31.2916   21.3926 H   0  0  0  0  0  0
  -23.3751  -35.9628   23.3318 H   0  0  0  0  0  0
  -24.3568  -36.8889   22.2051 H   0  0  0  0  0  0
  -23.7226  -37.6486   23.6649 H   0  0  0  0  0  0
  -26.0821  -31.5487   20.5971 H   0  0  0  0  0  0
  -26.8391  -30.8430   21.9974 H   0  0  0  0  0  0
  -28.1217  -29.0248   21.1711 H   0  0  0  0  0  0
  -26.0408  -25.9130   19.0240 H   0  0  0  0  0  0
  -24.0022  -27.2740   19.0179 H   0  0  0  0  0  0
  -23.7671  -30.5802   19.4051 H   0  0  0  0  0  0
  -22.7631  -29.2327   19.8441 H   0  0  0  0  0  0
  -25.1294  -36.1928   25.0817 H   0  0  0  0  0  0
  -20.9990  -28.3062   24.1425 H   0  0  0  0  0  0
  -20.5644  -26.2158   23.3759 H   0  0  0  0  0  0
  -21.6520  -26.7100   22.1197 H   0  0  0  0  0  0
  -19.6829  -25.6035   21.1410 H   0  0  0  0  0  0
  -19.6579  -27.2863   20.6780 H   0  0  0  0  0  0
  -17.4136  -26.6328   21.4307 H   0  0  0  0  0  0
  -18.0431  -26.0073   22.9407 H   0  0  0  0  0  0
  -19.8007  -30.7096   24.2340 H   0  0  0  0  0  0
  -17.5073  -31.6111   24.5246 H   0  0  0  0  0  0
  -15.5435  -30.2919   23.7624 H   0  0  0  0  0  0
  -15.8698  -28.0703   22.7164 H   0  0  0  0  0  0
  -24.5849  -30.7143   25.7658 H   0  0  0  0  0  0
  -24.8940  -32.2932   26.4816 H   0  0  0  0  0  0
  -25.7978  -30.8856   27.0159 H   0  0  0  0  0  0
  -26.2955  -29.6734   24.1209 H   0  0  0  0  0  0
  -27.4078  -29.7299   25.4688 H   0  0  0  0  0  0
  -27.8815  -30.4306   23.9398 H   0  0  0  0  0  0
  -27.2599  -33.3612   26.2098 H   0  0  0  0  0  0
  -28.3842  -32.6942   25.0342 H   0  0  0  0  0  0
  -28.0707  -31.8458   26.5401 H   0  0  0  0  0  0
  -28.2588  -38.0098   24.7508 H   0  0  0  0  0  0
  -28.1056  -36.2624   24.6319 H   0  0  0  0  0  0
  -27.2286  -37.1492   25.8868 H   0  0  0  0  0  0
  -20.9358  -29.8304   21.6599 H   0  0  0  0  0  0
  -26.0162  -38.2852   24.1427 H   0  0  0  0  0  0
  -31.0078  -20.1298   23.5215 H   0  0  0  0  0  0
  -30.0058  -19.0400   24.4621 H   0  0  0  0  0  0
  -30.7392  -17.2860   23.0931 H   0  0  0  0  0  0
  -31.6689  -18.4272   22.1408 H   0  0  0  0  0  0
  -28.8431  -21.0061   23.0435 H   0  0  0  0  0  0
  -28.0834  -19.4554   23.1772 H   0  0  0  0  0  0
  -27.6894  -22.2859   21.8026 H   0  0  0  0  0  0
  -29.2069  -23.0960   22.1342 H   0  0  0  0  0  0
  -31.1825  -22.8539   19.7889 H   0  0  0  0  0  0
  -30.1179  -22.9172   18.4273 H   0  0  0  0  0  0
  -27.7198  -24.8678   21.8716 H   0  0  0  0  0  0
  -26.7639  -24.0973   20.6505 H   0  0  0  0  0  0
  -30.4882  -25.2080   19.0158 H   0  0  0  0  0  0
  -30.4601  -24.8788   20.7103 H   0  0  0  0  0  0
  -28.7850  -17.6467   21.8727 H   0  0  0  0  0  0
  -28.3850  -21.8627   19.4841 H   0  0  0  0  0  0
  -28.0566  -19.5895   20.8174 H   0  0  0  0  0  0
  -28.0263  -24.9332   18.9040 H   0  0  0  0  0  0
  -29.3988  -17.2116   19.4581 H   0  0  0  0  0  0
  -31.0653  -17.3084   19.9735 H   0  0  0  0  0  0
  -29.0201  -15.4355   21.1850 H   0  0  0  0  0  0
  -30.6721  -20.9055   21.0778 H   0  0  0  0  0  0
  -30.1155  -20.3461   19.6718 H   0  0  0  0  0  0
  1 25  1  0  0  0
  1 30  2  0  0  0
  1 83  1  0  0  0
  2  3  1  0  0  0
  2 25  1  0  0  0
  2 85  1  0  0  0
  2 86  1  0  0  0
  3  4  1  0  0  0
  3 87  1  0  0  0
  3 88  1  0  0  0
  4  5  1  0  0  0
  4 89  1  0  0  0
  4 90  1  0  0  0
  5  6  1  0  0  0
  5 26  1  0  0  0
  5 91  1  0  0  0
  6 25  1  0  0  0
  6 92  1  0  0  0
  6 93  1  0  0  0
  7  8  2  0  0  0
  7 26  1  0  0  0
  7 29  1  0  0  0
  8  9  1  0  0  0
  8 22  1  0  0  0
  9 10  1  0  0  0
  9 27  2  0  0  0
 10 11  2  0  0  0
 10 15  1  0  0  0
 11 12  1  0  0  0
 11 94  1  0  0  0
 12 13  2  0  0  0
 12 95  1  0  0  0
 13 14  1  0  0  0
 13 31  1  0  0  0
 14 15  2  0  0  0
 14 96  1  0  0  0
 15 97  1  0  0  0
 16 17  2  0  0  0
 16 21  1  0  0  0
 16 31  1  0  0  0
 17 18  1  0  0  0
 17 98  1  0  0  0
 18 19  2  0  0  0
 18 99  1  0  0  0
 19 20  1  0  0  0
 19 24  1  0  0  0
 20 21  2  0  0  0
 20100  1  0  0  0
 21 23  1  0  0  0
 22 28  1  0  0  0
 22 32  2  0  0  0
 26 27  1  0  0  0
 28101  1  0  0  0
 28102  1  0  0  0
 29103  1  0  0  0
 29104  1  0  0  0
 33 34  1  0  0  0
 33 66  1  0  0  0
 33 70  2  0  0  0
 34 36  1  0  0  0
 34 59  1  0  0  0
 34105  1  0  0  0
 35 44  2  0  0  0
 35 45  1  0  0  0
 35 68  1  0  0  0
 36 56  1  0  0  0
 36106  1  0  0  0
 37 39  1  0  0  0
 37 47  1  0  0  0
 37 66  1  0  0  0
 37107  1  0  0  0
 38 43  2  0  0  0
 38 46  1  0  0  0
 38 47  1  0  0  0
 39 64  1  0  0  0
 39 67  2  0  0  0
 40 52  1  0  0  0
 40 53  2  0  0  0
 40 58  1  0  0  0
 41108  1  0  0  0
 41109  1  0  0  0
 41110  1  0  0  0
 41 48  1  0  0  0
 42 43  1  0  0  0
 42 66  1  0  0  0
 42111  1  0  0  0
 42112  1  0  0  0
 43 44  1  0  0  0
 44113  1  0  0  0
 45 46  2  0  0  0
 45114  1  0  0  0
 46115  1  0  0  0
 47116  1  0  0  0
 47117  1  0  0  0
 48 56  1  0  0  0
 48 65  1  0  0  0
 48118  1  0  0  0
 49 50  1  0  0  0
 49 53  1  0  0  0
 49 64  1  0  0  0
 49119  1  0  0  0
 50 51  1  0  0  0
 50120  1  0  0  0
 50121  1  0  0  0
 51 52  1  0  0  0
 51122  1  0  0  0
 51123  1  0  0  0
 52124  1  0  0  0
 52125  1  0  0  0
 53 54  1  0  0  0
 54 55  2  0  0  0
 54126  1  0  0  0
 55 57  1  0  0  0
 55127  1  0  0  0
 56 69  2  0  0  0
 57 58  2  0  0  0
 57128  1  0  0  0
 58129  1  0  0  0
 59 60  1  0  0  0
 59 61  1  0  0  0
 59 62  1  0  0  0
 60130  1  0  0  0
 60131  1  0  0  0
 60132  1  0  0  0
 61133  1  0  0  0
 61134  1  0  0  0
 61135  1  0  0  0
 62136  1  0  0  0
 62137  1  0  0  0
 62138  1  0  0  0
 63 65  1  0  0  0
 63139  1  0  0  0
 63140  1  0  0  0
 63141  1  0  0  0
 64142  1  0  0  0
 65143  1  0  0  0
 68 81  1  0  0  0
 71 72  1  0  0  0
 71 73  1  0  0  0
 71144  1  0  0  0
 71145  1  0  0  0
 72 78  1  0  0  0
 72146  1  0  0  0
 72147  1  0  0  0
 73 80  1  0  0  0
 73148  1  0  0  0
 73149  1  0  0  0
 74 76  1  0  0  0
 74 79  1  0  0  0
 74150  1  0  0  0
 74151  1  0  0  0
 75 77  1  0  0  0
 75 79  1  0  0  0
 75152  1  0  0  0
 75153  1  0  0  0
 76 81  1  0  0  0
 76154  1  0  0  0
 76155  1  0  0  0
 77 81  1  0  0  0
 77156  1  0  0  0
 77157  1  0  0  0
 78 80  1  0  0  0
 78 82  1  0  0  0
 78158  1  0  0  0
 79 84  1  0  0  0
 79159  1  0  0  0
 80 84  1  0  0  0
 80160  1  0  0  0
 81161  1  0  0  0
 82 83  1  0  0  0
 82162  1  0  0  0
 82163  1  0  0  0
 83164  1  0  0  0
 84165  1  0  0  0
 84166  1  0  0  0
M  CHG  1  84   1
M  ISO  4   1 100  68 101  81 101  83 100
M  END
> <chiral flag>
0

> <version>
0

> <s_m_source_file>
/data/baiqing/PycharmProjects/Reinvent-master-3.2/result/LINK_invent/BTK/process_docking_weight1_custom_sum_contain_oxygen_bond_distance_aromatic_linkinvent_7_9_3/rearranged_h_0136.sdf

> <i_m_source_file_index>
76

> <r_mmod_Potential_Energy-OPLS-2005>
73.6106643676758

> <r_mmod_Stretch_Energy-OPLS-2005>
82.1924819946289

> <r_mmod_Bend_Energy-OPLS-2005>
220.022308349609

> <r_mmod_Torsional_Energy-OPLS-2005>
328.756561279297

> <r_mmod_Improper_Torsional_Energy-OPLS-2005>
6.07589673995972

> <r_mmod_Van_der_Waal_Energy-OPLS-2005>
126.360862731934

> <r_mmod_Electrostatic_Energy-OPLS-2005>
-264.690673828125

> <r_mmod_Solvation_Energy-OPLS-2005>
-461.556518554688

> <b_mmod_Minimization_Converged-OPLS-2005>
0

> <r_mmod_RMS_Derivative-OPLS-2005>
5.47717142105103

$$$$
79
                    3D
 Structure written by MMmdl.
169179  0  0  1  0            999 V2000
  -30.5285  -15.1360   20.4073 C   0  0  0  0  0  0
  -30.4422  -12.7189   19.5173 C   0  0  0  0  0  0
  -29.5331  -12.5436   18.2767 C   0  0  0  0  0  0
  -28.0763  -12.2971   18.7039 C   0  0  0  0  0  0
  -27.6242  -13.2627   19.8278 C   0  0  2  0  0  0
  -28.6651  -13.3684   20.9628 C   0  0  0  0  0  0
  -25.2458  -13.8244   20.5728 C   0  0  0  0  0  0
  -24.1803  -13.0461   20.9252 C   0  0  0  0  0  0
  -24.6435  -11.6943   20.8781 C   0  0  0  0  0  0
  -23.9133  -10.4300   21.0425 C   0  0  0  0  0  0
  -24.3666   -9.4201   21.9205 C   0  0  0  0  0  0
  -23.6310   -8.2250   22.0764 C   0  0  0  0  0  0
  -22.4286   -8.0311   21.3548 C   0  0  0  0  0  0
  -21.9954   -9.0293   20.4642 C   0  0  0  0  0  0
  -22.7316  -10.2150   20.3055 C   0  0  0  0  0  0
  -21.6843   -6.0771   22.5292 C   0  0  0  0  0  0
  -21.4002   -6.5663   23.8230 C   0  0  0  0  0  0
  -21.3648   -5.6802   24.9185 C   0  0  0  0  0  0
  -21.6042   -4.3066   24.7227 C   0  0  0  0  0  0
  -21.8813   -3.8172   23.4341 C   0  0  0  0  0  0
  -21.9178   -4.6999   22.3405 C   0  0  0  0  0  0
  -22.7813  -13.5213   21.1888 C   0  0  0  0  0  0
  -22.1647   -4.2196   21.0979 F   0  0  0  0  0  0
  -21.5627   -3.4536   25.7732 F   0  0  0  0  0  0
  -29.9170  -13.8567   20.3565 N   0  0  0  0  0  0
  -26.2887  -12.9498   20.3212 N   0  0  0  0  0  0
  -25.9370  -11.6619   20.5736 N   0  0  0  0  0  0
  -22.0427  -12.8178   22.0382 N   0  0  0  0  0  0
  -25.4111  -15.1993   20.4198 N   0  0  0  0  0  0
  -31.7110  -15.1199   20.0412 O   0  0  0  0  0  0
  -21.6625   -6.8922   21.4255 O   0  0  0  0  0  0
  -22.3495  -14.5517   20.6718 O   0  0  0  0  0  0
  -24.6602  -31.8249   23.1712 C   0  0  0  0  0  0
  -25.9291  -32.4604   23.8143 C   0  0  1  0  0  0
  -27.2159  -26.9571   20.1958 C   0  0  0  0  0  0
  -25.5981  -33.8422   24.2070 N   0  0  0  0  0  0
  -23.4718  -30.4416   21.5186 C   0  0  2  0  0  0
  -24.9259  -28.8380   20.1103 C   0  0  0  0  0  0
  -22.7661  -29.4453   22.4752 C   0  0  0  0  0  0
  -18.0326  -28.1399   22.8454 C   0  0  0  0  0  0
  -24.1485  -36.7214   23.2648 C   0  0  0  0  0  0
  -26.0400  -30.6483   21.3893 C   0  0  0  0  0  0
  -26.1091  -29.2392   20.7428 C   0  0  0  0  0  0
  -27.2512  -28.3225   20.7595 C   0  0  0  0  0  0
  -26.0042  -26.7048   19.5101 C   0  0  0  0  0  0
  -24.8994  -27.5919   19.4690 C   0  0  0  0  0  0
  -23.7074  -29.7597   20.1443 C   0  0  0  0  0  0
  -25.4116  -36.2976   24.0306 C   0  0  1  0  0  0
  -20.5958  -28.3718   23.1190 C   0  0  2  0  0  0
  -20.6808  -26.9405   22.5374 C   0  0  0  0  0  0
  -19.5781  -26.6357   21.5196 C   0  0  0  0  0  0
  -18.1959  -26.7933   22.1605 C   0  0  0  0  0  0
  -19.1594  -28.8879   23.2812 C   0  0  0  0  0  0
  -18.9512  -30.1469   23.8845 C   0  0  0  0  0  0
  -17.6511  -30.6593   24.0556 C   0  0  0  0  0  0
  -25.9080  -34.9370   23.5005 C   0  0  0  0  0  0
  -16.5400  -29.9076   23.6367 C   0  0  0  0  0  0
  -16.7309  -28.6504   23.0371 C   0  0  0  0  0  0
  -26.4561  -31.6541   25.0657 C   0  0  0  0  0  0
  -25.3690  -31.3786   26.1309 C   0  0  0  0  0  0
  -27.0451  -30.2930   24.6321 C   0  0  0  0  0  0
  -27.6055  -32.4342   25.7465 C   0  0  0  0  0  0
  -27.5549  -37.1759   24.8475 C   0  0  0  0  0  0
  -21.4329  -29.3037   22.3540 N   0  0  0  0  0  0
  -26.4262  -37.3706   23.9420 N   0  0  0  0  0  0
  -24.7465  -30.9967   22.0812 N   0  0  0  0  0  0
  -23.4244  -28.8007   23.2956 O   0  0  0  0  0  0
  -28.2052  -25.8484   20.2897 O   0  0  0  0  0  0
  -26.5684  -34.8913   22.4588 O   0  0  0  0  0  0
  -23.5679  -32.1173   23.6842 O   0  0  0  0  0  0
  -30.2037  -20.7567   19.7477 C   0  0  0  0  0  0
  -29.7673  -22.1750   19.7447 C   0  0  0  0  0  0
  -27.9266  -21.5407   20.9656 C   0  0  0  0  0  0
  -29.5649  -19.5796   20.3494 C   0  0  0  0  0  0
  -28.5701  -22.7144   20.3552 C   0  0  0  0  0  0
  -28.3618  -20.1078   20.9821 C   0  0  0  0  0  0
  -24.7387  -18.7446   23.4105 C   0  0  0  0  0  0
  -26.1813  -18.2359   23.4859 C   0  0  0  0  0  0
  -25.1323  -19.4696   22.1152 C   0  0  0  0  0  0
  -29.5808  -16.5201   22.1589 C   0  0  0  0  0  0
  -30.5484  -17.4858   22.9051 C   0  0  0  0  0  0
  -31.7184  -18.1047   20.7828 C   0  0  0  0  0  0
  -30.2652  -17.9712   20.2430 C   0  0  1  0  0  0
  -26.5779  -19.4466   22.6269 C   0  0  0  0  0  0
  -27.8042  -24.2709   20.1668 C   0  0  0  0  0  0
  -29.8772  -16.4298   20.7142 N   0  0  0  0  0  0
  -27.5749  -19.1349   21.6131 N   0  0  0  0  0  0
  -31.8437  -17.6702   22.2003 N   0  3  0  0  0  0
  -31.4663  -12.8901   19.1848 H   0  0  0  0  0  0
  -30.4849  -11.7952   20.0970 H   0  0  0  0  0  0
  -29.8869  -11.7122   17.6636 H   0  0  0  0  0  0
  -29.5888  -13.4364   17.6500 H   0  0  0  0  0  0
  -28.0094  -11.2698   19.0629 H   0  0  0  0  0  0
  -27.4102  -12.3635   17.8436 H   0  0  0  0  0  0
  -27.5611  -14.2441   19.3568 H   0  0  0  0  0  0
  -28.8085  -12.3994   21.4444 H   0  0  0  0  0  0
  -28.3129  -14.0443   21.7393 H   0  0  0  0  0  0
  -25.2813   -9.5662   22.4781 H   0  0  0  0  0  0
  -24.0010   -7.4631   22.7483 H   0  0  0  0  0  0
  -21.0886   -8.8849   19.8926 H   0  0  0  0  0  0
  -22.3821  -10.9710   19.6152 H   0  0  0  0  0  0
  -21.1986   -7.6167   23.9759 H   0  0  0  0  0  0
  -21.1461   -6.0517   25.9089 H   0  0  0  0  0  0
  -22.0589   -2.7641   23.2826 H   0  0  0  0  0  0
  -22.4009  -11.9835   22.4791 H   0  0  0  0  0  0
  -21.1025  -13.1189   22.2505 H   0  0  0  0  0  0
  -24.6470  -15.8494   20.5638 H   0  0  0  0  0  0
  -26.2562  -15.6474   20.0918 H   0  0  0  0  0  0
  -26.7326  -32.5174   23.0824 H   0  0  0  0  0  0
  -25.0190  -33.9506   25.0268 H   0  0  0  0  0  0
  -22.7808  -31.2717   21.3504 H   0  0  0  0  0  0
  -23.3768  -35.9530   23.3291 H   0  0  0  0  0  0
  -24.3546  -36.8873   22.2066 H   0  0  0  0  0  0
  -23.7222  -37.6397   23.6702 H   0  0  0  0  0  0
  -26.2057  -31.3812   20.5975 H   0  0  0  0  0  0
  -26.9099  -30.7122   22.0312 H   0  0  0  0  0  0
  -28.1461  -28.6317   21.2820 H   0  0  0  0  0  0
  -25.8620  -25.7532   19.0224 H   0  0  0  0  0  0
  -24.0066  -27.2795   18.9465 H   0  0  0  0  0  0
  -23.8480  -30.5280   19.3820 H   0  0  0  0  0  0
  -22.8190  -29.2056   19.8360 H   0  0  0  0  0  0
  -25.1302  -36.1770   25.0796 H   0  0  0  0  0  0
  -21.0058  -28.3310   24.1313 H   0  0  0  0  0  0
  -20.5698  -26.2332   23.3592 H   0  0  0  0  0  0
  -21.6666  -26.7374   22.1172 H   0  0  0  0  0  0
  -19.6947  -25.6264   21.1235 H   0  0  0  0  0  0
  -19.6752  -27.3182   20.6743 H   0  0  0  0  0  0
  -17.4229  -26.6705   21.4004 H   0  0  0  0  0  0
  -18.0332  -26.0068   22.8995 H   0  0  0  0  0  0
  -19.8000  -30.7284   24.2196 H   0  0  0  0  0  0
  -17.5084  -31.6288   24.5143 H   0  0  0  0  0  0
  -15.5408  -30.2978   23.7718 H   0  0  0  0  0  0
  -15.8702  -28.0807   22.7124 H   0  0  0  0  0  0
  -24.5897  -30.7109   25.7601 H   0  0  0  0  0  0
  -24.8863  -32.3010   26.4569 H   0  0  0  0  0  0
  -25.7911  -30.9053   27.0182 H   0  0  0  0  0  0
  -26.3116  -29.6621   24.1297 H   0  0  0  0  0  0
  -27.4031  -29.7247   25.4912 H   0  0  0  0  0  0
  -27.9009  -30.4157   23.9676 H   0  0  0  0  0  0
  -27.2637  -33.3716   26.1847 H   0  0  0  0  0  0
  -28.3964  -32.6771   25.0359 H   0  0  0  0  0  0
  -28.0586  -31.8582   26.5536 H   0  0  0  0  0  0
  -28.2543  -38.0077   24.7496 H   0  0  0  0  0  0
  -28.1057  -36.2597   24.6313 H   0  0  0  0  0  0
  -27.2257  -37.1398   25.8876 H   0  0  0  0  0  0
  -20.9560  -29.8770   21.6722 H   0  0  0  0  0  0
  -26.0118  -38.2755   24.1476 H   0  0  0  0  0  0
  -31.1237  -20.5746   19.2107 H   0  0  0  0  0  0
  -30.3850  -22.8753   19.1961 H   0  0  0  0  0  0
  -26.9744  -21.7527   21.4291 H   0  0  0  0  0  0
  -24.4932  -19.4224   24.2301 H   0  0  0  0  0  0
  -23.9853  -17.9633   23.2898 H   0  0  0  0  0  0
  -26.2992  -17.2667   22.9973 H   0  0  0  0  0  0
  -26.6073  -18.2328   24.4900 H   0  0  0  0  0  0
  -24.7016  -20.4647   22.0000 H   0  0  0  0  0  0
  -24.9609  -18.8546   21.2280 H   0  0  0  0  0  0
  -28.5397  -16.7843   22.3263 H   0  0  0  0  0  0
  -29.6820  -15.5520   22.6530 H   0  0  0  0  0  0
  -30.7306  -17.1245   23.9172 H   0  0  0  0  0  0
  -30.0805  -18.4650   23.0171 H   0  0  0  0  0  0
  -32.1224  -19.1067   20.6589 H   0  0  0  0  0  0
  -32.3904  -17.4827   20.1931 H   0  0  0  0  0  0
  -30.3566  -17.8624   19.1618 H   0  0  0  0  0  0
  -26.8199  -20.3117   23.2480 H   0  0  0  0  0  0
  -26.9388  -24.1900   20.8253 H   0  0  0  0  0  0
  -27.3843  -24.1883   19.1653 H   0  0  0  0  0  0
  -27.8325  -18.1605   21.5016 H   0  0  0  0  0  0
  -32.3586  -16.8022   22.2181 H   0  0  0  0  0  0
  -32.4088  -18.3360   22.7043 H   0  0  0  0  0  0
  1 25  1  0  0  0
  1 30  2  0  0  0
  1 86  1  0  0  0
  2  3  1  0  0  0
  2 25  1  0  0  0
  2 89  1  0  0  0
  2 90  1  0  0  0
  3  4  1  0  0  0
  3 91  1  0  0  0
  3 92  1  0  0  0
  4  5  1  0  0  0
  4 93  1  0  0  0
  4 94  1  0  0  0
  5  6  1  0  0  0
  5 26  1  0  0  0
  5 95  1  0  0  0
  6 25  1  0  0  0
  6 96  1  0  0  0
  6 97  1  0  0  0
  7  8  2  0  0  0
  7 26  1  0  0  0
  7 29  1  0  0  0
  8  9  1  0  0  0
  8 22  1  0  0  0
  9 10  1  0  0  0
  9 27  2  0  0  0
 10 11  2  0  0  0
 10 15  1  0  0  0
 11 12  1  0  0  0
 11 98  1  0  0  0
 12 13  2  0  0  0
 12 99  1  0  0  0
 13 14  1  0  0  0
 13 31  1  0  0  0
 14 15  2  0  0  0
 14100  1  0  0  0
 15101  1  0  0  0
 16 17  2  0  0  0
 16 21  1  0  0  0
 16 31  1  0  0  0
 17 18  1  0  0  0
 17102  1  0  0  0
 18 19  2  0  0  0
 18103  1  0  0  0
 19 20  1  0  0  0
 19 24  1  0  0  0
 20 21  2  0  0  0
 20104  1  0  0  0
 21 23  1  0  0  0
 22 28  1  0  0  0
 22 32  2  0  0  0
 26 27  1  0  0  0
 28105  1  0  0  0
 28106  1  0  0  0
 29107  1  0  0  0
 29108  1  0  0  0
 33 34  1  0  0  0
 33 66  1  0  0  0
 33 70  2  0  0  0
 34 36  1  0  0  0
 34 59  1  0  0  0
 34109  1  0  0  0
 35 44  2  0  0  0
 35 45  1  0  0  0
 35 68  1  0  0  0
 36 56  1  0  0  0
 36110  1  0  0  0
 37 39  1  0  0  0
 37 47  1  0  0  0
 37 66  1  0  0  0
 37111  1  0  0  0
 38 43  2  0  0  0
 38 46  1  0  0  0
 38 47  1  0  0  0
 39 64  1  0  0  0
 39 67  2  0  0  0
 40 52  1  0  0  0
 40 53  2  0  0  0
 40 58  1  0  0  0
 41112  1  0  0  0
 41113  1  0  0  0
 41114  1  0  0  0
 41 48  1  0  0  0
 42 43  1  0  0  0
 42 66  1  0  0  0
 42115  1  0  0  0
 42116  1  0  0  0
 43 44  1  0  0  0
 44117  1  0  0  0
 45 46  2  0  0  0
 45118  1  0  0  0
 46119  1  0  0  0
 47120  1  0  0  0
 47121  1  0  0  0
 48 56  1  0  0  0
 48 65  1  0  0  0
 48122  1  0  0  0
 49 50  1  0  0  0
 49 53  1  0  0  0
 49 64  1  0  0  0
 49123  1  0  0  0
 50 51  1  0  0  0
 50124  1  0  0  0
 50125  1  0  0  0
 51 52  1  0  0  0
 51126  1  0  0  0
 51127  1  0  0  0
 52128  1  0  0  0
 52129  1  0  0  0
 53 54  1  0  0  0
 54 55  2  0  0  0
 54130  1  0  0  0
 55 57  1  0  0  0
 55131  1  0  0  0
 56 69  2  0  0  0
 57 58  2  0  0  0
 57132  1  0  0  0
 58133  1  0  0  0
 59 60  1  0  0  0
 59 61  1  0  0  0
 59 62  1  0  0  0
 60134  1  0  0  0
 60135  1  0  0  0
 60136  1  0  0  0
 61137  1  0  0  0
 61138  1  0  0  0
 61139  1  0  0  0
 62140  1  0  0  0
 62141  1  0  0  0
 62142  1  0  0  0
 63 65  1  0  0  0
 63143  1  0  0  0
 63144  1  0  0  0
 63145  1  0  0  0
 64146  1  0  0  0
 65147  1  0  0  0
 68 85  1  0  0  0
 71 72  2  0  0  0
 71 74  1  0  0  0
 71148  1  0  0  0
 72 75  1  0  0  0
 72149  1  0  0  0
 73 75  2  0  0  0
 73 76  1  0  0  0
 73150  1  0  0  0
 74 76  2  0  0  0
 74 83  1  0  0  0
 75 85  1  0  0  0
 76 87  1  0  0  0
 77 78  1  0  0  0
 77 79  1  0  0  0
 77151  1  0  0  0
 77152  1  0  0  0
 78 84  1  0  0  0
 78153  1  0  0  0
 78154  1  0  0  0
 79 84  1  0  0  0
 79155  1  0  0  0
 79156  1  0  0  0
 80 81  1  0  0  0
 80 86  1  0  0  0
 80157  1  0  0  0
 80158  1  0  0  0
 81 88  1  0  0  0
 81159  1  0  0  0
 81160  1  0  0  0
 82 83  1  0  0  0
 82 88  1  0  0  0
 82161  1  0  0  0
 82162  1  0  0  0
 83 86  1  0  0  0
 83163  1  0  0  0
 84 87  1  0  0  0
 84164  1  0  0  0
 85165  1  0  0  0
 85166  1  0  0  0
 87167  1  0  0  0
 88168  1  0  0  0
 88169  1  0  0  0
M  CHG  1  88   1
M  ISO  4   1 100  68 101  85 101  86 100
M  END
> <chiral flag>
0

> <version>
0

> <s_m_source_file>
/data/baiqing/PycharmProjects/Reinvent-master-3.2/result/LINK_invent/BTK/process_docking_weight1_custom_sum_contain_oxygen_bond_distance_aromatic_linkinvent_7_9_3/rearranged_h_0136.sdf

> <i_m_source_file_index>
77

> <r_mmod_Potential_Energy-OPLS-2005>
1161.6201171875

> <r_mmod_Stretch_Energy-OPLS-2005>
496.906555175781

> <r_mmod_Bend_Energy-OPLS-2005>
490.185272216797

> <r_mmod_Torsional_Energy-OPLS-2005>
421.165557861328

> <r_mmod_Improper_Torsional_Energy-OPLS-2005>
9.58992385864258

> <r_mmod_Van_der_Waal_Energy-OPLS-2005>
146.162857055664

> <r_mmod_Electrostatic_Energy-OPLS-2005>
-315.665985107422

> <r_mmod_Solvation_Energy-OPLS-2005>
-450.847930908203

> <b_mmod_Minimization_Converged-OPLS-2005>
0

> <r_mmod_RMS_Derivative-OPLS-2005>
4.02238178253174

$$$$
80
                    3D
 Structure written by MMmdl.
172181  0  0  1  0            999 V2000
  -30.8463  -14.2731   20.7524 C   0  0  0  0  0  0
  -30.4091  -12.2852   19.3709 C   0  0  0  0  0  0
  -29.4713  -12.5415   18.1814 C   0  0  0  0  0  0
  -28.0035  -12.3828   18.6102 C   0  0  0  0  0  0
  -27.6687  -13.2055   19.8803 C   0  0  2  0  0  0
  -28.7100  -12.9629   20.9975 C   0  0  0  0  0  0
  -25.2613  -13.8164   20.5694 C   0  0  0  0  0  0
  -24.1851  -13.0444   20.9172 C   0  0  0  0  0  0
  -24.6398  -11.6908   20.8716 C   0  0  0  0  0  0
  -23.9060  -10.4291   21.0390 C   0  0  0  0  0  0
  -24.3611   -9.4214   21.9175 C   0  0  0  0  0  0
  -23.6293   -8.2250   22.0753 C   0  0  0  0  0  0
  -22.4274   -8.0275   21.3542 C   0  0  0  0  0  0
  -21.9904   -9.0247   20.4647 C   0  0  0  0  0  0
  -22.7226  -10.2129   20.3050 C   0  0  0  0  0  0
  -21.6858   -6.0725   22.5280 C   0  0  0  0  0  0
  -21.4016   -6.5633   23.8210 C   0  0  0  0  0  0
  -21.3659   -5.6787   24.9172 C   0  0  0  0  0  0
  -21.6050   -4.3055   24.7227 C   0  0  0  0  0  0
  -21.8821   -3.8142   23.4350 C   0  0  0  0  0  0
  -21.9195   -4.6959   22.3404 C   0  0  0  0  0  0
  -22.7872  -13.5244   21.1832 C   0  0  0  0  0  0
  -22.1664   -4.2143   21.0985 F   0  0  0  0  0  0
  -21.5628   -3.4538   25.7737 F   0  0  0  0  0  0
  -30.0628  -13.2066   20.4602 N   0  0  0  0  0  0
  -26.3064  -12.9337   20.3398 N   0  0  0  0  0  0
  -25.9331  -11.6490   20.5773 N   0  0  0  0  0  0
  -22.0503  -12.8228   22.0378 N   0  0  0  0  0  0
  -25.4340  -15.1881   20.4112 N   0  0  0  0  0  0
  -31.7446  -14.6855   20.0112 O   0  0  0  0  0  0
  -21.6646   -6.8869   21.4240 O   0  0  0  0  0  0
  -22.3551  -14.5554   20.6687 O   0  0  0  0  0  0
  -24.6117  -31.8717   23.2105 C   0  0  0  0  0  0
  -25.9014  -32.4850   23.8410 C   0  0  1  0  0  0
  -27.2392  -27.4635   20.0984 C   0  0  0  0  0  0
  -25.5893  -33.8639   24.2356 N   0  0  0  0  0  0
  -23.4015  -30.4960   21.5461 C   0  0  2  0  0  0
  -24.8522  -28.9648   20.1111 C   0  0  0  0  0  0
  -22.7413  -29.4685   22.4939 C   0  0  0  0  0  0
  -18.0300  -28.1413   22.8514 C   0  0  0  0  0  0
  -24.1480  -36.7318   23.2633 C   0  0  0  0  0  0
  -25.9266  -30.8477   21.3572 C   0  0  0  0  0  0
  -26.0069  -29.4793   20.7151 C   0  0  0  0  0  0
  -27.2054  -28.7326   20.7167 C   0  0  0  0  0  0
  -26.0781  -26.9664   19.4732 C   0  0  0  0  0  0
  -24.8791  -27.7037   19.4890 C   0  0  0  0  0  0
  -23.6122  -29.8299   20.1584 C   0  0  0  0  0  0
  -25.4101  -36.3129   24.0345 C   0  0  1  0  0  0
  -20.5889  -28.3699   23.1324 C   0  0  2  0  0  0
  -20.6771  -26.9431   22.5416 C   0  0  0  0  0  0
  -19.5737  -26.6425   21.5224 C   0  0  0  0  0  0
  -18.1929  -26.7965   22.1646 C   0  0  0  0  0  0
  -19.1545  -28.8870   23.2932 C   0  0  0  0  0  0
  -18.9470  -30.1478   23.8950 C   0  0  0  0  0  0
  -17.6464  -30.6610   24.0605 C   0  0  0  0  0  0
  -25.9033  -34.9484   23.5150 C   0  0  0  0  0  0
  -16.5364  -29.9126   23.6325 C   0  0  0  0  0  0
  -16.7289  -28.6543   23.0350 C   0  0  0  0  0  0
  -26.4451  -31.6599   25.0709 C   0  0  0  0  0  0
  -25.3726  -31.3696   26.1472 C   0  0  0  0  0  0
  -27.0265  -30.3052   24.6022 C   0  0  0  0  0  0
  -27.6058  -32.4275   25.7459 C   0  0  0  0  0  0
  -27.5591  -37.1819   24.8467 C   0  0  0  0  0  0
  -21.4141  -29.3068   22.3708 N   0  0  0  0  0  0
  -26.4292  -37.3809   23.9426 N   0  0  0  0  0  0
  -24.6646  -31.0859   22.0970 N   0  0  0  0  0  0
  -23.4200  -28.8210   23.2958 O   0  0  0  0  0  0
  -28.3661  -26.6767   20.0964 O   0  0  0  0  0  0
  -26.5596  -34.8929   22.4714 O   0  0  0  0  0  0
  -23.5307  -32.1426   23.7507 O   0  0  0  0  0  0
  -30.0522  -17.3944   23.2179 C   0  0  0  0  0  0
  -32.2198  -18.0015   22.3065 C   0  0  0  0  0  0
  -31.3124  -17.0116   22.7273 C   0  0  0  0  0  0
  -29.7118  -18.7565   23.3432 C   0  0  0  0  0  0
  -31.8934  -19.3699   22.4122 C   0  0  0  0  0  0
  -30.6453  -19.7605   22.9666 C   0  0  0  0  0  0
  -30.0616  -25.3604   21.1835 C   0  0  0  0  0  0
  -27.6565  -25.2483   22.0133 C   0  0  0  0  0  0
  -30.2945  -24.3145   22.3007 C   0  0  0  0  0  0
  -27.9176  -23.7528   21.7668 C   0  0  0  0  0  0
  -28.7488  -26.1530   21.3756 C   0  0  2  0  0  0
  -28.3475  -19.0972   23.9220 C   0  0  0  0  0  0
  -32.9152  -20.3922   21.9382 C   0  0  0  0  0  0
  -30.3311  -21.2388   23.2140 C   0  0  0  0  0  0
  -31.7074  -15.5444   22.6962 C   0  0  0  0  0  0
  -29.5682  -21.9244   22.0624 C   0  0  0  0  0  0
  -30.7381  -14.6918   22.0156 N   0  0  0  0  0  0
  -29.1856  -23.3179   22.4121 N   0  3  1  0  0  0
  -31.4492  -12.3884   19.0563 H   0  0  0  0  0  0
  -30.3078  -11.2568   19.7206 H   0  0  0  0  0  0
  -29.6989  -11.8545   17.3657 H   0  0  0  0  0  0
  -29.6361  -13.5476   17.7924 H   0  0  0  0  0  0
  -27.8187  -11.3230   18.7915 H   0  0  0  0  0  0
  -27.3409  -12.6717   17.7942 H   0  0  0  0  0  0
  -27.7235  -14.2588   19.6031 H   0  0  0  0  0  0
  -28.6504  -11.9355   21.3595 H   0  0  0  0  0  0
  -28.4708  -13.5967   21.8520 H   0  0  0  0  0  0
  -25.2762   -9.5699   22.4739 H   0  0  0  0  0  0
  -24.0012   -7.4645   22.7468 H   0  0  0  0  0  0
  -21.0834   -8.8760   19.8946 H   0  0  0  0  0  0
  -22.3683  -10.9663   19.6154 H   0  0  0  0  0  0
  -21.2010   -7.6138   23.9711 H   0  0  0  0  0  0
  -21.1478   -6.0518   25.9077 H   0  0  0  0  0  0
  -22.0598   -2.7605   23.2854 H   0  0  0  0  0  0
  -22.4125  -11.9890   22.4766 H   0  0  0  0  0  0
  -21.1124  -13.1259   22.2582 H   0  0  0  0  0  0
  -24.6726  -15.8484   20.5281 H   0  0  0  0  0  0
  -26.3000  -15.6263   20.1222 H   0  0  0  0  0  0
  -26.7104  -32.5590   23.1208 H   0  0  0  0  0  0
  -25.0019  -33.9803   25.0487 H   0  0  0  0  0  0
  -22.6903  -31.3131   21.4069 H   0  0  0  0  0  0
  -23.3746  -35.9646   23.3287 H   0  0  0  0  0  0
  -24.3582  -36.8930   22.2048 H   0  0  0  0  0  0
  -23.7209  -37.6514   23.6640 H   0  0  0  0  0  0
  -26.0287  -31.6063   20.5794 H   0  0  0  0  0  0
  -26.8191  -30.9132   21.9661 H   0  0  0  0  0  0
  -28.0938  -29.1277   21.1902 H   0  0  0  0  0  0
  -26.0981  -25.9976   18.9938 H   0  0  0  0  0  0
  -23.9929  -27.3060   19.0126 H   0  0  0  0  0  0
  -23.7238  -30.6059   19.3993 H   0  0  0  0  0  0
  -22.7374  -29.2491   19.8595 H   0  0  0  0  0  0
  -25.1270  -36.1999   25.0835 H   0  0  0  0  0  0
  -21.0060  -28.3282   24.1413 H   0  0  0  0  0  0
  -20.5686  -26.2317   23.3609 H   0  0  0  0  0  0
  -21.6646  -26.7471   22.1210 H   0  0  0  0  0  0
  -19.6868  -25.6345   21.1242 H   0  0  0  0  0  0
  -19.6666  -27.3261   20.6769 H   0  0  0  0  0  0
  -17.4199  -26.6782   21.4029 H   0  0  0  0  0  0
  -18.0305  -26.0098   22.9030 H   0  0  0  0  0  0
  -19.7931  -30.7308   24.2329 H   0  0  0  0  0  0
  -17.5009  -31.6284   24.5229 H   0  0  0  0  0  0
  -15.5369  -30.3054   23.7577 H   0  0  0  0  0  0
  -15.8705  -28.0883   22.7009 H   0  0  0  0  0  0
  -24.5903  -30.7032   25.7821 H   0  0  0  0  0  0
  -24.8905  -32.2839   26.4938 H   0  0  0  0  0  0
  -25.8091  -30.8863   27.0218 H   0  0  0  0  0  0
  -26.2783  -29.6839   24.1082 H   0  0  0  0  0  0
  -27.4073  -29.7263   25.4447 H   0  0  0  0  0  0
  -27.8603  -30.4412   23.9125 H   0  0  0  0  0  0
  -27.2745  -33.3589   26.2063 H   0  0  0  0  0  0
  -28.3862  -32.6801   25.0267 H   0  0  0  0  0  0
  -28.0726  -31.8351   26.5341 H   0  0  0  0  0  0
  -28.2620  -38.0114   24.7551 H   0  0  0  0  0  0
  -28.1085  -36.2654   24.6253 H   0  0  0  0  0  0
  -27.2325  -37.1425   25.8875 H   0  0  0  0  0  0
  -20.9281  -29.8830   21.6978 H   0  0  0  0  0  0
  -26.0180  -38.2885   24.1440 H   0  0  0  0  0  0
  -29.3526  -16.6315   23.5326 H   0  0  0  0  0  0
  -33.1846  -17.7068   21.9158 H   0  0  0  0  0  0
  -30.0457  -24.8475   20.2209 H   0  0  0  0  0  0
  -30.9071  -26.0471   21.1345 H   0  0  0  0  0  0
  -27.6382  -25.4249   23.0901 H   0  0  0  0  0  0
  -26.6530  -25.5034   21.6777 H   0  0  0  0  0  0
  -30.3725  -24.8289   23.2588 H   0  0  0  0  0  0
  -31.2546  -23.8187   22.1545 H   0  0  0  0  0  0
  -27.9573  -23.5599   20.6932 H   0  0  0  0  0  0
  -27.0900  -23.1601   22.1597 H   0  0  0  0  0  0
  -28.9463  -26.9866   22.0521 H   0  0  0  0  0  0
  -27.6752  -18.2398   23.8744 H   0  0  0  0  0  0
  -27.8631  -19.9061   23.3797 H   0  0  0  0  0  0
  -28.4430  -19.3905   24.9671 H   0  0  0  0  0  0
  -33.7259  -19.9181   21.3835 H   0  0  0  0  0  0
  -33.3583  -20.9195   22.7823 H   0  0  0  0  0  0
  -32.4567  -21.1236   21.2735 H   0  0  0  0  0  0
  -31.2562  -21.7745   23.4256 H   0  0  0  0  0  0
  -29.7600  -21.3217   24.1386 H   0  0  0  0  0  0
  -31.7913  -15.1934   23.7259 H   0  0  0  0  0  0
  -32.7046  -15.4243   22.2664 H   0  0  0  0  0  0
  -28.6669  -21.3484   21.8523 H   0  0  0  0  0  0
  -30.1462  -21.9137   21.1384 H   0  0  0  0  0  0
  -30.0331  -14.2457   22.5834 H   0  0  0  0  0  0
  -28.9690  -23.2801   23.3976 H   0  0  0  0  0  0
  1 25  1  0  0  0
  1 30  2  0  0  0
  1 87  1  0  0  0
  2  3  1  0  0  0
  2 25  1  0  0  0
  2 89  1  0  0  0
  2 90  1  0  0  0
  3  4  1  0  0  0
  3 91  1  0  0  0
  3 92  1  0  0  0
  4  5  1  0  0  0
  4 93  1  0  0  0
  4 94  1  0  0  0
  5  6  1  0  0  0
  5 26  1  0  0  0
  5 95  1  0  0  0
  6 25  1  0  0  0
  6 96  1  0  0  0
  6 97  1  0  0  0
  7  8  2  0  0  0
  7 26  1  0  0  0
  7 29  1  0  0  0
  8  9  1  0  0  0
  8 22  1  0  0  0
  9 10  1  0  0  0
  9 27  2  0  0  0
 10 11  2  0  0  0
 10 15  1  0  0  0
 11 12  1  0  0  0
 11 98  1  0  0  0
 12 13  2  0  0  0
 12 99  1  0  0  0
 13 14  1  0  0  0
 13 31  1  0  0  0
 14 15  2  0  0  0
 14100  1  0  0  0
 15101  1  0  0  0
 16 17  2  0  0  0
 16 21  1  0  0  0
 16 31  1  0  0  0
 17 18  1  0  0  0
 17102  1  0  0  0
 18 19  2  0  0  0
 18103  1  0  0  0
 19 20  1  0  0  0
 19 24  1  0  0  0
 20 21  2  0  0  0
 20104  1  0  0  0
 21 23  1  0  0  0
 22 28  1  0  0  0
 22 32  2  0  0  0
 26 27  1  0  0  0
 28105  1  0  0  0
 28106  1  0  0  0
 29107  1  0  0  0
 29108  1  0  0  0
 33 34  1  0  0  0
 33 66  1  0  0  0
 33 70  2  0  0  0
 34 36  1  0  0  0
 34 59  1  0  0  0
 34109  1  0  0  0
 35 44  2  0  0  0
 35 45  1  0  0  0
 35 68  1  0  0  0
 36 56  1  0  0  0
 36110  1  0  0  0
 37 39  1  0  0  0
 37 47  1  0  0  0
 37 66  1  0  0  0
 37111  1  0  0  0
 38 43  2  0  0  0
 38 46  1  0  0  0
 38 47  1  0  0  0
 39 64  1  0  0  0
 39 67  2  0  0  0
 40 52  1  0  0  0
 40 53  2  0  0  0
 40 58  1  0  0  0
 41112  1  0  0  0
 41113  1  0  0  0
 41114  1  0  0  0
 41 48  1  0  0  0
 42 43  1  0  0  0
 42 66  1  0  0  0
 42115  1  0  0  0
 42116  1  0  0  0
 43 44  1  0  0  0
 44117  1  0  0  0
 45 46  2  0  0  0
 45118  1  0  0  0
 46119  1  0  0  0
 47120  1  0  0  0
 47121  1  0  0  0
 48 56  1  0  0  0
 48 65  1  0  0  0
 48122  1  0  0  0
 49 50  1  0  0  0
 49 53  1  0  0  0
 49 64  1  0  0  0
 49123  1  0  0  0
 50 51  1  0  0  0
 50124  1  0  0  0
 50125  1  0  0  0
 51 52  1  0  0  0
 51126  1  0  0  0
 51127  1  0  0  0
 52128  1  0  0  0
 52129  1  0  0  0
 53 54  1  0  0  0
 54 55  2  0  0  0
 54130  1  0  0  0
 55 57  1  0  0  0
 55131  1  0  0  0
 56 69  2  0  0  0
 57 58  2  0  0  0
 57132  1  0  0  0
 58133  1  0  0  0
 59 60  1  0  0  0
 59 61  1  0  0  0
 59 62  1  0  0  0
 60134  1  0  0  0
 60135  1  0  0  0
 60136  1  0  0  0
 61137  1  0  0  0
 61138  1  0  0  0
 61139  1  0  0  0
 62140  1  0  0  0
 62141  1  0  0  0
 62142  1  0  0  0
 63 65  1  0  0  0
 63143  1  0  0  0
 63144  1  0  0  0
 63145  1  0  0  0
 64146  1  0  0  0
 65147  1  0  0  0
 68 81  1  0  0  0
 71 73  2  0  0  0
 71 74  1  0  0  0
 71148  1  0  0  0
 72 73  1  0  0  0
 72 75  2  0  0  0
 72149  1  0  0  0
 73 85  1  0  0  0
 74 76  2  0  0  0
 74 82  1  0  0  0
 75 76  1  0  0  0
 75 83  1  0  0  0
 76 84  1  0  0  0
 77 79  1  0  0  0
 77 81  1  0  0  0
 77150  1  0  0  0
 77151  1  0  0  0
 78 80  1  0  0  0
 78 81  1  0  0  0
 78152  1  0  0  0
 78153  1  0  0  0
 79 88  1  0  0  0
 79154  1  0  0  0
 79155  1  0  0  0
 80 88  1  0  0  0
 80156  1  0  0  0
 80157  1  0  0  0
 81158  1  0  0  0
 82159  1  0  0  0
 82160  1  0  0  0
 82161  1  0  0  0
 83162  1  0  0  0
 83163  1  0  0  0
 83164  1  0  0  0
 84 86  1  0  0  0
 84165  1  0  0  0
 84166  1  0  0  0
 85 87  1  0  0  0
 85167  1  0  0  0
 85168  1  0  0  0
 86169  1  0  0  0
 86170  1  0  0  0
 86 88  1  0  0  0
 87171  1  0  0  0
 88172  1  0  0  0
M  CHG  1  88   1
M  ISO  4   1 100  68 101  81 101  87 100
M  END
> <chiral flag>
0

> <version>
0

> <s_m_source_file>
/data/baiqing/PycharmProjects/Reinvent-master-3.2/result/LINK_invent/BTK/process_docking_weight1_custom_sum_contain_oxygen_bond_distance_aromatic_linkinvent_7_9_3/rearranged_h_0136.sdf

> <i_m_source_file_index>
78

> <r_mmod_Potential_Energy-OPLS-2005>
-204.735778808594

> <r_mmod_Stretch_Energy-OPLS-2005>
36.2699165344238

> <r_mmod_Bend_Energy-OPLS-2005>
89.1224670410156

> <r_mmod_Torsional_Energy-OPLS-2005>
276.050903320312

> <r_mmod_Improper_Torsional_Energy-OPLS-2005>
5.49315595626831

> <r_mmod_Van_der_Waal_Energy-OPLS-2005>
163.807144165039

> <r_mmod_Electrostatic_Energy-OPLS-2005>
-347.304656982422

> <r_mmod_Solvation_Energy-OPLS-2005>
-438.171875

> <b_mmod_Minimization_Converged-OPLS-2005>
0

> <r_mmod_RMS_Derivative-OPLS-2005>
2.30309534072876

$$$$
81
                    3D
 Structure written by MMmdl.
158167  0  0  1  0            999 V2000
  -30.6673  -14.5970   20.5146 C   0  0  0  0  0  0
  -30.4281  -12.3703   19.4553 C   0  0  0  0  0  0
  -29.5034  -12.5063   18.2253 C   0  0  0  0  0  0
  -28.0256  -12.3540   18.6359 C   0  0  0  0  0  0
  -27.6538  -13.2218   19.8687 C   0  0  2  0  0  0
  -28.6983  -13.0781   20.9993 C   0  0  0  0  0  0
  -25.2533  -13.8178   20.5671 C   0  0  0  0  0  0
  -24.1808  -13.0443   20.9189 C   0  0  0  0  0  0
  -24.6381  -11.6915   20.8744 C   0  0  0  0  0  0
  -23.9044  -10.4299   21.0410 C   0  0  0  0  0  0
  -24.3600   -9.4220   21.9184 C   0  0  0  0  0  0
  -23.6292   -8.2244   22.0752 C   0  0  0  0  0  0
  -22.4270   -8.0274   21.3543 C   0  0  0  0  0  0
  -21.9906   -9.0247   20.4645 C   0  0  0  0  0  0
  -22.7221  -10.2136   20.3058 C   0  0  0  0  0  0
  -21.6850   -6.0733   22.5271 C   0  0  0  0  0  0
  -21.4018   -6.5635   23.8203 C   0  0  0  0  0  0
  -21.3668   -5.6789   24.9165 C   0  0  0  0  0  0
  -21.6046   -4.3049   24.7221 C   0  0  0  0  0  0
  -21.8821   -3.8143   23.4342 C   0  0  0  0  0  0
  -21.9190   -4.6959   22.3400 C   0  0  0  0  0  0
  -22.7830  -13.5236   21.1857 C   0  0  0  0  0  0
  -22.1652   -4.2147   21.0980 F   0  0  0  0  0  0
  -21.5636   -3.4528   25.7734 F   0  0  0  0  0  0
  -30.0192  -13.3948   20.4360 N   0  0  0  0  0  0
  -26.2988  -12.9381   20.3357 N   0  0  0  0  0  0
  -25.9320  -11.6528   20.5778 N   0  0  0  0  0  0
  -22.0466  -12.8225   22.0409 N   0  0  0  0  0  0
  -25.4219  -15.1893   20.4012 N   0  0  0  0  0  0
  -31.8182  -14.7426   20.0990 O   0  0  0  0  0  0
  -21.6641   -6.8870   21.4228 O   0  0  0  0  0  0
  -22.3515  -14.5545   20.6706 O   0  0  0  0  0  0
  -24.6207  -31.8622   23.2057 C   0  0  0  0  0  0
  -25.9071  -32.4793   23.8373 C   0  0  1  0  0  0
  -27.2229  -27.3454   20.1340 C   0  0  0  0  0  0
  -25.5895  -33.8595   24.2294 N   0  0  0  0  0  0
  -23.4144  -30.4845   21.5459 C   0  0  2  0  0  0
  -24.8651  -28.9411   20.1150 C   0  0  0  0  0  0
  -22.7454  -29.4624   22.4947 C   0  0  0  0  0  0
  -18.0284  -28.1383   22.8487 C   0  0  0  0  0  0
  -24.1489  -36.7318   23.2642 C   0  0  0  0  0  0
  -25.9517  -30.7982   21.3785 C   0  0  0  0  0  0
  -26.0271  -29.4237   20.7328 C   0  0  0  0  0  0
  -27.2101  -28.6319   20.7438 C   0  0  0  0  0  0
  -26.0619  -26.9284   19.4548 C   0  0  0  0  0  0
  -24.8806  -27.6944   19.4701 C   0  0  0  0  0  0
  -23.6307  -29.8177   20.1610 C   0  0  0  0  0  0
  -25.4113  -36.3104   24.0333 C   0  0  1  0  0  0
  -20.5879  -28.3679   23.1295 C   0  0  2  0  0  0
  -20.6771  -26.9408   22.5412 C   0  0  0  0  0  0
  -19.5747  -26.6385   21.5213 C   0  0  0  0  0  0
  -18.1929  -26.7924   22.1627 C   0  0  0  0  0  0
  -19.1535  -28.8847   23.2887 C   0  0  0  0  0  0
  -18.9461  -30.1453   23.8901 C   0  0  0  0  0  0
  -17.6460  -30.6584   24.0567 C   0  0  0  0  0  0
  -25.9041  -34.9465   23.5115 C   0  0  0  0  0  0
  -16.5351  -29.9087   23.6327 C   0  0  0  0  0  0
  -16.7272  -28.6507   23.0343 C   0  0  0  0  0  0
  -26.4479  -31.6593   25.0727 C   0  0  0  0  0  0
  -25.3731  -31.3704   26.1464 C   0  0  0  0  0  0
  -27.0327  -30.3023   24.6165 C   0  0  0  0  0  0
  -27.6046  -32.4326   25.7487 C   0  0  0  0  0  0
  -27.5582  -37.1815   24.8463 C   0  0  0  0  0  0
  -21.4170  -29.3038   22.3696 N   0  0  0  0  0  0
  -26.4299  -37.3790   23.9402 N   0  0  0  0  0  0
  -24.6801  -31.0655   22.1002 N   0  0  0  0  0  0
  -23.4191  -28.8173   23.3020 O   0  0  0  0  0  0
  -28.3497  -26.5294   20.0816 O   0  0  0  0  0  0
  -26.5620  -34.8924   22.4687 O   0  0  0  0  0  0
  -23.5376  -32.1417   23.7396 O   0  0  0  0  0  0
  -25.5541  -22.9902   20.7434 C   0  0  0  0  0  0
  -26.1590  -21.7352   20.6016 C   0  0  0  0  0  0
  -26.3445  -24.1330   20.9025 C   0  0  0  0  0  0
  -28.3600  -22.7562   20.7537 C   0  0  0  0  0  0
  -27.5618  -21.5578   20.6671 C   0  0  0  0  0  0
  -27.7492  -24.0684   20.8383 C   0  0  0  0  0  0
  -27.2321  -19.1584   21.5704 C   0  0  0  0  0  0
  -27.9158  -17.8211   21.4282 C   0  0  0  0  0  0
  -28.0101  -20.0491   20.5913 C   0  0  2  0  0  0
  -29.3868  -18.2032   21.3206 C   0  0  1  0  0  0
  -28.5272  -25.4133   21.0259 C   0  0  0  0  0  0
  -30.2286  -17.1166   20.5398 C   0  0  0  0  0  0
  -29.9207  -15.6814   20.8581 N   0  0  0  0  0  0
  -29.3716  -19.5955   20.8285 O   0  0  0  0  0  0
  -31.4727  -12.4721   19.1554 H   0  0  0  0  0  0
  -30.3405  -11.3759   19.8941 H   0  0  0  0  0  0
  -29.7629  -11.7580   17.4759 H   0  0  0  0  0  0
  -29.6541  -13.4781   17.7525 H   0  0  0  0  0  0
  -27.8549  -11.3009   18.8605 H   0  0  0  0  0  0
  -27.3732  -12.5938   17.7955 H   0  0  0  0  0  0
  -27.6742  -14.2594   19.5353 H   0  0  0  0  0  0
  -28.6964  -12.0621   21.3960 H   0  0  0  0  0  0
  -28.4542  -13.7275   21.8412 H   0  0  0  0  0  0
  -25.2741   -9.5696   22.4760 H   0  0  0  0  0  0
  -24.0004   -7.4630   22.7470 H   0  0  0  0  0  0
  -21.0838   -8.8758   19.8948 H   0  0  0  0  0  0
  -22.3673  -10.9677   19.6169 H   0  0  0  0  0  0
  -21.2010   -7.6141   23.9717 H   0  0  0  0  0  0
  -21.1488   -6.0511   25.9071 H   0  0  0  0  0  0
  -22.0597   -2.7602   23.2836 H   0  0  0  0  0  0
  -22.4076  -11.9874   22.4776 H   0  0  0  0  0  0
  -21.1076  -13.1241   22.2616 H   0  0  0  0  0  0
  -24.6472  -15.8376   20.4850 H   0  0  0  0  0  0
  -26.2571  -15.6154   20.0220 H   0  0  0  0  0  0
  -26.7142  -32.5489   23.1130 H   0  0  0  0  0  0
  -25.0013  -33.9747   25.0415 H   0  0  0  0  0  0
  -22.7062  -31.3040   21.4028 H   0  0  0  0  0  0
  -23.3742  -35.9661   23.3309 H   0  0  0  0  0  0
  -24.3583  -36.8931   22.2057 H   0  0  0  0  0  0
  -23.7253  -37.6526   23.6657 H   0  0  0  0  0  0
  -26.0789  -31.5566   20.6046 H   0  0  0  0  0  0
  -26.8334  -30.8518   22.0047 H   0  0  0  0  0  0
  -28.1066  -28.9974   21.2245 H   0  0  0  0  0  0
  -26.0643  -25.9866   18.9242 H   0  0  0  0  0  0
  -23.9976  -27.3243   18.9684 H   0  0  0  0  0  0
  -23.7509  -30.5926   19.4037 H   0  0  0  0  0  0
  -22.7522  -29.2444   19.8577 H   0  0  0  0  0  0
  -25.1293  -36.1967   25.0827 H   0  0  0  0  0  0
  -20.9972  -28.3251   24.1414 H   0  0  0  0  0  0
  -20.5673  -26.2291   23.3609 H   0  0  0  0  0  0
  -21.6645  -26.7447   22.1212 H   0  0  0  0  0  0
  -19.6913  -25.6297   21.1243 H   0  0  0  0  0  0
  -19.6682  -27.3196   20.6745 H   0  0  0  0  0  0
  -17.4198  -26.6668   21.4031 H   0  0  0  0  0  0
  -18.0338  -26.0065   22.9025 H   0  0  0  0  0  0
  -19.7938  -30.7268   24.2268 H   0  0  0  0  0  0
  -17.5016  -31.6262   24.5174 H   0  0  0  0  0  0
  -15.5352  -30.2989   23.7647 H   0  0  0  0  0  0
  -15.8675  -28.0831   22.7045 H   0  0  0  0  0  0
  -24.5898  -30.7063   25.7783 H   0  0  0  0  0  0
  -24.8939  -32.2861   26.4933 H   0  0  0  0  0  0
  -25.8076  -30.8845   27.0211 H   0  0  0  0  0  0
  -26.2895  -29.6766   24.1208 H   0  0  0  0  0  0
  -27.4047  -29.7279   25.4659 H   0  0  0  0  0  0
  -27.8754  -30.4309   23.9372 H   0  0  0  0  0  0
  -27.2653  -33.3607   26.2099 H   0  0  0  0  0  0
  -28.3833  -32.6922   25.0302 H   0  0  0  0  0  0
  -28.0746  -31.8442   26.5373 H   0  0  0  0  0  0
  -28.2608  -38.0104   24.7500 H   0  0  0  0  0  0
  -28.1070  -36.2634   24.6301 H   0  0  0  0  0  0
  -27.2301  -37.1483   25.8868 H   0  0  0  0  0  0
  -20.9338  -29.8769   21.6920 H   0  0  0  0  0  0
  -26.0185  -38.2873   24.1382 H   0  0  0  0  0  0
  -24.4758  -23.0728   20.7490 H   0  0  0  0  0  0
  -25.5050  -20.8867   20.4691 H   0  0  0  0  0  0
  -25.8489  -25.0716   21.0883 H   0  0  0  0  0  0
  -29.4375  -22.6658   20.7751 H   0  0  0  0  0  0
  -27.3404  -19.5327   22.5901 H   0  0  0  0  0  0
  -26.1678  -19.0711   21.3565 H   0  0  0  0  0  0
  -27.5786  -17.3370   20.5112 H   0  0  0  0  0  0
  -27.7087  -17.1489   22.2618 H   0  0  0  0  0  0
  -27.7655  -19.7244   19.5782 H   0  0  0  0  0  0
  -29.7834  -18.2584   22.3358 H   0  0  0  0  0  0
  -29.5911  -25.1754   21.0318 H   0  0  0  0  0  0
  -28.3105  -25.7838   22.0288 H   0  0  0  0  0  0
  -31.2922  -17.3095   20.6909 H   0  0  0  0  0  0
  -30.0510  -17.2500   19.4720 H   0  0  0  0  0  0
  -28.9871  -15.4851   21.1859 H   0  0  0  0  0  0
  1 25  1  0  0  0
  1 30  2  0  0  0
  1 83  1  0  0  0
  2  3  1  0  0  0
  2 25  1  0  0  0
  2 85  1  0  0  0
  2 86  1  0  0  0
  3  4  1  0  0  0
  3 87  1  0  0  0
  3 88  1  0  0  0
  4  5  1  0  0  0
  4 89  1  0  0  0
  4 90  1  0  0  0
  5  6  1  0  0  0
  5 26  1  0  0  0
  5 91  1  0  0  0
  6 25  1  0  0  0
  6 92  1  0  0  0
  6 93  1  0  0  0
  7  8  2  0  0  0
  7 26  1  0  0  0
  7 29  1  0  0  0
  8  9  1  0  0  0
  8 22  1  0  0  0
  9 10  1  0  0  0
  9 27  2  0  0  0
 10 11  2  0  0  0
 10 15  1  0  0  0
 11 12  1  0  0  0
 11 94  1  0  0  0
 12 13  2  0  0  0
 12 95  1  0  0  0
 13 14  1  0  0  0
 13 31  1  0  0  0
 14 15  2  0  0  0
 14 96  1  0  0  0
 15 97  1  0  0  0
 16 17  2  0  0  0
 16 21  1  0  0  0
 16 31  1  0  0  0
 17 18  1  0  0  0
 17 98  1  0  0  0
 18 19  2  0  0  0
 18 99  1  0  0  0
 19 20  1  0  0  0
 19 24  1  0  0  0
 20 21  2  0  0  0
 20100  1  0  0  0
 21 23  1  0  0  0
 22 28  1  0  0  0
 22 32  2  0  0  0
 26 27  1  0  0  0
 28101  1  0  0  0
 28102  1  0  0  0
 29103  1  0  0  0
 29104  1  0  0  0
 33 34  1  0  0  0
 33 66  1  0  0  0
 33 70  2  0  0  0
 34 36  1  0  0  0
 34 59  1  0  0  0
 34105  1  0  0  0
 35 44  2  0  0  0
 35 45  1  0  0  0
 35 68  1  0  0  0
 36 56  1  0  0  0
 36106  1  0  0  0
 37 39  1  0  0  0
 37 47  1  0  0  0
 37 66  1  0  0  0
 37107  1  0  0  0
 38 43  2  0  0  0
 38 46  1  0  0  0
 38 47  1  0  0  0
 39 64  1  0  0  0
 39 67  2  0  0  0
 40 52  1  0  0  0
 40 53  2  0  0  0
 40 58  1  0  0  0
 41108  1  0  0  0
 41109  1  0  0  0
 41110  1  0  0  0
 41 48  1  0  0  0
 42 43  1  0  0  0
 42 66  1  0  0  0
 42111  1  0  0  0
 42112  1  0  0  0
 43 44  1  0  0  0
 44113  1  0  0  0
 45 46  2  0  0  0
 45114  1  0  0  0
 46115  1  0  0  0
 47116  1  0  0  0
 47117  1  0  0  0
 48 56  1  0  0  0
 48 65  1  0  0  0
 48118  1  0  0  0
 49 50  1  0  0  0
 49 53  1  0  0  0
 49 64  1  0  0  0
 49119  1  0  0  0
 50 51  1  0  0  0
 50120  1  0  0  0
 50121  1  0  0  0
 51 52  1  0  0  0
 51122  1  0  0  0
 51123  1  0  0  0
 52124  1  0  0  0
 52125  1  0  0  0
 53 54  1  0  0  0
 54 55  2  0  0  0
 54126  1  0  0  0
 55 57  1  0  0  0
 55127  1  0  0  0
 56 69  2  0  0  0
 57 58  2  0  0  0
 57128  1  0  0  0
 58129  1  0  0  0
 59 60  1  0  0  0
 59 61  1  0  0  0
 59 62  1  0  0  0
 60130  1  0  0  0
 60131  1  0  0  0
 60132  1  0  0  0
 61133  1  0  0  0
 61134  1  0  0  0
 61135  1  0  0  0
 62136  1  0  0  0
 62137  1  0  0  0
 62138  1  0  0  0
 63 65  1  0  0  0
 63139  1  0  0  0
 63140  1  0  0  0
 63141  1  0  0  0
 64142  1  0  0  0
 65143  1  0  0  0
 68 81  1  0  0  0
 71 72  2  0  0  0
 71 73  1  0  0  0
 71144  1  0  0  0
 72 75  1  0  0  0
 72145  1  0  0  0
 73 76  2  0  0  0
 73146  1  0  0  0
 74 75  2  0  0  0
 74 76  1  0  0  0
 74147  1  0  0  0
 75 79  1  0  0  0
 76 81  1  0  0  0
 77 78  1  0  0  0
 77 79  1  0  0  0
 77148  1  0  0  0
 77149  1  0  0  0
 78 80  1  0  0  0
 78150  1  0  0  0
 78151  1  0  0  0
 79 84  1  0  0  0
 79152  1  0  0  0
 80 82  1  0  0  0
 80 84  1  0  0  0
 80153  1  0  0  0
 81154  1  0  0  0
 81155  1  0  0  0
 82 83  1  0  0  0
 82156  1  0  0  0
 82157  1  0  0  0
 83158  1  0  0  0
M  ISO  4   1 100  68 101  81 101  83 100
M  END
> <chiral flag>
0

> <version>
0

> <s_m_source_file>
/data/baiqing/PycharmProjects/Reinvent-master-3.2/result/LINK_invent/BTK/process_docking_weight1_custom_sum_contain_oxygen_bond_distance_aromatic_linkinvent_7_9_3/rearranged_h_0136.sdf

> <i_m_source_file_index>
79

> <r_mmod_Potential_Energy-OPLS-2005>
79.3505706787109

> <r_mmod_Stretch_Energy-OPLS-2005>
75.2645797729492

> <r_mmod_Bend_Energy-OPLS-2005>
171.822738647461

> <r_mmod_Torsional_Energy-OPLS-2005>
283.268798828125

> <r_mmod_Improper_Torsional_Energy-OPLS-2005>
6.52014255523682

> <r_mmod_Van_der_Waal_Energy-OPLS-2005>
138.567184448242

> <r_mmod_Electrostatic_Energy-OPLS-2005>
-423.543731689453

> <r_mmod_Solvation_Energy-OPLS-2005>
-207.639862060547

> <b_mmod_Minimization_Converged-OPLS-2005>
0

> <r_mmod_RMS_Derivative-OPLS-2005>
1.34989011287689

$$$$
82
                    3D
 Structure written by MMmdl.
184193  0  0  1  0            999 V2000
  -30.8223  -14.3093   20.7555 C   0  0  0  0  0  0
  -30.4090  -12.3009   19.3845 C   0  0  0  0  0  0
  -29.4743  -12.5407   18.1885 C   0  0  0  0  0  0
  -28.0085  -12.3658   18.6138 C   0  0  0  0  0  0
  -27.6636  -13.2038   19.8709 C   0  0  2  0  0  0
  -28.6999  -12.9714   20.9928 C   0  0  0  0  0  0
  -25.2579  -13.8162   20.5637 C   0  0  0  0  0  0
  -24.1807  -13.0433   20.9128 C   0  0  0  0  0  0
  -24.6366  -11.6912   20.8671 C   0  0  0  0  0  0
  -23.9024  -10.4290   21.0378 C   0  0  0  0  0  0
  -24.3573   -9.4209   21.9166 C   0  0  0  0  0  0
  -23.6238   -8.2251   22.0763 C   0  0  0  0  0  0
  -22.4228   -8.0280   21.3553 C   0  0  0  0  0  0
  -21.9854   -9.0247   20.4654 C   0  0  0  0  0  0
  -22.7191  -10.2121   20.3043 C   0  0  0  0  0  0
  -21.6867   -6.0705   22.5280 C   0  0  0  0  0  0
  -21.4020   -6.5604   23.8207 C   0  0  0  0  0  0
  -21.3654   -5.6764   24.9173 C   0  0  0  0  0  0
  -21.6046   -4.3024   24.7230 C   0  0  0  0  0  0
  -21.8822   -3.8115   23.4352 C   0  0  0  0  0  0
  -21.9184   -4.6927   22.3399 C   0  0  0  0  0  0
  -22.7838  -13.5259   21.1781 C   0  0  0  0  0  0
  -22.1662   -4.2117   21.0979 F   0  0  0  0  0  0
  -21.5623   -3.4511   25.7742 F   0  0  0  0  0  0
  -30.0515  -13.2329   20.4639 N   0  0  0  0  0  0
  -26.3015  -12.9324   20.3306 N   0  0  0  0  0  0
  -25.9288  -11.6488   20.5671 N   0  0  0  0  0  0
  -22.0454  -12.8288   22.0359 N   0  0  0  0  0  0
  -25.4280  -15.1872   20.4083 N   0  0  0  0  0  0
  -31.7628  -14.6855   20.0466 O   0  0  0  0  0  0
  -21.6627   -6.8851   21.4248 O   0  0  0  0  0  0
  -22.3524  -14.5554   20.6613 O   0  0  0  0  0  0
  -24.6148  -31.8688   23.2135 C   0  0  0  0  0  0
  -25.9030  -32.4848   23.8417 C   0  0  1  0  0  0
  -27.2229  -27.4445   20.0480 C   0  0  0  0  0  0
  -25.5908  -33.8645   24.2353 N   0  0  0  0  0  0
  -23.4026  -30.4928   21.5581 C   0  0  2  0  0  0
  -24.8433  -28.9634   20.1273 C   0  0  0  0  0  0
  -22.7426  -29.4620   22.5033 C   0  0  0  0  0  0
  -18.0261  -28.1370   22.8498 C   0  0  0  0  0  0
  -24.1490  -36.7322   23.2633 C   0  0  0  0  0  0
  -25.9373  -30.8305   21.3694 C   0  0  0  0  0  0
  -26.0115  -29.4660   20.7158 C   0  0  0  0  0  0
  -27.2063  -28.7092   20.6809 C   0  0  0  0  0  0
  -26.0334  -26.9724   19.4505 C   0  0  0  0  0  0
  -24.8450  -27.7101   19.5030 C   0  0  0  0  0  0
  -23.6132  -29.8327   20.1744 C   0  0  0  0  0  0
  -25.4109  -36.3133   24.0351 C   0  0  1  0  0  0
  -20.5855  -28.3620   23.1365 C   0  0  2  0  0  0
  -20.6750  -26.9358   22.5438 C   0  0  0  0  0  0
  -19.5734  -26.6375   21.5217 C   0  0  0  0  0  0
  -18.1905  -26.7922   22.1622 C   0  0  0  0  0  0
  -19.1512  -28.8819   23.2928 C   0  0  0  0  0  0
  -18.9433  -30.1431   23.8921 C   0  0  0  0  0  0
  -17.6436  -30.6583   24.0542 C   0  0  0  0  0  0
  -25.9030  -34.9491   23.5135 C   0  0  0  0  0  0
  -16.5326  -29.9075   23.6318 C   0  0  0  0  0  0
  -16.7248  -28.6495   23.0335 C   0  0  0  0  0  0
  -26.4458  -31.6623   25.0733 C   0  0  0  0  0  0
  -25.3740  -31.3706   26.1486 C   0  0  0  0  0  0
  -27.0263  -30.3083   24.6070 C   0  0  0  0  0  0
  -27.6058  -32.4307   25.7481 C   0  0  0  0  0  0
  -27.5597  -37.1813   24.8466 C   0  0  0  0  0  0
  -21.4147  -29.3006   22.3801 N   0  0  0  0  0  0
  -26.4310  -37.3812   23.9407 N   0  0  0  0  0  0
  -24.6702  -31.0789   22.1047 N   0  0  0  0  0  0
  -23.4209  -28.8124   23.3029 O   0  0  0  0  0  0
  -28.3882  -26.7074   19.9961 O   0  0  0  0  0  0
  -26.5568  -34.8917   22.4681 O   0  0  0  0  0  0
  -23.5334  -32.1440   23.7511 O   0  0  0  0  0  0
  -30.2117  -17.7343   22.8518 C   0  0  0  0  0  0
  -32.5742  -17.9226   22.3842 C   0  0  0  0  0  0
  -31.4521  -17.1161   22.6308 C   0  0  0  0  0  0
  -30.0985  -19.1425   22.8674 C   0  0  0  0  0  0
  -32.4960  -19.3314   22.4088 C   0  0  0  0  0  0
  -31.2489  -19.9734   22.6838 C   0  0  0  0  0  0
  -32.0163  -23.1784   21.1202 C   0  0  0  0  0  0
  -29.1513  -24.7967   21.1823 C   0  0  0  0  0  0
  -30.9546  -24.3427   19.0849 C   0  0  0  0  0  0
  -30.7791  -23.2464   20.1955 C   0  0  2  0  0  0
  -28.2640  -25.2735   20.0158 C   0  0  2  0  0  0
  -28.4461  -24.6043   18.5990 C   0  0  1  0  0  0
  -28.7060  -19.7101   23.1123 C   0  0  0  0  0  0
  -33.7982  -20.0800   22.1580 C   0  0  0  0  0  0
  -26.3013  -23.4619   17.7212 C   0  0  0  0  0  0
  -28.4096  -22.1477   17.6082 C   0  0  0  0  0  0
  -31.6134  -15.6024   22.7273 C   0  0  0  0  0  0
  -31.1200  -21.5015   22.9018 C   0  0  0  0  0  0
  -27.6662  -23.2515   18.4027 C   0  0  0  0  0  0
  -29.5623  -23.4142   21.0044 N   0  0  0  0  0  0
  -32.0590  -22.4078   22.2249 N   0  0  0  0  0  0
  -30.6355  -14.8069   21.9850 N   0  0  0  0  0  0
  -29.8432  -24.4722   18.1135 N   0  3  0  0  0  0
  -33.0007  -23.8596   20.8448 O   0  0  0  0  0  0
  -31.4491  -12.4091   19.0726 H   0  0  0  0  0  0
  -30.3146  -11.2733   19.7422 H   0  0  0  0  0  0
  -29.7140  -11.8513   17.3777 H   0  0  0  0  0  0
  -29.6269  -13.5459   17.7896 H   0  0  0  0  0  0
  -27.8425  -11.3067   18.8165 H   0  0  0  0  0  0
  -27.3434  -12.6271   17.7884 H   0  0  0  0  0  0
  -27.7171  -14.2518   19.5769 H   0  0  0  0  0  0
  -28.6510  -11.9377   21.3382 H   0  0  0  0  0  0
  -28.4399  -13.5891   21.8520 H   0  0  0  0  0  0
  -25.2732   -9.5678   22.4716 H   0  0  0  0  0  0
  -23.9959   -7.4644   22.7476 H   0  0  0  0  0  0
  -21.0789   -8.8735   19.8959 H   0  0  0  0  0  0
  -22.3645  -10.9627   19.6121 H   0  0  0  0  0  0
  -21.2037   -7.6118   23.9703 H   0  0  0  0  0  0
  -21.1470   -6.0494   25.9067 H   0  0  0  0  0  0
  -22.0603   -2.7582   23.2855 H   0  0  0  0  0  0
  -22.4057  -11.9989   22.4812 H   0  0  0  0  0  0
  -21.1074  -13.1327   22.2526 H   0  0  0  0  0  0
  -24.6633  -15.8415   20.5279 H   0  0  0  0  0  0
  -26.2914  -15.6298   20.1155 H   0  0  0  0  0  0
  -26.7089  -32.5548   23.1159 H   0  0  0  0  0  0
  -25.0104  -33.9827   25.0530 H   0  0  0  0  0  0
  -22.6894  -31.3068   21.4179 H   0  0  0  0  0  0
  -23.3771  -35.9642   23.3298 H   0  0  0  0  0  0
  -24.3599  -36.8912   22.2049 H   0  0  0  0  0  0
  -23.7202  -37.6515   23.6632 H   0  0  0  0  0  0
  -26.0519  -31.5925   20.5971 H   0  0  0  0  0  0
  -26.8274  -30.8872   21.9842 H   0  0  0  0  0  0
  -28.1111  -29.0882   21.1365 H   0  0  0  0  0  0
  -26.0076  -26.0445   18.9113 H   0  0  0  0  0  0
  -23.9496  -27.3230   19.0372 H   0  0  0  0  0  0
  -23.7392  -30.6063   19.4179 H   0  0  0  0  0  0
  -22.7377  -29.2626   19.8644 H   0  0  0  0  0  0
  -25.1274  -36.2012   25.0856 H   0  0  0  0  0  0
  -20.9917  -28.3131   24.1492 H   0  0  0  0  0  0
  -20.5633  -26.2191   23.3585 H   0  0  0  0  0  0
  -21.6618  -26.7395   22.1220 H   0  0  0  0  0  0
  -19.6879  -25.6290   21.1221 H   0  0  0  0  0  0
  -19.6700  -27.3201   20.6753 H   0  0  0  0  0  0
  -17.4171  -26.6661   21.4020 H   0  0  0  0  0  0
  -18.0304  -26.0071   22.9025 H   0  0  0  0  0  0
  -19.7905  -30.7242   24.2304 H   0  0  0  0  0  0
  -17.4980  -31.6260   24.5131 H   0  0  0  0  0  0
  -15.5320  -30.2958   23.7669 H   0  0  0  0  0  0
  -15.8642  -28.0819   22.7035 H   0  0  0  0  0  0
  -24.5915  -30.7055   25.7811 H   0  0  0  0  0  0
  -24.8945  -32.2864   26.4976 H   0  0  0  0  0  0
  -25.8129  -30.8843   27.0210 H   0  0  0  0  0  0
  -26.2797  -29.6875   24.1120 H   0  0  0  0  0  0
  -27.4030  -29.7280   25.4492 H   0  0  0  0  0  0
  -27.8639  -30.4409   23.9219 H   0  0  0  0  0  0
  -27.2719  -33.3575   26.2149 H   0  0  0  0  0  0
  -28.3845  -32.6903   25.0302 H   0  0  0  0  0  0
  -28.0766  -31.8370   26.5317 H   0  0  0  0  0  0
  -28.2601  -38.0118   24.7527 H   0  0  0  0  0  0
  -28.1103  -36.2647   24.6287 H   0  0  0  0  0  0
  -27.2323  -37.1455   25.8870 H   0  0  0  0  0  0
  -20.9292  -29.8797   21.7100 H   0  0  0  0  0  0
  -26.0207  -38.2897   24.1416 H   0  0  0  0  0  0
  -29.3457  -17.1148   23.0425 H   0  0  0  0  0  0
  -33.5295  -17.4506   22.2054 H   0  0  0  0  0  0
  -29.9983  -25.4605   21.3661 H   0  0  0  0  0  0
  -28.5580  -24.8515   22.0939 H   0  0  0  0  0  0
  -31.8280  -24.0902   18.4819 H   0  0  0  0  0  0
  -31.1808  -25.3266   19.4960 H   0  0  0  0  0  0
  -30.7377  -22.2697   19.7188 H   0  0  0  0  0  0
  -27.2664  -24.9828   20.3440 H   0  0  0  0  0  0
  -28.0016  -25.3085   17.8928 H   0  0  0  0  0  0
  -28.6378  -20.1664   24.1007 H   0  0  0  0  0  0
  -27.9446  -18.9318   23.0540 H   0  0  0  0  0  0
  -28.4409  -20.4517   22.3589 H   0  0  0  0  0  0
  -34.6436  -19.3959   22.0785 H   0  0  0  0  0  0
  -34.0289  -20.7639   22.9736 H   0  0  0  0  0  0
  -33.7525  -20.6417   21.2217 H   0  0  0  0  0  0
  -25.6325  -24.0953   18.2965 H   0  0  0  0  0  0
  -25.7798  -22.5123   17.5979 H   0  0  0  0  0  0
  -26.4100  -23.9025   16.7284 H   0  0  0  0  0  0
  -29.3153  -21.8086   18.1049 H   0  0  0  0  0  0
  -28.6725  -22.4605   16.5976 H   0  0  0  0  0  0
  -27.7816  -21.2599   17.5088 H   0  0  0  0  0  0
  -32.6292  -15.3267   22.4386 H   0  0  0  0  0  0
  -31.5274  -15.3250   23.7787 H   0  0  0  0  0  0
  -31.3207  -21.6568   23.9634 H   0  0  0  0  0  0
  -30.0947  -21.8313   22.8090 H   0  0  0  0  0  0
  -27.4773  -22.8275   19.3905 H   0  0  0  0  0  0
  -29.7521  -23.0408   21.9263 H   0  0  0  0  0  0
  -32.9397  -22.4856   22.7112 H   0  0  0  0  0  0
  -29.8755  -14.4119   22.5193 H   0  0  0  0  0  0
  -29.8501  -23.6609   17.5142 H   0  0  0  0  0  0
  -30.0455  -25.2669   17.5263 H   0  0  0  0  0  0
  1 25  1  0  0  0
  1 30  2  0  0  0
  1 92  1  0  0  0
  2  3  1  0  0  0
  2 25  1  0  0  0
  2 95  1  0  0  0
  2 96  1  0  0  0
  3  4  1  0  0  0
  3 97  1  0  0  0
  3 98  1  0  0  0
  4  5  1  0  0  0
  4 99  1  0  0  0
  4100  1  0  0  0
  5  6  1  0  0  0
  5 26  1  0  0  0
  5101  1  0  0  0
  6 25  1  0  0  0
  6102  1  0  0  0
  6103  1  0  0  0
  7  8  2  0  0  0
  7 26  1  0  0  0
  7 29  1  0  0  0
  8  9  1  0  0  0
  8 22  1  0  0  0
  9 10  1  0  0  0
  9 27  2  0  0  0
 10 11  2  0  0  0
 10 15  1  0  0  0
 11 12  1  0  0  0
 11104  1  0  0  0
 12 13  2  0  0  0
 12105  1  0  0  0
 13 14  1  0  0  0
 13 31  1  0  0  0
 14 15  2  0  0  0
 14106  1  0  0  0
 15107  1  0  0  0
 16 17  2  0  0  0
 16 21  1  0  0  0
 16 31  1  0  0  0
 17 18  1  0  0  0
 17108  1  0  0  0
 18 19  2  0  0  0
 18109  1  0  0  0
 19 20  1  0  0  0
 19 24  1  0  0  0
 20 21  2  0  0  0
 20110  1  0  0  0
 21 23  1  0  0  0
 22 28  1  0  0  0
 22 32  2  0  0  0
 26 27  1  0  0  0
 28111  1  0  0  0
 28112  1  0  0  0
 29113  1  0  0  0
 29114  1  0  0  0
 33 34  1  0  0  0
 33 66  1  0  0  0
 33 70  2  0  0  0
 34 36  1  0  0  0
 34 59  1  0  0  0
 34115  1  0  0  0
 35 44  2  0  0  0
 35 45  1  0  0  0
 35 68  1  0  0  0
 36 56  1  0  0  0
 36116  1  0  0  0
 37 39  1  0  0  0
 37 47  1  0  0  0
 37 66  1  0  0  0
 37117  1  0  0  0
 38 43  2  0  0  0
 38 46  1  0  0  0
 38 47  1  0  0  0
 39 64  1  0  0  0
 39 67  2  0  0  0
 40 52  1  0  0  0
 40 53  2  0  0  0
 40 58  1  0  0  0
 41118  1  0  0  0
 41119  1  0  0  0
 41120  1  0  0  0
 41 48  1  0  0  0
 42 43  1  0  0  0
 42 66  1  0  0  0
 42121  1  0  0  0
 42122  1  0  0  0
 43 44  1  0  0  0
 44123  1  0  0  0
 45 46  2  0  0  0
 45124  1  0  0  0
 46125  1  0  0  0
 47126  1  0  0  0
 47127  1  0  0  0
 48 56  1  0  0  0
 48 65  1  0  0  0
 48128  1  0  0  0
 49 50  1  0  0  0
 49 53  1  0  0  0
 49 64  1  0  0  0
 49129  1  0  0  0
 50 51  1  0  0  0
 50130  1  0  0  0
 50131  1  0  0  0
 51 52  1  0  0  0
 51132  1  0  0  0
 51133  1  0  0  0
 52134  1  0  0  0
 52135  1  0  0  0
 53 54  1  0  0  0
 54 55  2  0  0  0
 54136  1  0  0  0
 55 57  1  0  0  0
 55137  1  0  0  0
 56 69  2  0  0  0
 57 58  2  0  0  0
 57138  1  0  0  0
 58139  1  0  0  0
 59 60  1  0  0  0
 59 61  1  0  0  0
 59 62  1  0  0  0
 60140  1  0  0  0
 60141  1  0  0  0
 60142  1  0  0  0
 61143  1  0  0  0
 61144  1  0  0  0
 61145  1  0  0  0
 62146  1  0  0  0
 62147  1  0  0  0
 62148  1  0  0  0
 63 65  1  0  0  0
 63149  1  0  0  0
 63150  1  0  0  0
 63151  1  0  0  0
 64152  1  0  0  0
 65153  1  0  0  0
 68 81  1  0  0  0
 71 73  2  0  0  0
 71 74  1  0  0  0
 71154  1  0  0  0
 72 73  1  0  0  0
 72 75  2  0  0  0
 72155  1  0  0  0
 73 87  1  0  0  0
 74 76  2  0  0  0
 74 83  1  0  0  0
 75 76  1  0  0  0
 75 84  1  0  0  0
 76 88  1  0  0  0
 77 91  1  0  0  0
 77 94  2  0  0  0
 77 80  1  0  0  0
 78 81  1  0  0  0
 78 90  1  0  0  0
 78156  1  0  0  0
 78157  1  0  0  0
 79 80  1  0  0  0
 79 93  1  0  0  0
 79158  1  0  0  0
 79159  1  0  0  0
 80 90  1  0  0  0
 80160  1  0  0  0
 81 82  1  0  0  0
 81161  1  0  0  0
 82 89  1  0  0  0
 82 93  1  0  0  0
 82162  1  0  0  0
 83163  1  0  0  0
 83164  1  0  0  0
 83165  1  0  0  0
 84166  1  0  0  0
 84167  1  0  0  0
 84168  1  0  0  0
 85169  1  0  0  0
 85170  1  0  0  0
 85171  1  0  0  0
 85 89  1  0  0  0
 86 89  1  0  0  0
 86172  1  0  0  0
 86173  1  0  0  0
 86174  1  0  0  0
 87 92  1  0  0  0
 87175  1  0  0  0
 87176  1  0  0  0
 88 91  1  0  0  0
 88177  1  0  0  0
 88178  1  0  0  0
 89179  1  0  0  0
 90180  1  0  0  0
 91181  1  0  0  0
 92182  1  0  0  0
 93183  1  0  0  0
 93184  1  0  0  0
M  CHG  1  93   1
M  ISO  4   1 100  68 101  81 101  92 100
M  END
> <chiral flag>
0

> <version>
0

> <s_m_source_file>
/data/baiqing/PycharmProjects/Reinvent-master-3.2/result/LINK_invent/BTK/process_docking_weight1_custom_sum_contain_oxygen_bond_distance_aromatic_linkinvent_7_9_3/rearranged_h_0136.sdf

> <i_m_source_file_index>
80

> <r_mmod_Potential_Energy-OPLS-2005>
-97.606575012207

> <r_mmod_Stretch_Energy-OPLS-2005>
47.6991920471191

> <r_mmod_Bend_Energy-OPLS-2005>
161.479309082031

> <r_mmod_Torsional_Energy-OPLS-2005>
297.214599609375

> <r_mmod_Improper_Torsional_Energy-OPLS-2005>
5.44620084762573

> <r_mmod_Van_der_Waal_Energy-OPLS-2005>
187.632232666016

> <r_mmod_Electrostatic_Energy-OPLS-2005>
-376.386077880859

> <r_mmod_Solvation_Energy-OPLS-2005>
-431.332183837891

> <b_mmod_Minimization_Converged-OPLS-2005>
0

> <r_mmod_RMS_Derivative-OPLS-2005>
4.43940305709839

$$$$
83
                    3D
 Structure written by MMmdl.
171180  0  0  1  0            999 V2000
  -30.7233  -14.4345   20.5602 C   0  0  0  0  0  0
  -30.4189  -12.2803   19.4123 C   0  0  0  0  0  0
  -29.4933  -12.5068   18.1998 C   0  0  0  0  0  0
  -28.0161  -12.3735   18.6148 C   0  0  0  0  0  0
  -27.6703  -13.1961   19.8840 C   0  0  2  0  0  0
  -28.7149  -12.9712   21.0010 C   0  0  0  0  0  0
  -25.2676  -13.8123   20.5671 C   0  0  0  0  0  0
  -24.1900  -13.0431   20.9166 C   0  0  0  0  0  0
  -24.6420  -11.6889   20.8720 C   0  0  0  0  0  0
  -23.9061  -10.4302   21.0396 C   0  0  0  0  0  0
  -24.3622   -9.4216   21.9166 C   0  0  0  0  0  0
  -23.6308   -8.2245   22.0723 C   0  0  0  0  0  0
  -22.4290   -8.0293   21.3523 C   0  0  0  0  0  0
  -21.9922   -9.0259   20.4615 C   0  0  0  0  0  0
  -22.7237  -10.2143   20.3036 C   0  0  0  0  0  0
  -21.6859   -6.0756   22.5284 C   0  0  0  0  0  0
  -21.4010   -6.5651   23.8227 C   0  0  0  0  0  0
  -21.3653   -5.6800   24.9180 C   0  0  0  0  0  0
  -21.6044   -4.3063   24.7225 C   0  0  0  0  0  0
  -21.8817   -3.8163   23.4351 C   0  0  0  0  0  0
  -21.9192   -4.6986   22.3407 C   0  0  0  0  0  0
  -22.7918  -13.5236   21.1845 C   0  0  0  0  0  0
  -22.1656   -4.2167   21.0990 F   0  0  0  0  0  0
  -21.5644   -3.4546   25.7738 F   0  0  0  0  0  0
  -30.0459  -13.2624   20.4421 N   0  0  0  0  0  0
  -26.3099  -12.9265   20.3418 N   0  0  0  0  0  0
  -25.9358  -11.6432   20.5763 N   0  0  0  0  0  0
  -22.0571  -12.8214   22.0376 N   0  0  0  0  0  0
  -25.4479  -15.1819   20.4024 N   0  0  0  0  0  0
  -31.8449  -14.6192   20.0824 O   0  0  0  0  0  0
  -21.6637   -6.8907   21.4253 O   0  0  0  0  0  0
  -22.3604  -14.5569   20.6736 O   0  0  0  0  0  0
  -24.6149  -31.8677   23.2095 C   0  0  0  0  0  0
  -25.9044  -32.4822   23.8383 C   0  0  1  0  0  0
  -27.2394  -27.4464   20.0657 C   0  0  0  0  0  0
  -25.5900  -33.8623   24.2300 N   0  0  0  0  0  0
  -23.4016  -30.4925   21.5505 C   0  0  2  0  0  0
  -24.8463  -28.9593   20.1164 C   0  0  0  0  0  0
  -22.7406  -29.4649   22.4970 C   0  0  0  0  0  0
  -18.0276  -28.1370   22.8469 C   0  0  0  0  0  0
  -24.1499  -36.7325   23.2627 C   0  0  0  0  0  0
  -25.9324  -30.8328   21.3633 C   0  0  0  0  0  0
  -26.0083  -29.4686   20.7081 C   0  0  0  0  0  0
  -27.2063  -28.7192   20.6822 C   0  0  0  0  0  0
  -26.0483  -26.9449   19.4854 C   0  0  0  0  0  0
  -24.8592  -27.6949   19.5076 C   0  0  0  0  0  0
  -23.6108  -29.8262   20.1654 C   0  0  0  0  0  0
  -25.4119  -36.3102   24.0312 C   0  0  1  0  0  0
  -20.5864  -28.3643   23.1315 C   0  0  2  0  0  0
  -20.6757  -26.9380   22.5407 C   0  0  0  0  0  0
  -19.5746  -26.6374   21.5195 C   0  0  0  0  0  0
  -18.1925  -26.7911   22.1608 C   0  0  0  0  0  0
  -19.1523  -28.8819   23.2891 C   0  0  0  0  0  0
  -18.9445  -30.1425   23.8907 C   0  0  0  0  0  0
  -17.6453  -30.6573   24.0560 C   0  0  0  0  0  0
  -25.9039  -34.9469   23.5097 C   0  0  0  0  0  0
  -16.5348  -29.9073   23.6322 C   0  0  0  0  0  0
  -16.7266  -28.6497   23.0333 C   0  0  0  0  0  0
  -26.4466  -31.6628   25.0728 C   0  0  0  0  0  0
  -25.3710  -31.3750   26.1467 C   0  0  0  0  0  0
  -27.0290  -30.3065   24.6114 C   0  0  0  0  0  0
  -27.6043  -32.4337   25.7492 C   0  0  0  0  0  0
  -27.5589  -37.1799   24.8439 C   0  0  0  0  0  0
  -21.4135  -29.3027   22.3723 N   0  0  0  0  0  0
  -26.4296  -37.3795   23.9394 N   0  0  0  0  0  0
  -24.6676  -31.0780   22.0999 N   0  0  0  0  0  0
  -23.4186  -28.8172   23.2985 O   0  0  0  0  0  0
  -28.4301  -26.7470   20.0489 O   0  0  0  0  0  0
  -26.5607  -34.8921   22.4665 O   0  0  0  0  0  0
  -23.5344  -32.1427   23.7491 O   0  0  0  0  0  0
  -31.0275  -21.7576   15.7234 C   0  0  0  0  0  0
  -30.4916  -23.0572   15.7627 C   0  0  0  0  0  0
  -31.1235  -21.0084   16.9088 C   0  0  0  0  0  0
  -30.0659  -23.6101   16.9849 C   0  0  0  0  0  0
  -30.6897  -21.5509   18.1389 C   0  0  0  0  0  0
  -30.1759  -22.8720   18.1890 C   0  0  0  0  0  0
  -29.6297  -19.3159   21.0843 C   0  0  0  0  0  0
  -29.2037  -17.8379   20.9222 C   0  0  1  0  0  0
  -28.4120  -17.8749   19.6005 C   0  0  1  0  0  0
  -29.0622  -18.9910   18.7687 C   0  0  1  0  0  0
  -28.0543  -19.5714   17.7521 C   0  0  0  0  0  0
  -30.8071  -20.7027   19.4024 C   0  0  0  0  0  0
  -30.4170  -16.8668   20.9760 C   0  0  0  0  0  0
  -28.4358  -25.4330   19.4815 C   0  0  0  0  0  0
  -29.8279  -24.7926   19.6163 C   0  0  0  0  0  0
  -30.0308  -15.4518   21.0923 N   0  0  0  0  0  0
  -29.5521  -19.9870   19.7585 N   0  3  2  0  0  0
  -28.3517  -16.6398   18.9043 O   0  0  0  0  0  0
  -29.7935  -23.3748   19.4159 O   0  0  0  0  0  0
  -31.4659  -12.3607   19.1138 H   0  0  0  0  0  0
  -30.2984  -11.2656   19.7968 H   0  0  0  0  0  0
  -29.7239  -11.7935   17.4071 H   0  0  0  0  0  0
  -29.6674  -13.4982   17.7785 H   0  0  0  0  0  0
  -27.8148  -11.3176   18.7955 H   0  0  0  0  0  0
  -27.3666  -12.6712   17.7899 H   0  0  0  0  0  0
  -27.7181  -14.2428   19.5943 H   0  0  0  0  0  0
  -28.6821  -11.9379   21.3494 H   0  0  0  0  0  0
  -28.4880  -13.5777   21.8780 H   0  0  0  0  0  0
  -25.2763   -9.5708   22.4732 H   0  0  0  0  0  0
  -24.0028   -7.4633   22.7436 H   0  0  0  0  0  0
  -21.0860   -8.8794   19.8907 H   0  0  0  0  0  0
  -22.3705  -10.9702   19.6147 H   0  0  0  0  0  0
  -21.1997   -7.6155   23.9749 H   0  0  0  0  0  0
  -21.1456   -6.0514   25.9086 H   0  0  0  0  0  0
  -22.0595   -2.7626   23.2849 H   0  0  0  0  0  0
  -22.4194  -11.9875   22.4763 H   0  0  0  0  0  0
  -21.1181  -13.1218   22.2562 H   0  0  0  0  0  0
  -24.6910  -15.8492   20.5009 H   0  0  0  0  0  0
  -26.3070  -15.5941   20.0556 H   0  0  0  0  0  0
  -26.7122  -32.5512   23.1151 H   0  0  0  0  0  0
  -25.0028  -33.9800   25.0426 H   0  0  0  0  0  0
  -22.6895  -31.3091   21.4092 H   0  0  0  0  0  0
  -23.3752  -35.9665   23.3272 H   0  0  0  0  0  0
  -24.3598  -36.8982   22.2047 H   0  0  0  0  0  0
  -23.7277  -37.6525   23.6678 H   0  0  0  0  0  0
  -26.0487  -31.6011   20.5973 H   0  0  0  0  0  0
  -26.8212  -30.8823   21.9828 H   0  0  0  0  0  0
  -28.1076  -29.1151   21.1309 H   0  0  0  0  0  0
  -26.0082  -25.9799   19.0034 H   0  0  0  0  0  0
  -23.9650  -27.2940   19.0498 H   0  0  0  0  0  0
  -23.7171  -30.6000   19.4043 H   0  0  0  0  0  0
  -22.7359  -29.2443   19.8690 H   0  0  0  0  0  0
  -25.1303  -36.1949   25.0804 H   0  0  0  0  0  0
  -20.9960  -28.3205   24.1435 H   0  0  0  0  0  0
  -20.5661  -26.2240   23.3582 H   0  0  0  0  0  0
  -21.6632  -26.7420   22.1205 H   0  0  0  0  0  0
  -19.6915  -25.6287   21.1220 H   0  0  0  0  0  0
  -19.6721  -27.3181   20.6721 H   0  0  0  0  0  0
  -17.4199  -26.6648   21.4011 H   0  0  0  0  0  0
  -18.0339  -26.0056   22.9010 H   0  0  0  0  0  0
  -19.7934  -30.7224   24.2300 H   0  0  0  0  0  0
  -17.5021  -31.6261   24.5142 H   0  0  0  0  0  0
  -15.5353  -30.2983   23.7646 H   0  0  0  0  0  0
  -15.8659  -28.0835   22.7031 H   0  0  0  0  0  0
  -24.5865  -30.7126   25.7794 H   0  0  0  0  0  0
  -24.8915  -32.2917   26.4911 H   0  0  0  0  0  0
  -25.8032  -30.8909   27.0239 H   0  0  0  0  0  0
  -26.2846  -29.6835   24.1148 H   0  0  0  0  0  0
  -27.4043  -29.7298   25.4584 H   0  0  0  0  0  0
  -27.8685  -30.4387   23.9283 H   0  0  0  0  0  0
  -27.2677  -33.3628   26.2106 H   0  0  0  0  0  0
  -28.3838  -32.6924   25.0314 H   0  0  0  0  0  0
  -28.0729  -31.8442   26.5385 H   0  0  0  0  0  0
  -28.2559  -38.0143   24.7539 H   0  0  0  0  0  0
  -28.1138  -36.2671   24.6200 H   0  0  0  0  0  0
  -27.2303  -37.1361   25.8840 H   0  0  0  0  0  0
  -20.9276  -29.8793   21.7002 H   0  0  0  0  0  0
  -26.0171  -38.2861   24.1435 H   0  0  0  0  0  0
  -31.3557  -21.3336   14.7836 H   0  0  0  0  0  0
  -30.4057  -23.6328   14.8518 H   0  0  0  0  0  0
  -31.5296  -20.0065   16.8669 H   0  0  0  0  0  0
  -29.6533  -24.6072   16.9698 H   0  0  0  0  0  0
  -30.6177  -19.4069   21.5407 H   0  0  0  0  0  0
  -28.9421  -19.8342   21.7530 H   0  0  0  0  0  0
  -28.5343  -17.5754   21.7422 H   0  0  0  0  0  0
  -27.3883  -18.1704   19.8377 H   0  0  0  0  0  0
  -29.9257  -18.5787   18.2443 H   0  0  0  0  0  0
  -27.1530  -19.9439   18.2420 H   0  0  0  0  0  0
  -27.7442  -18.8053   17.0423 H   0  0  0  0  0  0
  -28.4655  -20.3886   17.1634 H   0  0  0  0  0  0
  -31.0944  -21.3563   20.2274 H   0  0  0  0  0  0
  -31.6251  -19.9870   19.2945 H   0  0  0  0  0  0
  -31.0363  -17.0250   20.0914 H   0  0  0  0  0  0
  -31.0466  -17.1055   21.8339 H   0  0  0  0  0  0
  -27.7138  -24.8062   20.0070 H   0  0  0  0  0  0
  -28.1431  -25.4720   18.4315 H   0  0  0  0  0  0
  -30.1830  -24.9399   20.6367 H   0  0  0  0  0  0
  -30.5621  -25.2911   18.9809 H   0  0  0  0  0  0
  -29.1091  -15.2418   21.4437 H   0  0  0  0  0  0
  -28.8387  -20.6937   19.8538 H   0  0  0  0  0  0
  -27.9008  -16.7877   18.0783 H   0  0  0  0  0  0
  1 25  1  0  0  0
  1 30  2  0  0  0
  1 86  1  0  0  0
  2  3  1  0  0  0
  2 25  1  0  0  0
  2 90  1  0  0  0
  2 91  1  0  0  0
  3  4  1  0  0  0
  3 92  1  0  0  0
  3 93  1  0  0  0
  4  5  1  0  0  0
  4 94  1  0  0  0
  4 95  1  0  0  0
  5  6  1  0  0  0
  5 26  1  0  0  0
  5 96  1  0  0  0
  6 25  1  0  0  0
  6 97  1  0  0  0
  6 98  1  0  0  0
  7  8  2  0  0  0
  7 26  1  0  0  0
  7 29  1  0  0  0
  8  9  1  0  0  0
  8 22  1  0  0  0
  9 10  1  0  0  0
  9 27  2  0  0  0
 10 11  2  0  0  0
 10 15  1  0  0  0
 11 12  1  0  0  0
 11 99  1  0  0  0
 12 13  2  0  0  0
 12100  1  0  0  0
 13 14  1  0  0  0
 13 31  1  0  0  0
 14 15  2  0  0  0
 14101  1  0  0  0
 15102  1  0  0  0
 16 17  2  0  0  0
 16 21  1  0  0  0
 16 31  1  0  0  0
 17 18  1  0  0  0
 17103  1  0  0  0
 18 19  2  0  0  0
 18104  1  0  0  0
 19 20  1  0  0  0
 19 24  1  0  0  0
 20 21  2  0  0  0
 20105  1  0  0  0
 21 23  1  0  0  0
 22 28  1  0  0  0
 22 32  2  0  0  0
 26 27  1  0  0  0
 28106  1  0  0  0
 28107  1  0  0  0
 29108  1  0  0  0
 29109  1  0  0  0
 33 34  1  0  0  0
 33 66  1  0  0  0
 33 70  2  0  0  0
 34 36  1  0  0  0
 34 59  1  0  0  0
 34110  1  0  0  0
 35 44  2  0  0  0
 35 45  1  0  0  0
 35 68  1  0  0  0
 36 56  1  0  0  0
 36111  1  0  0  0
 37 39  1  0  0  0
 37 47  1  0  0  0
 37 66  1  0  0  0
 37112  1  0  0  0
 38 43  2  0  0  0
 38 46  1  0  0  0
 38 47  1  0  0  0
 39 64  1  0  0  0
 39 67  2  0  0  0
 40 52  1  0  0  0
 40 53  2  0  0  0
 40 58  1  0  0  0
 41113  1  0  0  0
 41114  1  0  0  0
 41115  1  0  0  0
 41 48  1  0  0  0
 42 43  1  0  0  0
 42 66  1  0  0  0
 42116  1  0  0  0
 42117  1  0  0  0
 43 44  1  0  0  0
 44118  1  0  0  0
 45 46  2  0  0  0
 45119  1  0  0  0
 46120  1  0  0  0
 47121  1  0  0  0
 47122  1  0  0  0
 48 56  1  0  0  0
 48 65  1  0  0  0
 48123  1  0  0  0
 49 50  1  0  0  0
 49 53  1  0  0  0
 49 64  1  0  0  0
 49124  1  0  0  0
 50 51  1  0  0  0
 50125  1  0  0  0
 50126  1  0  0  0
 51 52  1  0  0  0
 51127  1  0  0  0
 51128  1  0  0  0
 52129  1  0  0  0
 52130  1  0  0  0
 53 54  1  0  0  0
 54 55  2  0  0  0
 54131  1  0  0  0
 55 57  1  0  0  0
 55132  1  0  0  0
 56 69  2  0  0  0
 57 58  2  0  0  0
 57133  1  0  0  0
 58134  1  0  0  0
 59 60  1  0  0  0
 59 61  1  0  0  0
 59 62  1  0  0  0
 60135  1  0  0  0
 60136  1  0  0  0
 60137  1  0  0  0
 61138  1  0  0  0
 61139  1  0  0  0
 61140  1  0  0  0
 62141  1  0  0  0
 62142  1  0  0  0
 62143  1  0  0  0
 63 65  1  0  0  0
 63144  1  0  0  0
 63145  1  0  0  0
 63146  1  0  0  0
 64147  1  0  0  0
 65148  1  0  0  0
 68 84  1  0  0  0
 71 72  2  0  0  0
 71 73  1  0  0  0
 71149  1  0  0  0
 72 74  1  0  0  0
 72150  1  0  0  0
 73 75  2  0  0  0
 73151  1  0  0  0
 74 76  2  0  0  0
 74152  1  0  0  0
 75 76  1  0  0  0
 75 82  1  0  0  0
 76 89  1  0  0  0
 77 78  1  0  0  0
 77 87  1  0  0  0
 77153  1  0  0  0
 77154  1  0  0  0
 78 79  1  0  0  0
 78 83  1  0  0  0
 78155  1  0  0  0
 79 80  1  0  0  0
 79 88  1  0  0  0
 79156  1  0  0  0
 80 81  1  0  0  0
 80 87  1  0  0  0
 80157  1  0  0  0
 81158  1  0  0  0
 81159  1  0  0  0
 81160  1  0  0  0
 82161  1  0  0  0
 82162  1  0  0  0
 82 87  1  0  0  0
 83 86  1  0  0  0
 83163  1  0  0  0
 83164  1  0  0  0
 84 85  1  0  0  0
 84165  1  0  0  0
 84166  1  0  0  0
 85 89  1  0  0  0
 85167  1  0  0  0
 85168  1  0  0  0
 86169  1  0  0  0
 87170  1  0  0  0
 88171  1  0  0  0
M  CHG  1  87   1
M  ISO  4   1 100  68 101  84 101  86 100
M  END
> <chiral flag>
0

> <version>
0

> <s_m_source_file>
/data/baiqing/PycharmProjects/Reinvent-master-3.2/result/LINK_invent/BTK/process_docking_weight1_custom_sum_contain_oxygen_bond_distance_aromatic_linkinvent_7_9_3/rearranged_h_0136.sdf

> <i_m_source_file_index>
81

> <r_mmod_Potential_Energy-OPLS-2005>
-140.080657958984

> <r_mmod_Stretch_Energy-OPLS-2005>
37.3770408630371

> <r_mmod_Bend_Energy-OPLS-2005>
124.288879394531

> <r_mmod_Torsional_Energy-OPLS-2005>
275.895080566406

> <r_mmod_Improper_Torsional_Energy-OPLS-2005>
3.96707677841187

> <r_mmod_Van_der_Waal_Energy-OPLS-2005>
153.139282226562

> <r_mmod_Electrostatic_Energy-OPLS-2005>
-289.916320800781

> <r_mmod_Solvation_Energy-OPLS-2005>
-455.766448974609

> <b_mmod_Minimization_Converged-OPLS-2005>
0

> <r_mmod_RMS_Derivative-OPLS-2005>
2.69093942642212

$$$$
84
                    3D
 Structure written by MMmdl.
166175  0  0  1  0            999 V2000
  -30.5999  -14.8310   20.4317 C   0  0  0  0  0  0
  -30.4290  -12.5077   19.4945 C   0  0  0  0  0  0
  -29.5150  -12.5155   18.2488 C   0  0  0  0  0  0
  -28.0428  -12.3270   18.6606 C   0  0  0  0  0  0
  -27.6347  -13.2434   19.8451 C   0  0  2  0  0  0
  -28.6770  -13.2313   20.9847 C   0  0  0  0  0  0
  -25.2474  -13.8215   20.5700 C   0  0  0  0  0  0
  -24.1783  -13.0444   20.9216 C   0  0  0  0  0  0
  -24.6393  -11.6928   20.8748 C   0  0  0  0  0  0
  -23.9077  -10.4296   21.0402 C   0  0  0  0  0  0
  -24.3625   -9.4213   21.9185 C   0  0  0  0  0  0
  -23.6298   -8.2246   22.0756 C   0  0  0  0  0  0
  -22.4281   -8.0283   21.3544 C   0  0  0  0  0  0
  -21.9916   -9.0256   20.4646 C   0  0  0  0  0  0
  -22.7244  -10.2136   20.3054 C   0  0  0  0  0  0
  -21.6856   -6.0737   22.5280 C   0  0  0  0  0  0
  -21.4016   -6.5641   23.8214 C   0  0  0  0  0  0
  -21.3662   -5.6793   24.9176 C   0  0  0  0  0  0
  -21.6039   -4.3055   24.7226 C   0  0  0  0  0  0
  -21.8820   -3.8148   23.4348 C   0  0  0  0  0  0
  -21.9193   -4.6964   22.3403 C   0  0  0  0  0  0
  -22.7803  -13.5215   21.1876 C   0  0  0  0  0  0
  -22.1660   -4.2148   21.0981 F   0  0  0  0  0  0
  -21.5630   -3.4540   25.7739 F   0  0  0  0  0  0
  -29.9687  -13.5988   20.3943 N   0  0  0  0  0  0
  -26.2908  -12.9444   20.3267 N   0  0  0  0  0  0
  -25.9327  -11.6577   20.5746 N   0  0  0  0  0  0
  -22.0450  -12.8201   22.0428 N   0  0  0  0  0  0
  -25.4133  -15.1943   20.4122 N   0  0  0  0  0  0
  -31.7952  -14.8811   20.1293 O   0  0  0  0  0  0
  -21.6642   -6.8882   21.4243 O   0  0  0  0  0  0
  -22.3483  -14.5518   20.6721 O   0  0  0  0  0  0
  -24.6369  -31.8503   23.1928 C   0  0  0  0  0  0
  -25.9173  -32.4728   23.8295 C   0  0  1  0  0  0
  -27.2161  -27.1962   20.1408 C   0  0  0  0  0  0
  -25.5951  -33.8530   24.2212 N   0  0  0  0  0  0
  -23.4361  -30.4724   21.5375 C   0  0  2  0  0  0
  -24.8831  -28.9086   20.1124 C   0  0  0  0  0  0
  -22.7530  -29.4579   22.4882 C   0  0  0  0  0  0
  -18.0295  -28.1395   22.8487 C   0  0  0  0  0  0
  -24.1487  -36.7255   23.2640 C   0  0  0  0  0  0
  -25.9878  -30.7428   21.3829 C   0  0  0  0  0  0
  -26.0586  -29.3593   20.7257 C   0  0  0  0  0  0
  -27.2266  -28.5190   20.7235 C   0  0  0  0  0  0
  -26.0147  -26.8321   19.4927 C   0  0  0  0  0  0
  -24.8711  -27.6561   19.4828 C   0  0  0  0  0  0
  -23.6574  -29.8040   20.1553 C   0  0  0  0  0  0
  -25.4121  -36.3048   24.0317 C   0  0  1  0  0  0
  -20.5905  -28.3707   23.1254 C   0  0  2  0  0  0
  -20.6774  -26.9415   22.5410 C   0  0  0  0  0  0
  -19.5748  -26.6384   21.5217 C   0  0  0  0  0  0
  -18.1930  -26.7939   22.1630 C   0  0  0  0  0  0
  -19.1552  -28.8871   23.2863 C   0  0  0  0  0  0
  -18.9480  -30.1473   23.8881 C   0  0  0  0  0  0
  -17.6482  -30.6598   24.0564 C   0  0  0  0  0  0
  -25.9072  -34.9423   23.5069 C   0  0  0  0  0  0
  -16.5369  -29.9094   23.6338 C   0  0  0  0  0  0
  -16.7281  -28.6513   23.0356 C   0  0  0  0  0  0
  -26.4509  -31.6565   25.0710 C   0  0  0  0  0  0
  -25.3718  -31.3744   26.1425 C   0  0  0  0  0  0
  -27.0356  -30.2968   24.6247 C   0  0  0  0  0  0
  -27.6038  -32.4320   25.7512 C   0  0  0  0  0  0
  -27.5567  -37.1783   24.8470 C   0  0  0  0  0  0
  -21.4233  -29.3039   22.3627 N   0  0  0  0  0  0
  -26.4282  -37.3760   23.9408 N   0  0  0  0  0  0
  -24.7061  -31.0417   22.0932 N   0  0  0  0  0  0
  -23.4208  -28.8129   23.3004 O   0  0  0  0  0  0
  -28.3007  -26.2659   20.1918 O   0  0  0  0  0  0
  -26.5659  -34.8916   22.4647 O   0  0  0  0  0  0
  -23.5507  -32.1344   23.7195 O   0  0  0  0  0  0
  -28.6967  -21.0727   19.5175 C   0  0  0  0  0  0
  -28.9561  -19.6454   19.4445 C   0  0  0  0  0  0
  -30.1445  -19.7522   21.4807 C   0  0  0  0  0  0
  -29.1788  -21.9313   20.5608 C   0  0  0  0  0  0
  -29.7186  -18.9118   20.4125 C   0  0  0  0  0  0
  -29.9051  -21.1762   21.5527 C   0  0  0  0  0  0
  -29.0851  -23.5635   20.6267 C   0  0  2  0  0  0
  -28.0445  -24.2022   21.5330 C   0  0  2  0  0  0
  -28.0752  -24.7462   20.1230 C   0  0  2  0  0  0
  -30.5577  -21.9021   22.7190 C   0  0  0  0  0  0
  -25.7434  -21.6191   23.1667 C   0  0  0  0  0  0
  -26.5380  -23.7615   24.2575 C   0  0  0  0  0  0
  -30.3625  -17.4361   20.1582 C   0  0  0  0  0  0
  -26.7945  -22.7399   23.1318 C   0  0  0  0  0  0
  -29.8697  -16.0245   20.5659 N   0  0  0  0  0  0
  -26.8420  -23.3783   21.7931 N   0  3  0  0  0  0
  -31.4702  -12.6292   19.1924 H   0  0  0  0  0  0
  -30.3799  -11.5440   20.0043 H   0  0  0  0  0  0
  -29.8134  -11.7301   17.5529 H   0  0  0  0  0  0
  -29.6302  -13.4595   17.7137 H   0  0  0  0  0  0
  -27.9142  -11.2811   18.9418 H   0  0  0  0  0  0
  -27.3857  -12.4946   17.8067 H   0  0  0  0  0  0
  -27.6124  -14.2550   19.4397 H   0  0  0  0  0  0
  -28.7310  -12.2492   21.4565 H   0  0  0  0  0  0
  -28.3990  -13.9375   21.7689 H   0  0  0  0  0  0
  -25.2771   -9.5690   22.4760 H   0  0  0  0  0  0
  -24.0008   -7.4639   22.7478 H   0  0  0  0  0  0
  -21.0848   -8.8774   19.8950 H   0  0  0  0  0  0
  -22.3702  -10.9675   19.6161 H   0  0  0  0  0  0
  -21.2008   -7.6149   23.9716 H   0  0  0  0  0  0
  -21.1481   -6.0524   25.9078 H   0  0  0  0  0  0
  -22.0595   -2.7609   23.2848 H   0  0  0  0  0  0
  -22.4074  -11.9869   22.4825 H   0  0  0  0  0  0
  -21.1060  -13.1212   22.2620 H   0  0  0  0  0  0
  -24.6427  -15.8444   20.5236 H   0  0  0  0  0  0
  -26.2546  -15.6365   20.0648 H   0  0  0  0  0  0
  -26.7236  -32.5357   23.1027 H   0  0  0  0  0  0
  -25.0080  -33.9660   25.0345 H   0  0  0  0  0  0
  -22.7338  -31.2949   21.3876 H   0  0  0  0  0  0
  -23.3762  -35.9573   23.3307 H   0  0  0  0  0  0
  -24.3574  -36.8877   22.2054 H   0  0  0  0  0  0
  -23.7231  -37.6446   23.6673 H   0  0  0  0  0  0
  -26.1384  -31.4992   20.6113 H   0  0  0  0  0  0
  -26.8597  -30.7910   22.0230 H   0  0  0  0  0  0
  -28.1247  -28.8628   21.2163 H   0  0  0  0  0  0
  -25.9214  -25.8868   18.9838 H   0  0  0  0  0  0
  -23.9736  -27.3087   18.9895 H   0  0  0  0  0  0
  -23.7887  -30.5777   19.3980 H   0  0  0  0  0  0
  -22.7732  -29.2429   19.8476 H   0  0  0  0  0  0
  -25.1306  -36.1865   25.0808 H   0  0  0  0  0  0
  -21.0009  -28.3295   24.1371 H   0  0  0  0  0  0
  -20.5668  -26.2317   23.3620 H   0  0  0  0  0  0
  -21.6641  -26.7430   22.1212 H   0  0  0  0  0  0
  -19.6906  -25.6290   21.1253 H   0  0  0  0  0  0
  -19.6685  -27.3193   20.6747 H   0  0  0  0  0  0
  -17.4198  -26.6691   21.4033 H   0  0  0  0  0  0
  -18.0328  -26.0083   22.9029 H   0  0  0  0  0  0
  -19.7958  -30.7295   24.2233 H   0  0  0  0  0  0
  -17.5040  -31.6280   24.5165 H   0  0  0  0  0  0
  -15.5372  -30.3001   23.7673 H   0  0  0  0  0  0
  -15.8680  -28.0840   22.7072 H   0  0  0  0  0  0
  -24.5900  -30.7087   25.7754 H   0  0  0  0  0  0
  -24.8919  -32.2929   26.4805 H   0  0  0  0  0  0
  -25.8029  -30.8945   27.0223 H   0  0  0  0  0  0
  -26.2946  -29.6714   24.1252 H   0  0  0  0  0  0
  -27.3993  -29.7242   25.4786 H   0  0  0  0  0  0
  -27.8857  -30.4209   23.9540 H   0  0  0  0  0  0
  -27.2608  -33.3626   26.2044 H   0  0  0  0  0  0
  -28.3883  -32.6868   25.0377 H   0  0  0  0  0  0
  -28.0667  -31.8479   26.5475 H   0  0  0  0  0  0
  -28.2587  -38.0077   24.7511 H   0  0  0  0  0  0
  -28.1058  -36.2606   24.6302 H   0  0  0  0  0  0
  -27.2288  -37.1440   25.8876 H   0  0  0  0  0  0
  -20.9426  -29.8750   21.6823 H   0  0  0  0  0  0
  -26.0150  -38.2822   24.1431 H   0  0  0  0  0  0
  -28.1597  -21.5259   18.6949 H   0  0  0  0  0  0
  -28.6209  -19.1175   18.5618 H   0  0  0  0  0  0
  -30.7699  -19.3024   22.2402 H   0  0  0  0  0  0
  -30.1106  -23.9149   20.7262 H   0  0  0  0  0  0
  -28.3626  -24.8474   22.3483 H   0  0  0  0  0  0
  -27.3613  -24.4318   19.3667 H   0  0  0  0  0  0
  -31.5619  -22.2227   22.4429 H   0  0  0  0  0  0
  -30.6420  -21.2474   23.5874 H   0  0  0  0  0  0
  -30.0005  -22.7820   23.0346 H   0  0  0  0  0  0
  -25.7276  -21.1339   24.1436 H   0  0  0  0  0  0
  -25.9617  -20.8450   22.4298 H   0  0  0  0  0  0
  -24.7389  -21.9976   22.9721 H   0  0  0  0  0  0
  -26.4837  -23.2612   25.2253 H   0  0  0  0  0  0
  -25.5991  -24.2965   24.1152 H   0  0  0  0  0  0
  -27.3360  -24.4992   24.3329 H   0  0  0  0  0  0
  -31.3788  -17.5090   20.5485 H   0  0  0  0  0  0
  -30.5050  -17.3766   19.0784 H   0  0  0  0  0  0
  -27.7602  -22.2697   23.3145 H   0  0  0  0  0  0
  -28.8906  -15.9340   20.7917 H   0  0  0  0  0  0
  -26.8211  -22.6499   21.0972 H   0  0  0  0  0  0
  -26.0176  -23.9439   21.6684 H   0  0  0  0  0  0
  1 25  1  0  0  0
  1 30  2  0  0  0
  1 85  1  0  0  0
  2  3  1  0  0  0
  2 25  1  0  0  0
  2 87  1  0  0  0
  2 88  1  0  0  0
  3  4  1  0  0  0
  3 89  1  0  0  0
  3 90  1  0  0  0
  4  5  1  0  0  0
  4 91  1  0  0  0
  4 92  1  0  0  0
  5  6  1  0  0  0
  5 26  1  0  0  0
  5 93  1  0  0  0
  6 25  1  0  0  0
  6 94  1  0  0  0
  6 95  1  0  0  0
  7  8  2  0  0  0
  7 26  1  0  0  0
  7 29  1  0  0  0
  8  9  1  0  0  0
  8 22  1  0  0  0
  9 10  1  0  0  0
  9 27  2  0  0  0
 10 11  2  0  0  0
 10 15  1  0  0  0
 11 12  1  0  0  0
 11 96  1  0  0  0
 12 13  2  0  0  0
 12 97  1  0  0  0
 13 14  1  0  0  0
 13 31  1  0  0  0
 14 15  2  0  0  0
 14 98  1  0  0  0
 15 99  1  0  0  0
 16 17  2  0  0  0
 16 21  1  0  0  0
 16 31  1  0  0  0
 17 18  1  0  0  0
 17100  1  0  0  0
 18 19  2  0  0  0
 18101  1  0  0  0
 19 20  1  0  0  0
 19 24  1  0  0  0
 20 21  2  0  0  0
 20102  1  0  0  0
 21 23  1  0  0  0
 22 28  1  0  0  0
 22 32  2  0  0  0
 26 27  1  0  0  0
 28103  1  0  0  0
 28104  1  0  0  0
 29105  1  0  0  0
 29106  1  0  0  0
 33 34  1  0  0  0
 33 66  1  0  0  0
 33 70  2  0  0  0
 34 36  1  0  0  0
 34 59  1  0  0  0
 34107  1  0  0  0
 35 44  2  0  0  0
 35 45  1  0  0  0
 35 68  1  0  0  0
 36 56  1  0  0  0
 36108  1  0  0  0
 37 39  1  0  0  0
 37 47  1  0  0  0
 37 66  1  0  0  0
 37109  1  0  0  0
 38 43  2  0  0  0
 38 46  1  0  0  0
 38 47  1  0  0  0
 39 64  1  0  0  0
 39 67  2  0  0  0
 40 52  1  0  0  0
 40 53  2  0  0  0
 40 58  1  0  0  0
 41110  1  0  0  0
 41111  1  0  0  0
 41112  1  0  0  0
 41 48  1  0  0  0
 42 43  1  0  0  0
 42 66  1  0  0  0
 42113  1  0  0  0
 42114  1  0  0  0
 43 44  1  0  0  0
 44115  1  0  0  0
 45 46  2  0  0  0
 45116  1  0  0  0
 46117  1  0  0  0
 47118  1  0  0  0
 47119  1  0  0  0
 48 56  1  0  0  0
 48 65  1  0  0  0
 48120  1  0  0  0
 49 50  1  0  0  0
 49 53  1  0  0  0
 49 64  1  0  0  0
 49121  1  0  0  0
 50 51  1  0  0  0
 50122  1  0  0  0
 50123  1  0  0  0
 51 52  1  0  0  0
 51124  1  0  0  0
 51125  1  0  0  0
 52126  1  0  0  0
 52127  1  0  0  0
 53 54  1  0  0  0
 54 55  2  0  0  0
 54128  1  0  0  0
 55 57  1  0  0  0
 55129  1  0  0  0
 56 69  2  0  0  0
 57 58  2  0  0  0
 57130  1  0  0  0
 58131  1  0  0  0
 59 60  1  0  0  0
 59 61  1  0  0  0
 59 62  1  0  0  0
 60132  1  0  0  0
 60133  1  0  0  0
 60134  1  0  0  0
 61135  1  0  0  0
 61136  1  0  0  0
 61137  1  0  0  0
 62138  1  0  0  0
 62139  1  0  0  0
 62140  1  0  0  0
 63 65  1  0  0  0
 63141  1  0  0  0
 63142  1  0  0  0
 63143  1  0  0  0
 64144  1  0  0  0
 65145  1  0  0  0
 68 79  1  0  0  0
 71 72  2  0  0  0
 71 74  1  0  0  0
 71146  1  0  0  0
 72 75  1  0  0  0
 72147  1  0  0  0
 73 75  2  0  0  0
 73 76  1  0  0  0
 73148  1  0  0  0
 74 76  2  0  0  0
 74 77  1  0  0  0
 75 83  1  0  0  0
 76 80  1  0  0  0
 77 78  1  0  0  0
 77 79  1  0  0  0
 77149  1  0  0  0
 78 79  1  0  0  0
 78 86  1  0  0  0
 78150  1  0  0  0
 79151  1  0  0  0
 80152  1  0  0  0
 80153  1  0  0  0
 80154  1  0  0  0
 81155  1  0  0  0
 81156  1  0  0  0
 81157  1  0  0  0
 81 84  1  0  0  0
 82 84  1  0  0  0
 82158  1  0  0  0
 82159  1  0  0  0
 82160  1  0  0  0
 83 85  1  0  0  0
 83161  1  0  0  0
 83162  1  0  0  0
 84 86  1  0  0  0
 84163  1  0  0  0
 85164  1  0  0  0
 86165  1  0  0  0
 86166  1  0  0  0
M  CHG  1  86   1
M  ISO  4   1 100  68 101  79 101  85 100
M  END
> <chiral flag>
0

> <version>
0

> <s_m_source_file>
/data/baiqing/PycharmProjects/Reinvent-master-3.2/result/LINK_invent/BTK/process_docking_weight1_custom_sum_contain_oxygen_bond_distance_aromatic_linkinvent_7_9_3/rearranged_h_0136.sdf

> <i_m_source_file_index>
82

> <r_mmod_Potential_Energy-OPLS-2005>
128.645950317383

> <r_mmod_Stretch_Energy-OPLS-2005>
179.21745300293

> <r_mmod_Bend_Energy-OPLS-2005>
239.700256347656

> <r_mmod_Torsional_Energy-OPLS-2005>
273.713745117188

> <r_mmod_Improper_Torsional_Energy-OPLS-2005>
9.15191555023193

> <r_mmod_Van_der_Waal_Energy-OPLS-2005>
127.786285400391

> <r_mmod_Electrostatic_Energy-OPLS-2005>
-376.881134033203

> <r_mmod_Solvation_Energy-OPLS-2005>
-451.153015136719

> <b_mmod_Minimization_Converged-OPLS-2005>
0

> <r_mmod_RMS_Derivative-OPLS-2005>
1.19933271408081

$$$$
85
                    3D
 Structure written by MMmdl.
156165  0  0  1  0            999 V2000
  -30.5791  -14.8585   20.4255 C   0  0  0  0  0  0
  -30.4361  -12.5267   19.4853 C   0  0  0  0  0  0
  -29.5151  -12.5126   18.2443 C   0  0  0  0  0  0
  -28.0438  -12.3225   18.6606 C   0  0  0  0  0  0
  -27.6339  -13.2432   19.8404 C   0  0  2  0  0  0
  -28.6791  -13.2373   20.9761 C   0  0  0  0  0  0
  -25.2477  -13.8218   20.5706 C   0  0  0  0  0  0
  -24.1787  -13.0442   20.9230 C   0  0  0  0  0  0
  -24.6396  -11.6928   20.8756 C   0  0  0  0  0  0
  -23.9081  -10.4296   21.0405 C   0  0  0  0  0  0
  -24.3625   -9.4208   21.9183 C   0  0  0  0  0  0
  -23.6297   -8.2243   22.0752 C   0  0  0  0  0  0
  -22.4278   -8.0283   21.3542 C   0  0  0  0  0  0
  -21.9917   -9.0258   20.4642 C   0  0  0  0  0  0
  -22.7250  -10.2137   20.3052 C   0  0  0  0  0  0
  -21.6855   -6.0736   22.5280 C   0  0  0  0  0  0
  -21.4015   -6.5639   23.8213 C   0  0  0  0  0  0
  -21.3659   -5.6791   24.9175 C   0  0  0  0  0  0
  -21.6042   -4.3054   24.7226 C   0  0  0  0  0  0
  -21.8820   -3.8145   23.4348 C   0  0  0  0  0  0
  -21.9195   -4.6962   22.3403 C   0  0  0  0  0  0
  -22.7803  -13.5213   21.1886 C   0  0  0  0  0  0
  -22.1662   -4.2147   21.0981 F   0  0  0  0  0  0
  -21.5628   -3.4538   25.7739 F   0  0  0  0  0  0
  -29.9657  -13.6161   20.3806 N   0  0  0  0  0  0
  -26.2905  -12.9444   20.3250 N   0  0  0  0  0  0
  -25.9330  -11.6579   20.5746 N   0  0  0  0  0  0
  -22.0450  -12.8199   22.0433 N   0  0  0  0  0  0
  -25.4140  -15.1947   20.4123 N   0  0  0  0  0  0
  -31.7800  -14.9291   20.1497 O   0  0  0  0  0  0
  -21.6642   -6.8878   21.4240 O   0  0  0  0  0  0
  -22.3480  -14.5513   20.6723 O   0  0  0  0  0  0
  -24.6366  -31.8493   23.1896 C   0  0  0  0  0  0
  -25.9172  -32.4714   23.8275 C   0  0  1  0  0  0
  -27.2256  -27.1919   20.1432 C   0  0  0  0  0  0
  -25.5941  -33.8516   24.2207 N   0  0  0  0  0  0
  -23.4358  -30.4645   21.5371 C   0  0  2  0  0  0
  -24.8830  -28.8891   20.1167 C   0  0  0  0  0  0
  -22.7511  -29.4560   22.4909 C   0  0  0  0  0  0
  -18.0282  -28.1390   22.8491 C   0  0  0  0  0  0
  -24.1481  -36.7244   23.2643 C   0  0  0  0  0  0
  -25.9838  -30.7377   21.3796 C   0  0  0  0  0  0
  -26.0545  -29.3488   20.7310 C   0  0  0  0  0  0
  -27.2232  -28.5133   20.7303 C   0  0  0  0  0  0
  -26.0299  -26.8099   19.5009 C   0  0  0  0  0  0
  -24.8782  -27.6296   19.4921 C   0  0  0  0  0  0
  -23.6568  -29.7859   20.1583 C   0  0  0  0  0  0
  -25.4118  -36.3038   24.0320 C   0  0  1  0  0  0
  -20.5886  -28.3700   23.1264 C   0  0  2  0  0  0
  -20.6764  -26.9413   22.5418 C   0  0  0  0  0  0
  -19.5749  -26.6394   21.5209 C   0  0  0  0  0  0
  -18.1928  -26.7932   22.1627 C   0  0  0  0  0  0
  -19.1537  -28.8868   23.2878 C   0  0  0  0  0  0
  -18.9465  -30.1464   23.8900 C   0  0  0  0  0  0
  -17.6464  -30.6602   24.0559 C   0  0  0  0  0  0
  -25.9068  -34.9416   23.5074 C   0  0  0  0  0  0
  -16.5351  -29.9095   23.6337 C   0  0  0  0  0  0
  -16.7269  -28.6507   23.0372 C   0  0  0  0  0  0
  -26.4517  -31.6551   25.0691 C   0  0  0  0  0  0
  -25.3721  -31.3709   26.1396 C   0  0  0  0  0  0
  -27.0362  -30.2950   24.6223 C   0  0  0  0  0  0
  -27.6066  -32.4295   25.7473 C   0  0  0  0  0  0
  -27.5570  -37.1774   24.8472 C   0  0  0  0  0  0
  -21.4217  -29.3023   22.3638 N   0  0  0  0  0  0
  -26.4282  -37.3751   23.9416 N   0  0  0  0  0  0
  -24.7048  -31.0376   22.0916 N   0  0  0  0  0  0
  -23.4173  -28.8127   23.3064 O   0  0  0  0  0  0
  -28.3612  -26.3296   20.1236 O   0  0  0  0  0  0
  -26.5660  -34.8912   22.4656 O   0  0  0  0  0  0
  -23.5510  -32.1374   23.7141 O   0  0  0  0  0  0
  -27.5045  -23.9008   20.5811 C   0  0  0  0  0  0
  -29.9149  -23.0080   19.7270 C   0  0  0  0  0  0
  -27.7988  -22.4759   20.6238 C   0  0  0  0  0  0
  -29.0658  -21.9526   20.1841 C   0  0  0  0  0  0
  -28.4412  -24.8746   20.1177 C   0  0  0  0  0  0
  -25.9059  -21.8934   22.3461 C   0  0  0  0  0  0
  -26.9495  -20.8088   22.4539 C   0  0  0  0  0  0
  -26.7539  -21.5379   21.1457 C   0  0  0  0  0  0
  -29.6251  -20.4015   20.1658 C   0  0  0  0  0  0
  -29.1444  -18.8085   20.4184 C   0  0  0  0  0  0
  -30.2178  -17.5354   20.4126 C   0  0  0  0  0  0
  -29.6365  -24.3601   19.7037 N   0  0  0  0  0  0
  -29.8114  -16.0326   20.5594 N   0  0  0  0  0  0
  -31.4734  -12.6675   19.1756 H   0  0  0  0  0  0
  -30.4059  -11.5663   20.0025 H   0  0  0  0  0  0
  -29.8150  -11.7178   17.5595 H   0  0  0  0  0  0
  -29.6236  -13.4485   17.6941 H   0  0  0  0  0  0
  -27.9179  -11.2784   18.9482 H   0  0  0  0  0  0
  -27.3843  -12.4837   17.8068 H   0  0  0  0  0  0
  -27.6087  -14.2528   19.4299 H   0  0  0  0  0  0
  -28.7420  -12.2561   21.4477 H   0  0  0  0  0  0
  -28.3982  -13.9410   21.7612 H   0  0  0  0  0  0
  -25.2767   -9.5687   22.4764 H   0  0  0  0  0  0
  -24.0006   -7.4634   22.7467 H   0  0  0  0  0  0
  -21.0851   -8.8779   19.8947 H   0  0  0  0  0  0
  -22.3706  -10.9677   19.6164 H   0  0  0  0  0  0
  -21.2006   -7.6148   23.9717 H   0  0  0  0  0  0
  -21.1480   -6.0520   25.9078 H   0  0  0  0  0  0
  -22.0599   -2.7606   23.2851 H   0  0  0  0  0  0
  -22.4071  -11.9872   22.4842 H   0  0  0  0  0  0
  -21.1055  -13.1205   22.2615 H   0  0  0  0  0  0
  -24.6431  -15.8447   20.5222 H   0  0  0  0  0  0
  -26.2530  -15.6359   20.0588 H   0  0  0  0  0  0
  -26.7234  -32.5350   23.1007 H   0  0  0  0  0  0
  -25.0026  -33.9630   25.0310 H   0  0  0  0  0  0
  -22.7360  -31.2885   21.3831 H   0  0  0  0  0  0
  -23.3753  -35.9564   23.3309 H   0  0  0  0  0  0
  -24.3559  -36.8876   22.2055 H   0  0  0  0  0  0
  -23.7217  -37.6440   23.6670 H   0  0  0  0  0  0
  -26.1248  -31.4912   20.6030 H   0  0  0  0  0  0
  -26.8589  -30.7941   22.0155 H   0  0  0  0  0  0
  -28.1273  -28.8687   21.2030 H   0  0  0  0  0  0
  -25.9770  -25.8493   19.0086 H   0  0  0  0  0  0
  -23.9813  -27.2716   19.0037 H   0  0  0  0  0  0
  -23.7844  -30.5572   19.3973 H   0  0  0  0  0  0
  -22.7728  -29.2202   19.8571 H   0  0  0  0  0  0
  -25.1294  -36.1874   25.0809 H   0  0  0  0  0  0
  -20.9983  -28.3303   24.1382 H   0  0  0  0  0  0
  -20.5640  -26.2320   23.3633 H   0  0  0  0  0  0
  -21.6637  -26.7431   22.1226 H   0  0  0  0  0  0
  -19.6926  -25.6306   21.1243 H   0  0  0  0  0  0
  -19.6688  -27.3211   20.6740 H   0  0  0  0  0  0
  -17.4190  -26.6676   21.4036 H   0  0  0  0  0  0
  -18.0345  -26.0073   22.9026 H   0  0  0  0  0  0
  -19.7946  -30.7281   24.2274 H   0  0  0  0  0  0
  -17.5020  -31.6281   24.5158 H   0  0  0  0  0  0
  -15.5351  -30.2997   23.7667 H   0  0  0  0  0  0
  -15.8668  -28.0821   22.7098 H   0  0  0  0  0  0
  -24.5923  -30.7031   25.7714 H   0  0  0  0  0  0
  -24.8878  -32.2870   26.4785 H   0  0  0  0  0  0
  -25.8029  -30.8915   27.0192 H   0  0  0  0  0  0
  -26.2955  -29.6689   24.1236 H   0  0  0  0  0  0
  -27.4002  -29.7234   25.4769 H   0  0  0  0  0  0
  -27.8847  -30.4182   23.9494 H   0  0  0  0  0  0
  -27.2671  -33.3600   26.2028 H   0  0  0  0  0  0
  -28.3883  -32.6848   25.0306 H   0  0  0  0  0  0
  -28.0720  -31.8433   26.5408 H   0  0  0  0  0  0
  -28.2589  -38.0070   24.7514 H   0  0  0  0  0  0
  -28.1061  -36.2598   24.6298 H   0  0  0  0  0  0
  -27.2285  -37.1428   25.8877 H   0  0  0  0  0  0
  -20.9433  -29.8663   21.6753 H   0  0  0  0  0  0
  -26.0157  -38.2817   24.1441 H   0  0  0  0  0  0
  -26.5451  -24.2489   20.9354 H   0  0  0  0  0  0
  -30.8991  -22.7534   19.3621 H   0  0  0  0  0  0
  -26.1087  -22.8278   22.8655 H   0  0  0  0  0  0
  -24.8643  -21.5791   22.3405 H   0  0  0  0  0  0
  -26.5891  -19.7842   22.5227 H   0  0  0  0  0  0
  -27.8494  -21.0290   23.0250 H   0  0  0  0  0  0
  -26.2797  -20.9919   20.3314 H   0  0  0  0  0  0
  -28.7714  -20.4284   19.4902 H   0  0  0  0  0  0
  -29.6451  -20.5569   21.2448 H   0  0  0  0  0  0
  -28.3829  -18.5313   19.6849 H   0  0  0  0  0  0
  -28.6148  -18.7596   21.3710 H   0  0  0  0  0  0
  -30.9472  -17.7267   21.2008 H   0  0  0  0  0  0
  -30.7909  -17.6035   19.4866 H   0  0  0  0  0  0
  -28.8316  -15.8664   20.7346 H   0  0  0  0  0  0
  1 25  1  0  0  0
  1 30  2  0  0  0
  1 83  1  0  0  0
  2  3  1  0  0  0
  2 25  1  0  0  0
  2 84  1  0  0  0
  2 85  1  0  0  0
  3  4  1  0  0  0
  3 86  1  0  0  0
  3 87  1  0  0  0
  4  5  1  0  0  0
  4 88  1  0  0  0
  4 89  1  0  0  0
  5  6  1  0  0  0
  5 26  1  0  0  0
  5 90  1  0  0  0
  6 25  1  0  0  0
  6 91  1  0  0  0
  6 92  1  0  0  0
  7  8  2  0  0  0
  7 26  1  0  0  0
  7 29  1  0  0  0
  8  9  1  0  0  0
  8 22  1  0  0  0
  9 10  1  0  0  0
  9 27  2  0  0  0
 10 11  2  0  0  0
 10 15  1  0  0  0
 11 12  1  0  0  0
 11 93  1  0  0  0
 12 13  2  0  0  0
 12 94  1  0  0  0
 13 14  1  0  0  0
 13 31  1  0  0  0
 14 15  2  0  0  0
 14 95  1  0  0  0
 15 96  1  0  0  0
 16 17  2  0  0  0
 16 21  1  0  0  0
 16 31  1  0  0  0
 17 18  1  0  0  0
 17 97  1  0  0  0
 18 19  2  0  0  0
 18 98  1  0  0  0
 19 20  1  0  0  0
 19 24  1  0  0  0
 20 21  2  0  0  0
 20 99  1  0  0  0
 21 23  1  0  0  0
 22 28  1  0  0  0
 22 32  2  0  0  0
 26 27  1  0  0  0
 28100  1  0  0  0
 28101  1  0  0  0
 29102  1  0  0  0
 29103  1  0  0  0
 33 34  1  0  0  0
 33 66  1  0  0  0
 33 70  2  0  0  0
 34 36  1  0  0  0
 34 59  1  0  0  0
 34104  1  0  0  0
 35 44  2  0  0  0
 35 45  1  0  0  0
 35 68  1  0  0  0
 36 56  1  0  0  0
 36105  1  0  0  0
 37 39  1  0  0  0
 37 47  1  0  0  0
 37 66  1  0  0  0
 37106  1  0  0  0
 38 43  2  0  0  0
 38 46  1  0  0  0
 38 47  1  0  0  0
 39 64  1  0  0  0
 39 67  2  0  0  0
 40 52  1  0  0  0
 40 53  2  0  0  0
 40 58  1  0  0  0
 41107  1  0  0  0
 41108  1  0  0  0
 41109  1  0  0  0
 41 48  1  0  0  0
 42 43  1  0  0  0
 42 66  1  0  0  0
 42110  1  0  0  0
 42111  1  0  0  0
 43 44  1  0  0  0
 44112  1  0  0  0
 45 46  2  0  0  0
 45113  1  0  0  0
 46114  1  0  0  0
 47115  1  0  0  0
 47116  1  0  0  0
 48 56  1  0  0  0
 48 65  1  0  0  0
 48117  1  0  0  0
 49 50  1  0  0  0
 49 53  1  0  0  0
 49 64  1  0  0  0
 49118  1  0  0  0
 50 51  1  0  0  0
 50119  1  0  0  0
 50120  1  0  0  0
 51 52  1  0  0  0
 51121  1  0  0  0
 51122  1  0  0  0
 52123  1  0  0  0
 52124  1  0  0  0
 53 54  1  0  0  0
 54 55  2  0  0  0
 54125  1  0  0  0
 55 57  1  0  0  0
 55126  1  0  0  0
 56 69  2  0  0  0
 57 58  2  0  0  0
 57127  1  0  0  0
 58128  1  0  0  0
 59 60  1  0  0  0
 59 61  1  0  0  0
 59 62  1  0  0  0
 60129  1  0  0  0
 60130  1  0  0  0
 60131  1  0  0  0
 61132  1  0  0  0
 61133  1  0  0  0
 61134  1  0  0  0
 62135  1  0  0  0
 62136  1  0  0  0
 62137  1  0  0  0
 63 65  1  0  0  0
 63138  1  0  0  0
 63139  1  0  0  0
 63140  1  0  0  0
 64141  1  0  0  0
 65142  1  0  0  0
 68 75  1  0  0  0
 71 73  2  0  0  0
 71 75  1  0  0  0
 71143  1  0  0  0
 72 74  2  0  0  0
 72 82  1  0  0  0
 72144  1  0  0  0
 73 74  1  0  0  0
 73 78  1  0  0  0
 74 79  1  0  0  0
 75 82  2  0  0  0
 76 77  1  0  0  0
 76 78  1  0  0  0
 76145  1  0  0  0
 76146  1  0  0  0
 77 78  1  0  0  0
 77147  1  0  0  0
 77148  1  0  0  0
 78149  1  0  0  0
 79 80  1  0  0  0
 79150  1  0  0  0
 79151  1  0  0  0
 80 81  1  0  0  0
 80152  1  0  0  0
 80153  1  0  0  0
 81 83  1  0  0  0
 81154  1  0  0  0
 81155  1  0  0  0
 83156  1  0  0  0
M  ISO  4   1 100  68 101  75 101  83 100
M  END
> <chiral flag>
0

> <version>
0

> <s_m_source_file>
/data/baiqing/PycharmProjects/Reinvent-master-3.2/result/LINK_invent/BTK/process_docking_weight1_custom_sum_contain_oxygen_bond_distance_aromatic_linkinvent_7_9_3/rearranged_h_0136.sdf

> <i_m_source_file_index>
83

> <r_mmod_Potential_Energy-OPLS-2005>
412.162445068359

> <r_mmod_Stretch_Energy-OPLS-2005>
187.445861816406

> <r_mmod_Bend_Energy-OPLS-2005>
445.223541259766

> <r_mmod_Torsional_Energy-OPLS-2005>
234.388656616211

> <r_mmod_Improper_Torsional_Energy-OPLS-2005>
5.10944271087646

> <r_mmod_Van_der_Waal_Energy-OPLS-2005>
132.30973815918

> <r_mmod_Electrostatic_Energy-OPLS-2005>
-498.566314697266

> <r_mmod_Solvation_Energy-OPLS-2005>
-223.397109985352

> <b_mmod_Minimization_Converged-OPLS-2005>
0

> <r_mmod_RMS_Derivative-OPLS-2005>
1.5409529209137

$$$$
86
                    3D
 Structure written by MMmdl.
161171  0  0  1  0            999 V2000
  -30.5822  -14.8986   20.4701 C   0  0  0  0  0  0
  -30.4382  -12.5669   19.4886 C   0  0  0  0  0  0
  -29.5151  -12.5397   18.2486 C   0  0  0  0  0  0
  -28.0446  -12.3335   18.6611 C   0  0  0  0  0  0
  -27.6348  -13.2405   19.8507 C   0  0  2  0  0  0
  -28.6839  -13.2026   20.9834 C   0  0  0  0  0  0
  -25.2428  -13.8188   20.5650 C   0  0  0  0  0  0
  -24.1764  -13.0415   20.9215 C   0  0  0  0  0  0
  -24.6387  -11.6906   20.8770 C   0  0  0  0  0  0
  -23.9071  -10.4277   21.0425 C   0  0  0  0  0  0
  -24.3608   -9.4191   21.9204 C   0  0  0  0  0  0
  -23.6284   -8.2225   22.0759 C   0  0  0  0  0  0
  -22.4270   -8.0266   21.3544 C   0  0  0  0  0  0
  -21.9903   -9.0245   20.4651 C   0  0  0  0  0  0
  -22.7240  -10.2121   20.3072 C   0  0  0  0  0  0
  -21.6841   -6.0726   22.5277 C   0  0  0  0  0  0
  -21.4010   -6.5632   23.8212 C   0  0  0  0  0  0
  -21.3664   -5.6783   24.9176 C   0  0  0  0  0  0
  -21.6044   -4.3047   24.7222 C   0  0  0  0  0  0
  -21.8818   -3.8142   23.4341 C   0  0  0  0  0  0
  -21.9190   -4.6958   22.3399 C   0  0  0  0  0  0
  -22.7786  -13.5202   21.1860 C   0  0  0  0  0  0
  -22.1652   -4.2146   21.0974 F   0  0  0  0  0  0
  -21.5631   -3.4526   25.7731 F   0  0  0  0  0  0
  -29.9559  -13.6508   20.3954 N   0  0  0  0  0  0
  -26.2899  -12.9431   20.3297 N   0  0  0  0  0  0
  -25.9329  -11.6559   20.5788 N   0  0  0  0  0  0
  -22.0436  -12.8210   22.0423 N   0  0  0  0  0  0
  -25.3958  -15.1901   20.3920 N   0  0  0  0  0  0
  -31.7679  -14.9408   20.1230 O   0  0  0  0  0  0
  -21.6627   -6.8870   21.4241 O   0  0  0  0  0  0
  -22.3477  -14.5507   20.6695 O   0  0  0  0  0  0
  -24.6414  -31.8461   23.1913 C   0  0  0  0  0  0
  -25.9203  -32.4702   23.8283 C   0  0  1  0  0  0
  -27.2134  -27.1677   20.1527 C   0  0  0  0  0  0
  -25.5967  -33.8505   24.2214 N   0  0  0  0  0  0
  -23.4431  -30.4680   21.5349 C   0  0  2  0  0  0
  -24.8923  -28.8973   20.1128 C   0  0  0  0  0  0
  -22.7556  -29.4562   22.4858 C   0  0  0  0  0  0
  -18.0308  -28.1390   22.8472 C   0  0  0  0  0  0
  -24.1493  -36.7252   23.2639 C   0  0  0  0  0  0
  -25.9973  -30.7308   21.3849 C   0  0  0  0  0  0
  -26.0697  -29.3435   20.7295 C   0  0  0  0  0  0
  -27.2366  -28.4946   20.7325 C   0  0  0  0  0  0
  -26.0162  -26.8159   19.4963 C   0  0  0  0  0  0
  -24.8761  -27.6449   19.4807 C   0  0  0  0  0  0
  -23.6688  -29.7981   20.1538 C   0  0  0  0  0  0
  -25.4119  -36.3033   24.0321 C   0  0  1  0  0  0
  -20.5918  -28.3714   23.1231 C   0  0  2  0  0  0
  -20.6790  -26.9415   22.5401 C   0  0  0  0  0  0
  -19.5765  -26.6379   21.5204 C   0  0  0  0  0  0
  -18.1943  -26.7929   22.1616 C   0  0  0  0  0  0
  -19.1562  -28.8869   23.2845 C   0  0  0  0  0  0
  -18.9480  -30.1468   23.8871 C   0  0  0  0  0  0
  -17.6476  -30.6585   24.0557 C   0  0  0  0  0  0
  -25.9069  -34.9410   23.5073 C   0  0  0  0  0  0
  -16.5366  -29.9078   23.6337 C   0  0  0  0  0  0
  -16.7292  -28.6498   23.0350 C   0  0  0  0  0  0
  -26.4538  -31.6552   25.0709 C   0  0  0  0  0  0
  -25.3740  -31.3725   26.1418 C   0  0  0  0  0  0
  -27.0393  -30.2951   24.6259 C   0  0  0  0  0  0
  -27.6075  -32.4308   25.7494 C   0  0  0  0  0  0
  -27.5575  -37.1779   24.8462 C   0  0  0  0  0  0
  -21.4251  -29.3046   22.3607 N   0  0  0  0  0  0
  -26.4281  -37.3747   23.9416 N   0  0  0  0  0  0
  -24.7135  -31.0351   22.0925 N   0  0  0  0  0  0
  -23.4216  -28.8106   23.2992 O   0  0  0  0  0  0
  -28.2489  -26.1763   20.1711 O   0  0  0  0  0  0
  -26.5638  -34.8904   22.4641 O   0  0  0  0  0  0
  -23.5544  -32.1320   23.7160 O   0  0  0  0  0  0
  -29.8893  -21.2124   20.6539 C   0  0  0  0  0  0
  -29.6582  -22.6544   20.7029 C   0  0  0  0  0  0
  -27.4153  -22.3101   20.0877 C   0  0  0  0  0  0
  -28.8796  -20.2332   20.3494 C   0  0  0  0  0  0
  -27.6219  -20.8758   20.0447 C   0  0  0  0  0  0
  -28.3953  -23.2903   20.4356 C   0  0  0  0  0  0
  -26.2695  -19.2510   18.4581 C   0  0  0  0  0  0
  -25.3880  -20.4485   18.6987 C   0  0  0  0  0  0
  -28.4593  -17.9035   21.6671 C   0  0  0  0  0  0
  -28.7207  -16.3689   21.5162 C   0  0  0  0  0  0
  -30.2403  -17.5646   20.1809 C   0  0  0  0  0  0
  -28.9983  -18.5816   20.4060 C   0  0  2  0  0  0
  -26.4046  -20.0378   19.7446 C   0  0  0  0  0  0
  -27.9383  -24.8236   20.8329 C   0  0  0  0  0  0
  -29.8648  -16.1259   20.6179 N   0  0  0  0  0  0
  -31.4718  -12.7156   19.1736 H   0  0  0  0  0  0
  -30.4294  -11.6023   19.9988 H   0  0  0  0  0  0
  -29.8262  -11.7533   17.5594 H   0  0  0  0  0  0
  -29.6087  -13.4808   17.7038 H   0  0  0  0  0  0
  -27.9230  -11.2852   18.9364 H   0  0  0  0  0  0
  -27.3845  -12.5028   17.8097 H   0  0  0  0  0  0
  -27.6143  -14.2546   19.4520 H   0  0  0  0  0  0
  -28.7759  -12.1931   21.3874 H   0  0  0  0  0  0
  -28.3847  -13.8148   21.8306 H   0  0  0  0  0  0
  -25.2743   -9.5665   22.4793 H   0  0  0  0  0  0
  -23.9991   -7.4611   22.7473 H   0  0  0  0  0  0
  -21.0836   -8.8771   19.8955 H   0  0  0  0  0  0
  -22.3704  -10.9664   19.6183 H   0  0  0  0  0  0
  -21.1995   -7.6139   23.9715 H   0  0  0  0  0  0
  -21.1496   -6.0512   25.9079 H   0  0  0  0  0  0
  -22.0598   -2.7604   23.2840 H   0  0  0  0  0  0
  -22.4046  -11.9865   22.4801 H   0  0  0  0  0  0
  -21.1070  -13.1268   22.2653 H   0  0  0  0  0  0
  -24.6080  -15.8231   20.4742 H   0  0  0  0  0  0
  -26.2204  -15.6306   20.0058 H   0  0  0  0  0  0
  -26.7267  -32.5330   23.1012 H   0  0  0  0  0  0
  -25.0143  -33.9611   25.0381 H   0  0  0  0  0  0
  -22.7451  -31.2937   21.3826 H   0  0  0  0  0  0
  -23.3763  -35.9575   23.3281 H   0  0  0  0  0  0
  -24.3588  -36.8899   22.2058 H   0  0  0  0  0  0
  -23.7236  -37.6439   23.6681 H   0  0  0  0  0  0
  -26.1481  -31.4855   20.6117 H   0  0  0  0  0  0
  -26.8699  -30.7822   22.0240 H   0  0  0  0  0  0
  -28.1367  -28.8300   21.2288 H   0  0  0  0  0  0
  -25.9499  -25.8535   19.0081 H   0  0  0  0  0  0
  -23.9784  -27.3000   18.9857 H   0  0  0  0  0  0
  -23.8070  -30.5726   19.3985 H   0  0  0  0  0  0
  -22.7832  -29.2408   19.8429 H   0  0  0  0  0  0
  -25.1302  -36.1862   25.0810 H   0  0  0  0  0  0
  -21.0013  -28.3307   24.1350 H   0  0  0  0  0  0
  -20.5673  -26.2323   23.3616 H   0  0  0  0  0  0
  -21.6659  -26.7415   22.1208 H   0  0  0  0  0  0
  -19.6921  -25.6284   21.1245 H   0  0  0  0  0  0
  -19.6704  -27.3178   20.6722 H   0  0  0  0  0  0
  -17.4212  -26.6674   21.4019 H   0  0  0  0  0  0
  -18.0343  -26.0074   22.9018 H   0  0  0  0  0  0
  -19.7956  -30.7293   24.2220 H   0  0  0  0  0  0
  -17.5030  -31.6261   24.5166 H   0  0  0  0  0  0
  -15.5364  -30.2970   23.7674 H   0  0  0  0  0  0
  -15.8693  -28.0814   22.7067 H   0  0  0  0  0  0
  -24.5933  -30.7051   25.7753 H   0  0  0  0  0  0
  -24.8912  -32.2900   26.4793 H   0  0  0  0  0  0
  -25.8052  -30.8945   27.0225 H   0  0  0  0  0  0
  -26.2998  -29.6677   24.1274 H   0  0  0  0  0  0
  -27.4027  -29.7243   25.4815 H   0  0  0  0  0  0
  -27.8904  -30.4189   23.9557 H   0  0  0  0  0  0
  -27.2676  -33.3629   26.2019 H   0  0  0  0  0  0
  -28.3922  -32.6827   25.0347 H   0  0  0  0  0  0
  -28.0705  -31.8460   26.5453 H   0  0  0  0  0  0
  -28.2571  -38.0094   24.7531 H   0  0  0  0  0  0
  -28.1092  -36.2626   24.6265 H   0  0  0  0  0  0
  -27.2301  -37.1406   25.8865 H   0  0  0  0  0  0
  -20.9443  -29.8768   21.6802 H   0  0  0  0  0  0
  -26.0147  -38.2813   24.1431 H   0  0  0  0  0  0
  -30.8751  -20.8521   20.9125 H   0  0  0  0  0  0
  -30.4757  -23.2829   21.0270 H   0  0  0  0  0  0
  -26.4100  -22.6720   19.9202 H   0  0  0  0  0  0
  -27.0576  -19.3502   17.7139 H   0  0  0  0  0  0
  -25.7990  -18.2711   18.5134 H   0  0  0  0  0  0
  -24.3381  -20.2467   18.9017 H   0  0  0  0  0  0
  -25.5854  -21.3269   18.0875 H   0  0  0  0  0  0
  -28.9995  -18.2840   22.5350 H   0  0  0  0  0  0
  -27.4028  -18.1127   21.8315 H   0  0  0  0  0  0
  -27.8399  -15.9078   21.0807 H   0  0  0  0  0  0
  -28.8844  -15.9156   22.4949 H   0  0  0  0  0  0
  -31.0942  -17.8852   20.7795 H   0  0  0  0  0  0
  -30.5652  -17.5704   19.1400 H   0  0  0  0  0  0
  -28.3360  -18.2680   19.6031 H   0  0  0  0  0  0
  -26.0095  -19.5962   20.6578 H   0  0  0  0  0  0
  -28.3011  -24.9485   21.8534 H   0  0  0  0  0  0
  -26.8578  -24.7655   20.9639 H   0  0  0  0  0  0
  1 25  1  0  0  0
  1 30  2  0  0  0
  1 85  1  0  0  0
  2  3  1  0  0  0
  2 25  1  0  0  0
  2 86  1  0  0  0
  2 87  1  0  0  0
  3  4  1  0  0  0
  3 88  1  0  0  0
  3 89  1  0  0  0
  4  5  1  0  0  0
  4 90  1  0  0  0
  4 91  1  0  0  0
  5  6  1  0  0  0
  5 26  1  0  0  0
  5 92  1  0  0  0
  6 25  1  0  0  0
  6 93  1  0  0  0
  6 94  1  0  0  0
  7  8  2  0  0  0
  7 26  1  0  0  0
  7 29  1  0  0  0
  8  9  1  0  0  0
  8 22  1  0  0  0
  9 10  1  0  0  0
  9 27  2  0  0  0
 10 11  2  0  0  0
 10 15  1  0  0  0
 11 12  1  0  0  0
 11 95  1  0  0  0
 12 13  2  0  0  0
 12 96  1  0  0  0
 13 14  1  0  0  0
 13 31  1  0  0  0
 14 15  2  0  0  0
 14 97  1  0  0  0
 15 98  1  0  0  0
 16 17  2  0  0  0
 16 21  1  0  0  0
 16 31  1  0  0  0
 17 18  1  0  0  0
 17 99  1  0  0  0
 18 19  2  0  0  0
 18100  1  0  0  0
 19 20  1  0  0  0
 19 24  1  0  0  0
 20 21  2  0  0  0
 20101  1  0  0  0
 21 23  1  0  0  0
 22 28  1  0  0  0
 22 32  2  0  0  0
 26 27  1  0  0  0
 28102  1  0  0  0
 28103  1  0  0  0
 29104  1  0  0  0
 29105  1  0  0  0
 33 34  1  0  0  0
 33 66  1  0  0  0
 33 70  2  0  0  0
 34 36  1  0  0  0
 34 59  1  0  0  0
 34106  1  0  0  0
 35 44  2  0  0  0
 35 45  1  0  0  0
 35 68  1  0  0  0
 36 56  1  0  0  0
 36107  1  0  0  0
 37 39  1  0  0  0
 37 47  1  0  0  0
 37 66  1  0  0  0
 37108  1  0  0  0
 38 43  2  0  0  0
 38 46  1  0  0  0
 38 47  1  0  0  0
 39 64  1  0  0  0
 39 67  2  0  0  0
 40 52  1  0  0  0
 40 53  2  0  0  0
 40 58  1  0  0  0
 41109  1  0  0  0
 41110  1  0  0  0
 41111  1  0  0  0
 41 48  1  0  0  0
 42 43  1  0  0  0
 42 66  1  0  0  0
 42112  1  0  0  0
 42113  1  0  0  0
 43 44  1  0  0  0
 44114  1  0  0  0
 45 46  2  0  0  0
 45115  1  0  0  0
 46116  1  0  0  0
 47117  1  0  0  0
 47118  1  0  0  0
 48 56  1  0  0  0
 48 65  1  0  0  0
 48119  1  0  0  0
 49 50  1  0  0  0
 49 53  1  0  0  0
 49 64  1  0  0  0
 49120  1  0  0  0
 50 51  1  0  0  0
 50121  1  0  0  0
 50122  1  0  0  0
 51 52  1  0  0  0
 51123  1  0  0  0
 51124  1  0  0  0
 52125  1  0  0  0
 52126  1  0  0  0
 53 54  1  0  0  0
 54 55  2  0  0  0
 54127  1  0  0  0
 55 57  1  0  0  0
 55128  1  0  0  0
 56 69  2  0  0  0
 57 58  2  0  0  0
 57129  1  0  0  0
 58130  1  0  0  0
 59 60  1  0  0  0
 59 61  1  0  0  0
 59 62  1  0  0  0
 60131  1  0  0  0
 60132  1  0  0  0
 60133  1  0  0  0
 61134  1  0  0  0
 61135  1  0  0  0
 61136  1  0  0  0
 62137  1  0  0  0
 62138  1  0  0  0
 62139  1  0  0  0
 63 65  1  0  0  0
 63140  1  0  0  0
 63141  1  0  0  0
 63142  1  0  0  0
 64143  1  0  0  0
 65144  1  0  0  0
 68 84  1  0  0  0
 71 72  2  0  0  0
 71 74  1  0  0  0
 71145  1  0  0  0
 72 76  1  0  0  0
 72146  1  0  0  0
 73 75  1  0  0  0
 73 76  2  0  0  0
 73147  1  0  0  0
 74 75  2  0  0  0
 74 82  1  0  0  0
 75 83  1  0  0  0
 76 84  1  0  0  0
 77 78  1  0  0  0
 77 83  1  0  0  0
 77148  1  0  0  0
 77149  1  0  0  0
 78 83  1  0  0  0
 78150  1  0  0  0
 78151  1  0  0  0
 79 80  1  0  0  0
 79 82  1  0  0  0
 79152  1  0  0  0
 79153  1  0  0  0
 80 85  1  0  0  0
 80154  1  0  0  0
 80155  1  0  0  0
 81 82  1  0  0  0
 81 85  1  0  0  0
 81156  1  0  0  0
 81157  1  0  0  0
 82158  1  0  0  0
 83159  1  0  0  0
 84160  1  0  0  0
 84161  1  0  0  0
M  ISO  4   1 100  68 101  84 101  85 100
M  END
> <chiral flag>
0

> <version>
0

> <s_m_source_file>
/data/baiqing/PycharmProjects/Reinvent-master-3.2/result/LINK_invent/BTK/process_docking_weight1_custom_sum_contain_oxygen_bond_distance_aromatic_linkinvent_7_9_3/rearranged_h_0136.sdf

> <i_m_source_file_index>
84

> <r_mmod_Potential_Energy-OPLS-2005>
674.348693847656

> <r_mmod_Stretch_Energy-OPLS-2005>
202.623306274414

> <r_mmod_Bend_Energy-OPLS-2005>
296.700012207031

> <r_mmod_Torsional_Energy-OPLS-2005>
369.700531005859

> <r_mmod_Improper_Torsional_Energy-OPLS-2005>
11.7980136871338

> <r_mmod_Van_der_Waal_Energy-OPLS-2005>
128.858596801758

> <r_mmod_Electrostatic_Energy-OPLS-2005>
-294.758636474609

> <r_mmod_Solvation_Energy-OPLS-2005>
-198.114562988281

> <b_mmod_Minimization_Converged-OPLS-2005>
0

> <r_mmod_RMS_Derivative-OPLS-2005>
1.29964184761047

$$$$
87
                    3D
 Structure written by MMmdl.
166175  0  0  1  0            999 V2000
  -30.6776  -14.5842   20.5558 C   0  0  0  0  0  0
  -30.4172  -12.3777   19.4341 C   0  0  0  0  0  0
  -29.4913  -12.5048   18.2076 C   0  0  0  0  0  0
  -28.0161  -12.3488   18.6252 C   0  0  0  0  0  0
  -27.6455  -13.2191   19.8540 C   0  0  2  0  0  0
  -28.6879  -13.0755   20.9808 C   0  0  0  0  0  0
  -25.2538  -13.8170   20.5682 C   0  0  0  0  0  0
  -24.1811  -13.0443   20.9207 C   0  0  0  0  0  0
  -24.6376  -11.6912   20.8728 C   0  0  0  0  0  0
  -23.9041  -10.4299   21.0400 C   0  0  0  0  0  0
  -24.3602   -9.4219   21.9181 C   0  0  0  0  0  0
  -23.6294   -8.2243   22.0742 C   0  0  0  0  0  0
  -22.4271   -8.0271   21.3534 C   0  0  0  0  0  0
  -21.9898   -9.0240   20.4631 C   0  0  0  0  0  0
  -22.7212  -10.2136   20.3048 C   0  0  0  0  0  0
  -21.6857   -6.0728   22.5280 C   0  0  0  0  0  0
  -21.4012   -6.5634   23.8206 C   0  0  0  0  0  0
  -21.3671   -5.6790   24.9173 C   0  0  0  0  0  0
  -21.6042   -4.3051   24.7230 C   0  0  0  0  0  0
  -21.8820   -3.8141   23.4347 C   0  0  0  0  0  0
  -21.9194   -4.6954   22.3404 C   0  0  0  0  0  0
  -22.7835  -13.5237   21.1885 C   0  0  0  0  0  0
  -22.1661   -4.2135   21.0984 F   0  0  0  0  0  0
  -21.5639   -3.4543   25.7749 F   0  0  0  0  0  0
  -30.0026  -13.4034   20.4108 N   0  0  0  0  0  0
  -26.2948  -12.9355   20.3273 N   0  0  0  0  0  0
  -25.9296  -11.6509   20.5719 N   0  0  0  0  0  0
  -22.0482  -12.8207   22.0424 N   0  0  0  0  0  0
  -25.4278  -15.1887   20.4122 N   0  0  0  0  0  0
  -31.8236  -14.7232   20.1172 O   0  0  0  0  0  0
  -21.6644   -6.8864   21.4236 O   0  0  0  0  0  0
  -22.3520  -14.5555   20.6759 O   0  0  0  0  0  0
  -24.6229  -31.8626   23.1996 C   0  0  0  0  0  0
  -25.9089  -32.4793   23.8326 C   0  0  1  0  0  0
  -27.2247  -27.3496   20.1189 C   0  0  0  0  0  0
  -25.5934  -33.8597   24.2258 N   0  0  0  0  0  0
  -23.4146  -30.4820   21.5420 C   0  0  2  0  0  0
  -24.8617  -28.9298   20.1165 C   0  0  0  0  0  0
  -22.7466  -29.4631   22.4959 C   0  0  0  0  0  0
  -18.0291  -28.1403   22.8464 C   0  0  0  0  0  0
  -24.1502  -36.7301   23.2634 C   0  0  0  0  0  0
  -25.9487  -30.8025   21.3637 C   0  0  0  0  0  0
  -26.0261  -29.4270   20.7169 C   0  0  0  0  0  0
  -27.2147  -28.6468   20.7053 C   0  0  0  0  0  0
  -26.0421  -26.8821   19.5130 C   0  0  0  0  0  0
  -24.8692  -27.6617   19.5086 C   0  0  0  0  0  0
  -23.6269  -29.8053   20.1609 C   0  0  0  0  0  0
  -25.4131  -36.3079   24.0300 C   0  0  1  0  0  0
  -20.5888  -28.3696   23.1302 C   0  0  2  0  0  0
  -20.6806  -26.9438   22.5416 C   0  0  0  0  0  0
  -19.5776  -26.6403   21.5229 C   0  0  0  0  0  0
  -18.1942  -26.7957   22.1616 C   0  0  0  0  0  0
  -19.1537  -28.8871   23.2879 C   0  0  0  0  0  0
  -18.9463  -30.1481   23.8889 C   0  0  0  0  0  0
  -17.6467  -30.6603   24.0567 C   0  0  0  0  0  0
  -25.9063  -34.9451   23.5077 C   0  0  0  0  0  0
  -16.5354  -29.9099   23.6338 C   0  0  0  0  0  0
  -16.7280  -28.6532   23.0343 C   0  0  0  0  0  0
  -26.4495  -31.6582   25.0683 C   0  0  0  0  0  0
  -25.3711  -31.3711   26.1397 C   0  0  0  0  0  0
  -27.0335  -30.3017   24.6066 C   0  0  0  0  0  0
  -27.6082  -32.4316   25.7423 C   0  0  0  0  0  0
  -27.5574  -37.1796   24.8458 C   0  0  0  0  0  0
  -21.4181  -29.3040   22.3696 N   0  0  0  0  0  0
  -26.4307  -37.3775   23.9386 N   0  0  0  0  0  0
  -24.6814  -31.0658   22.0928 N   0  0  0  0  0  0
  -23.4199  -28.8183   23.3037 O   0  0  0  0  0  0
  -28.3718  -26.5675   20.0622 O   0  0  0  0  0  0
  -26.5638  -34.8915   22.4642 O   0  0  0  0  0  0
  -23.5399  -32.1427   23.7326 O   0  0  0  0  0  0
  -31.7750  -18.6616   23.5919 C   0  0  0  0  0  0
  -31.9997  -17.3006   23.8105 C   0  0  0  0  0  0
  -30.9102  -19.0636   22.5667 C   0  0  0  0  0  0
  -31.3766  -16.3284   23.0091 C   0  0  0  0  0  0
  -30.2994  -18.1353   21.6889 C   0  0  0  0  0  0
  -30.5704  -16.7166   21.8860 C   0  0  0  0  0  0
  -30.4298  -13.9950   23.8113 C   0  0  0  0  0  0
  -31.3480  -14.4955   24.8938 C   0  0  0  0  0  0
  -31.5901  -14.8997   23.4522 C   0  0  0  0  0  0
  -29.3571  -18.7564   20.6137 C   0  0  0  0  0  0
  -29.6156  -20.2685   20.1562 C   0  0  0  0  0  0
  -28.6220  -21.4287   20.5947 C   0  0  0  0  0  0
  -28.0351  -23.9411   20.1684 C   0  0  0  0  0  0
  -28.4245  -25.3243   20.8331 C   0  0  0  0  0  0
  -29.9997  -15.6488   21.0845 N   0  0  0  0  0  0
  -29.0729  -22.8374   20.2612 N   0  3  0  0  0  0
  -31.4595  -12.4840   19.1309 H   0  0  0  0  0  0
  -30.3340  -11.3828   19.8738 H   0  0  0  0  0  0
  -29.7481  -11.7528   17.4611 H   0  0  0  0  0  0
  -29.6402  -13.4725   17.7270 H   0  0  0  0  0  0
  -27.8530  -11.2965   18.8568 H   0  0  0  0  0  0
  -27.3586  -12.5813   17.7870 H   0  0  0  0  0  0
  -27.6658  -14.2549   19.5167 H   0  0  0  0  0  0
  -28.6925  -12.0591   21.3790 H   0  0  0  0  0  0
  -28.4234  -13.7246   21.8155 H   0  0  0  0  0  0
  -25.2750   -9.5717   22.4742 H   0  0  0  0  0  0
  -24.0019   -7.4638   22.7451 H   0  0  0  0  0  0
  -21.0836   -8.8747   19.8932 H   0  0  0  0  0  0
  -22.3658  -10.9670   19.6152 H   0  0  0  0  0  0
  -21.1986   -7.6139   23.9704 H   0  0  0  0  0  0
  -21.1500   -6.0524   25.9074 H   0  0  0  0  0  0
  -22.0583   -2.7600   23.2856 H   0  0  0  0  0  0
  -22.4116  -11.9863   22.4797 H   0  0  0  0  0  0
  -21.1094  -13.1203   22.2632 H   0  0  0  0  0  0
  -24.6648  -15.8474   20.5237 H   0  0  0  0  0  0
  -26.2751  -15.6224   20.0703 H   0  0  0  0  0  0
  -26.7152  -32.5471   23.1078 H   0  0  0  0  0  0
  -25.0101  -33.9780   25.0413 H   0  0  0  0  0  0
  -22.7069  -31.3008   21.3918 H   0  0  0  0  0  0
  -23.3749  -35.9649   23.3326 H   0  0  0  0  0  0
  -24.3575  -36.8900   22.2043 H   0  0  0  0  0  0
  -23.7283  -37.6508   23.6672 H   0  0  0  0  0  0
  -26.0714  -31.5599   20.5877 H   0  0  0  0  0  0
  -26.8355  -30.8617   21.9826 H   0  0  0  0  0  0
  -28.1190  -29.0262   21.1594 H   0  0  0  0  0  0
  -26.0254  -25.9151   19.0325 H   0  0  0  0  0  0
  -23.9739  -27.2782   19.0394 H   0  0  0  0  0  0
  -23.7362  -30.5744   19.3953 H   0  0  0  0  0  0
  -22.7514  -29.2250   19.8667 H   0  0  0  0  0  0
  -25.1312  -36.1927   25.0788 H   0  0  0  0  0  0
  -20.9963  -28.3282   24.1434 H   0  0  0  0  0  0
  -20.5785  -26.2299   23.3611 H   0  0  0  0  0  0
  -21.6663  -26.7541   22.1154 H   0  0  0  0  0  0
  -19.6967  -25.6327   21.1248 H   0  0  0  0  0  0
  -19.6721  -27.3230   20.6787 H   0  0  0  0  0  0
  -17.4232  -26.6713   21.4006 H   0  0  0  0  0  0
  -18.0313  -26.0117   22.9024 H   0  0  0  0  0  0
  -19.7941  -30.7303   24.2244 H   0  0  0  0  0  0
  -17.5021  -31.6279   24.5187 H   0  0  0  0  0  0
  -15.5362  -30.2996   23.7693 H   0  0  0  0  0  0
  -15.8675  -28.0858   22.7053 H   0  0  0  0  0  0
  -24.5895  -30.7069   25.7691 H   0  0  0  0  0  0
  -24.8891  -32.2872   26.4827 H   0  0  0  0  0  0
  -25.7986  -30.8863   27.0177 H   0  0  0  0  0  0
  -26.2861  -29.6765   24.1172 H   0  0  0  0  0  0
  -27.4164  -29.7279   25.4511 H   0  0  0  0  0  0
  -27.8663  -30.4338   23.9159 H   0  0  0  0  0  0
  -27.2733  -33.3643   26.1978 H   0  0  0  0  0  0
  -28.3869  -32.6848   25.0219 H   0  0  0  0  0  0
  -28.0777  -31.8457   26.5332 H   0  0  0  0  0  0
  -28.2597  -38.0097   24.7513 H   0  0  0  0  0  0
  -28.1058  -36.2623   24.6278 H   0  0  0  0  0  0
  -27.2275  -37.1411   25.8858 H   0  0  0  0  0  0
  -20.9410  -29.8686   21.6810 H   0  0  0  0  0  0
  -26.0176  -38.2827   24.1413 H   0  0  0  0  0  0
  -32.2428  -19.3949   24.2366 H   0  0  0  0  0  0
  -32.6370  -16.9981   24.6307 H   0  0  0  0  0  0
  -30.7263  -20.1231   22.4769 H   0  0  0  0  0  0
  -29.4275  -14.4152   23.7769 H   0  0  0  0  0  0
  -30.5044  -12.9404   23.5490 H   0  0  0  0  0  0
  -32.0082  -13.7567   25.3417 H   0  0  0  0  0  0
  -30.9428  -15.2386   25.5801 H   0  0  0  0  0  0
  -32.4518  -14.4574   22.9545 H   0  0  0  0  0  0
  -28.3261  -18.6551   20.9568 H   0  0  0  0  0  0
  -29.4279  -18.1160   19.7335 H   0  0  0  0  0  0
  -29.5633  -20.2592   19.0670 H   0  0  0  0  0  0
  -30.6502  -20.5510   20.3507 H   0  0  0  0  0  0
  -28.4424  -21.3788   21.6694 H   0  0  0  0  0  0
  -27.6575  -21.2512   20.1168 H   0  0  0  0  0  0
  -27.7983  -24.0949   19.1152 H   0  0  0  0  0  0
  -27.1077  -23.5953   20.6272 H   0  0  0  0  0  0
  -29.4530  -25.2505   21.1851 H   0  0  0  0  0  0
  -27.8401  -25.4486   21.7445 H   0  0  0  0  0  0
  -29.0047  -15.5257   21.1791 H   0  0  0  0  0  0
  -29.5355  -22.8072   19.3661 H   0  0  0  0  0  0
  -29.7768  -23.1073   20.9321 H   0  0  0  0  0  0
  1 25  1  0  0  0
  1 30  2  0  0  0
  1 85  1  0  0  0
  2  3  1  0  0  0
  2 25  1  0  0  0
  2 87  1  0  0  0
  2 88  1  0  0  0
  3  4  1  0  0  0
  3 89  1  0  0  0
  3 90  1  0  0  0
  4  5  1  0  0  0
  4 91  1  0  0  0
  4 92  1  0  0  0
  5  6  1  0  0  0
  5 26  1  0  0  0
  5 93  1  0  0  0
  6 25  1  0  0  0
  6 94  1  0  0  0
  6 95  1  0  0  0
  7  8  2  0  0  0
  7 26  1  0  0  0
  7 29  1  0  0  0
  8  9  1  0  0  0
  8 22  1  0  0  0
  9 10  1  0  0  0
  9 27  2  0  0  0
 10 11  2  0  0  0
 10 15  1  0  0  0
 11 12  1  0  0  0
 11 96  1  0  0  0
 12 13  2  0  0  0
 12 97  1  0  0  0
 13 14  1  0  0  0
 13 31  1  0  0  0
 14 15  2  0  0  0
 14 98  1  0  0  0
 15 99  1  0  0  0
 16 17  2  0  0  0
 16 21  1  0  0  0
 16 31  1  0  0  0
 17 18  1  0  0  0
 17100  1  0  0  0
 18 19  2  0  0  0
 18101  1  0  0  0
 19 20  1  0  0  0
 19 24  1  0  0  0
 20 21  2  0  0  0
 20102  1  0  0  0
 21 23  1  0  0  0
 22 28  1  0  0  0
 22 32  2  0  0  0
 26 27  1  0  0  0
 28103  1  0  0  0
 28104  1  0  0  0
 29105  1  0  0  0
 29106  1  0  0  0
 33 34  1  0  0  0
 33 66  1  0  0  0
 33 70  2  0  0  0
 34 36  1  0  0  0
 34 59  1  0  0  0
 34107  1  0  0  0
 35 44  2  0  0  0
 35 45  1  0  0  0
 35 68  1  0  0  0
 36 56  1  0  0  0
 36108  1  0  0  0
 37 39  1  0  0  0
 37 47  1  0  0  0
 37 66  1  0  0  0
 37109  1  0  0  0
 38 43  2  0  0  0
 38 46  1  0  0  0
 38 47  1  0  0  0
 39 64  1  0  0  0
 39 67  2  0  0  0
 40 52  1  0  0  0
 40 53  2  0  0  0
 40 58  1  0  0  0
 41110  1  0  0  0
 41111  1  0  0  0
 41112  1  0  0  0
 41 48  1  0  0  0
 42 43  1  0  0  0
 42 66  1  0  0  0
 42113  1  0  0  0
 42114  1  0  0  0
 43 44  1  0  0  0
 44115  1  0  0  0
 45 46  2  0  0  0
 45116  1  0  0  0
 46117  1  0  0  0
 47118  1  0  0  0
 47119  1  0  0  0
 48 56  1  0  0  0
 48 65  1  0  0  0
 48120  1  0  0  0
 49 50  1  0  0  0
 49 53  1  0  0  0
 49 64  1  0  0  0
 49121  1  0  0  0
 50 51  1  0  0  0
 50122  1  0  0  0
 50123  1  0  0  0
 51 52  1  0  0  0
 51124  1  0  0  0
 51125  1  0  0  0
 52126  1  0  0  0
 52127  1  0  0  0
 53 54  1  0  0  0
 54 55  2  0  0  0
 54128  1  0  0  0
 55 57  1  0  0  0
 55129  1  0  0  0
 56 69  2  0  0  0
 57 58  2  0  0  0
 57130  1  0  0  0
 58131  1  0  0  0
 59 60  1  0  0  0
 59 61  1  0  0  0
 59 62  1  0  0  0
 60132  1  0  0  0
 60133  1  0  0  0
 60134  1  0  0  0
 61135  1  0  0  0
 61136  1  0  0  0
 61137  1  0  0  0
 62138  1  0  0  0
 62139  1  0  0  0
 62140  1  0  0  0
 63 65  1  0  0  0
 63141  1  0  0  0
 63142  1  0  0  0
 63143  1  0  0  0
 64144  1  0  0  0
 65145  1  0  0  0
 68 84  1  0  0  0
 71 72  2  0  0  0
 71 73  1  0  0  0
 71146  1  0  0  0
 72 74  1  0  0  0
 72147  1  0  0  0
 73 75  2  0  0  0
 73148  1  0  0  0
 74 76  2  0  0  0
 74 79  1  0  0  0
 75 76  1  0  0  0
 75 80  1  0  0  0
 76 85  1  0  0  0
 77 78  1  0  0  0
 77 79  1  0  0  0
 77149  1  0  0  0
 77150  1  0  0  0
 78 79  1  0  0  0
 78151  1  0  0  0
 78152  1  0  0  0
 79153  1  0  0  0
 80 81  1  0  0  0
 80154  1  0  0  0
 80155  1  0  0  0
 81 82  1  0  0  0
 81156  1  0  0  0
 81157  1  0  0  0
 82 86  1  0  0  0
 82158  1  0  0  0
 82159  1  0  0  0
 83 84  1  0  0  0
 83 86  1  0  0  0
 83160  1  0  0  0
 83161  1  0  0  0
 84162  1  0  0  0
 84163  1  0  0  0
 85164  1  0  0  0
 86165  1  0  0  0
 86166  1  0  0  0
M  CHG  1  86   1
M  ISO  4   1 100  68 101  84 101  85 100
M  END
> <chiral flag>
0

> <version>
0

> <s_m_source_file>
/data/baiqing/PycharmProjects/Reinvent-master-3.2/result/LINK_invent/BTK/process_docking_weight1_custom_sum_contain_oxygen_bond_distance_aromatic_linkinvent_7_9_3/rearranged_h_0136.sdf

> <i_m_source_file_index>
85

> <r_mmod_Potential_Energy-OPLS-2005>
-7.56543302536011

> <r_mmod_Stretch_Energy-OPLS-2005>
75.975456237793

> <r_mmod_Bend_Energy-OPLS-2005>
138.931121826172

> <r_mmod_Torsional_Energy-OPLS-2005>
316.280731201172

> <r_mmod_Improper_Torsional_Energy-OPLS-2005>
4.1587815284729

> <r_mmod_Van_der_Waal_Energy-OPLS-2005>
142.552642822266

> <r_mmod_Electrostatic_Energy-OPLS-2005>
-262.612182617188

> <r_mmod_Solvation_Energy-OPLS-2005>
-454.634185791016

> <b_mmod_Minimization_Converged-OPLS-2005>
0

> <r_mmod_RMS_Derivative-OPLS-2005>
3.3350727558136

$$$$
88
                    3D
 Structure written by MMmdl.
165174  0  0  1  0            999 V2000
  -30.6943  -14.4622   20.5887 C   0  0  0  0  0  0
  -30.4271  -12.3033   19.4171 C   0  0  0  0  0  0
  -29.4951  -12.5096   18.2046 C   0  0  0  0  0  0
  -28.0157  -12.3696   18.6162 C   0  0  0  0  0  0
  -27.6645  -13.2018   19.8782 C   0  0  2  0  0  0
  -28.7048  -12.9601   20.9954 C   0  0  0  0  0  0
  -25.2605  -13.8152   20.5678 C   0  0  0  0  0  0
  -24.1847  -13.0437   20.9170 C   0  0  0  0  0  0
  -24.6391  -11.6901   20.8729 C   0  0  0  0  0  0
  -23.9055  -10.4291   21.0403 C   0  0  0  0  0  0
  -24.3610   -9.4208   21.9182 C   0  0  0  0  0  0
  -23.6287   -8.2243   22.0753 C   0  0  0  0  0  0
  -22.4270   -8.0280   21.3544 C   0  0  0  0  0  0
  -21.9903   -9.0253   20.4647 C   0  0  0  0  0  0
  -22.7228  -10.2133   20.3054 C   0  0  0  0  0  0
  -21.6851   -6.0735   22.5280 C   0  0  0  0  0  0
  -21.4013   -6.5639   23.8213 C   0  0  0  0  0  0
  -21.3659   -5.6792   24.9175 C   0  0  0  0  0  0
  -21.6044   -4.3055   24.7226 C   0  0  0  0  0  0
  -21.8819   -3.8147   23.4347 C   0  0  0  0  0  0
  -21.9192   -4.6963   22.3403 C   0  0  0  0  0  0
  -22.7871  -13.5242   21.1838 C   0  0  0  0  0  0
  -22.1661   -4.2149   21.0981 F   0  0  0  0  0  0
  -21.5629   -3.4539   25.7739 F   0  0  0  0  0  0
  -30.0397  -13.2750   20.4518 N   0  0  0  0  0  0
  -26.3037  -12.9311   20.3371 N   0  0  0  0  0  0
  -25.9316  -11.6476   20.5760 N   0  0  0  0  0  0
  -22.0508  -12.8238   22.0394 N   0  0  0  0  0  0
  -25.4347  -15.1870   20.4097 N   0  0  0  0  0  0
  -31.8095  -14.6585   20.0916 O   0  0  0  0  0  0
  -21.6636   -6.8877   21.4241 O   0  0  0  0  0  0
  -22.3561  -14.5553   20.6691 O   0  0  0  0  0  0
  -24.6142  -31.8682   23.2098 C   0  0  0  0  0  0
  -25.9037  -32.4824   23.8393 C   0  0  1  0  0  0
  -27.2347  -27.4358   20.0966 C   0  0  0  0  0  0
  -25.5894  -33.8622   24.2327 N   0  0  0  0  0  0
  -23.4018  -30.4916   21.5507 C   0  0  2  0  0  0
  -24.8479  -28.9576   20.1149 C   0  0  0  0  0  0
  -22.7408  -29.4659   22.4994 C   0  0  0  0  0  0
  -18.0271  -28.1375   22.8493 C   0  0  0  0  0  0
  -24.1486  -36.7317   23.2639 C   0  0  0  0  0  0
  -25.9301  -30.8360   21.3606 C   0  0  0  0  0  0
  -26.0085  -29.4708   20.7067 C   0  0  0  0  0  0
  -27.2060  -28.7198   20.6888 C   0  0  0  0  0  0
  -26.0547  -26.9372   19.4978 C   0  0  0  0  0  0
  -24.8661  -27.6909   19.5066 C   0  0  0  0  0  0
  -23.6095  -29.8236   20.1654 C   0  0  0  0  0  0
  -25.4107  -36.3114   24.0338 C   0  0  1  0  0  0
  -20.5861  -28.3661   23.1322 C   0  0  2  0  0  0
  -20.6761  -26.9399   22.5419 C   0  0  0  0  0  0
  -19.5741  -26.6386   21.5212 C   0  0  0  0  0  0
  -18.1920  -26.7923   22.1624 C   0  0  0  0  0  0
  -19.1520  -28.8835   23.2904 C   0  0  0  0  0  0
  -18.9450  -30.1442   23.8912 C   0  0  0  0  0  0
  -17.6453  -30.6583   24.0565 C   0  0  0  0  0  0
  -25.9033  -34.9478   23.5130 C   0  0  0  0  0  0
  -16.5344  -29.9087   23.6325 C   0  0  0  0  0  0
  -16.7261  -28.6503   23.0345 C   0  0  0  0  0  0
  -26.4467  -31.6600   25.0718 C   0  0  0  0  0  0
  -25.3738  -31.3700   26.1470 C   0  0  0  0  0  0
  -27.0296  -30.3046   24.6079 C   0  0  0  0  0  0
  -27.6046  -32.4315   25.7479 C   0  0  0  0  0  0
  -27.5580  -37.1813   24.8466 C   0  0  0  0  0  0
  -21.4137  -29.3031   22.3733 N   0  0  0  0  0  0
  -26.4295  -37.3795   23.9407 N   0  0  0  0  0  0
  -24.6672  -31.0789   22.0993 N   0  0  0  0  0  0
  -23.4185  -28.8199   23.3031 O   0  0  0  0  0  0
  -28.4049  -26.7036   20.1132 O   0  0  0  0  0  0
  -26.5597  -34.8928   22.4693 O   0  0  0  0  0  0
  -23.5337  -32.1429   23.7499 O   0  0  0  0  0  0
  -29.1146  -17.5247   21.9464 C   0  0  0  0  0  0
  -30.2004  -19.6504   21.4261 C   0  0  0  0  0  0
  -29.1356  -18.9319   22.0423 C   0  0  0  0  0  0
  -31.1519  -18.8683   20.7122 C   0  0  0  0  0  0
  -30.1178  -16.8279   21.2493 C   0  0  0  0  0  0
  -30.4831  -21.7464   22.9874 C   0  0  0  0  0  0
  -30.3581  -23.2508   22.7428 C   0  0  0  0  0  0
  -29.4077  -22.1428   20.8346 C   0  0  0  0  0  0
  -30.3841  -21.1879   21.5681 C   0  0  2  0  0  0
  -28.0128  -19.5800   22.8374 C   0  0  0  0  0  0
  -32.3343  -19.4753   19.9753 C   0  0  0  0  0  0
  -29.5844  -24.6951   20.8660 C   0  0  0  0  0  0
  -28.2708  -25.2838   20.3035 C   0  0  0  0  0  0
  -31.1031  -17.5185   20.6356 N   0  0  0  0  0  0
  -29.9885  -15.4092   21.2394 N   0  0  0  0  0  0
  -29.4036  -23.4149   21.6185 N   0  3  2  0  0  0
  -31.4707  -12.4071   19.1145 H   0  0  0  0  0  0
  -30.3323  -11.2877   19.8045 H   0  0  0  0  0  0
  -29.7331  -11.7899   17.4203 H   0  0  0  0  0  0
  -29.6639  -13.4977   17.7735 H   0  0  0  0  0  0
  -27.8235  -11.3128   18.8055 H   0  0  0  0  0  0
  -27.3657  -12.6513   17.7871 H   0  0  0  0  0  0
  -27.7151  -14.2526   19.5919 H   0  0  0  0  0  0
  -28.6804  -11.9160   21.3114 H   0  0  0  0  0  0
  -28.4578  -13.5315   21.8910 H   0  0  0  0  0  0
  -25.2757   -9.5685   22.4752 H   0  0  0  0  0  0
  -23.9999   -7.4635   22.7472 H   0  0  0  0  0  0
  -21.0835   -8.8770   19.8953 H   0  0  0  0  0  0
  -22.3688  -10.9671   19.6162 H   0  0  0  0  0  0
  -21.2005   -7.6147   23.9716 H   0  0  0  0  0  0
  -21.1481   -6.0523   25.9078 H   0  0  0  0  0  0
  -22.0599   -2.7609   23.2847 H   0  0  0  0  0  0
  -22.4116  -11.9892   22.4776 H   0  0  0  0  0  0
  -21.1129  -13.1271   22.2602 H   0  0  0  0  0  0
  -24.6689  -15.8433   20.5160 H   0  0  0  0  0  0
  -26.2884  -15.6253   20.0874 H   0  0  0  0  0  0
  -26.7110  -32.5539   23.1162 H   0  0  0  0  0  0
  -25.0048  -33.9786   25.0473 H   0  0  0  0  0  0
  -22.6901  -31.3080   21.4121 H   0  0  0  0  0  0
  -23.3743  -35.9656   23.3314 H   0  0  0  0  0  0
  -24.3581  -36.8918   22.2051 H   0  0  0  0  0  0
  -23.7245  -37.6529   23.6643 H   0  0  0  0  0  0
  -26.0402  -31.6030   20.5927 H   0  0  0  0  0  0
  -26.8188  -30.8901   21.9777 H   0  0  0  0  0  0
  -28.1033  -29.1140   21.1454 H   0  0  0  0  0  0
  -26.0392  -25.9714   19.0138 H   0  0  0  0  0  0
  -23.9739  -27.2916   19.0437 H   0  0  0  0  0  0
  -23.7164  -30.5983   19.4052 H   0  0  0  0  0  0
  -22.7336  -29.2428   19.8707 H   0  0  0  0  0  0
  -25.1283  -36.1983   25.0832 H   0  0  0  0  0  0
  -20.9951  -28.3224   24.1443 H   0  0  0  0  0  0
  -20.5665  -26.2267   23.3603 H   0  0  0  0  0  0
  -21.6633  -26.7445   22.1211 H   0  0  0  0  0  0
  -19.6903  -25.6302   21.1230 H   0  0  0  0  0  0
  -19.6681  -27.3207   20.6751 H   0  0  0  0  0  0
  -17.4190  -26.6672   21.4025 H   0  0  0  0  0  0
  -18.0320  -26.0060   22.9015 H   0  0  0  0  0  0
  -19.7927  -30.7251   24.2289 H   0  0  0  0  0  0
  -17.5010  -31.6265   24.5164 H   0  0  0  0  0  0
  -15.5346  -30.2994   23.7641 H   0  0  0  0  0  0
  -15.8660  -28.0830   22.7048 H   0  0  0  0  0  0
  -24.5907  -30.7051   25.7807 H   0  0  0  0  0  0
  -24.8932  -32.2855   26.4932 H   0  0  0  0  0  0
  -25.8095  -30.8860   27.0219 H   0  0  0  0  0  0
  -26.2834  -29.6812   24.1138 H   0  0  0  0  0  0
  -27.4081  -29.7275   25.4526 H   0  0  0  0  0  0
  -27.8661  -30.4374   23.9214 H   0  0  0  0  0  0
  -27.2667  -33.3601   26.2091 H   0  0  0  0  0  0
  -28.3837  -32.6897   25.0294 H   0  0  0  0  0  0
  -28.0735  -31.8418   26.5366 H   0  0  0  0  0  0
  -28.2608  -38.0102   24.7507 H   0  0  0  0  0  0
  -28.1067  -36.2634   24.6300 H   0  0  0  0  0  0
  -27.2299  -37.1475   25.8870 H   0  0  0  0  0  0
  -20.9293  -29.8760   21.6965 H   0  0  0  0  0  0
  -26.0188  -38.2877   24.1400 H   0  0  0  0  0  0
  -28.3160  -16.9771   22.4297 H   0  0  0  0  0  0
  -29.6696  -21.4220   23.6308 H   0  0  0  0  0  0
  -31.4180  -21.4799   23.4817 H   0  0  0  0  0  0
  -31.3346  -23.6469   22.4573 H   0  0  0  0  0  0
  -30.0333  -23.7915   23.6327 H   0  0  0  0  0  0
  -28.3921  -21.7531   20.7974 H   0  0  0  0  0  0
  -29.7198  -22.2929   19.8002 H   0  0  0  0  0  0
  -31.3543  -21.4397   21.1449 H   0  0  0  0  0  0
  -27.0871  -19.0167   22.7157 H   0  0  0  0  0  0
  -27.7961  -20.5998   22.5355 H   0  0  0  0  0  0
  -28.2568  -19.5793   23.8998 H   0  0  0  0  0  0
  -33.0367  -19.9229   20.6786 H   0  0  0  0  0  0
  -32.0020  -20.2401   19.2733 H   0  0  0  0  0  0
  -32.8794  -18.7246   19.4017 H   0  0  0  0  0  0
  -29.9778  -25.4337   21.5662 H   0  0  0  0  0  0
  -30.3392  -24.5949   20.0853 H   0  0  0  0  0  0
  -27.4621  -25.0918   21.0116 H   0  0  0  0  0  0
  -28.0083  -24.7914   19.3664 H   0  0  0  0  0  0
  -29.1447  -15.0596   21.6617 H   0  0  0  0  0  0
  -28.4957  -23.4596   22.0597 H   0  0  0  0  0  0
  1 25  1  0  0  0
  1 30  2  0  0  0
  1 85  1  0  0  0
  2  3  1  0  0  0
  2 25  1  0  0  0
  2 87  1  0  0  0
  2 88  1  0  0  0
  3  4  1  0  0  0
  3 89  1  0  0  0
  3 90  1  0  0  0
  4  5  1  0  0  0
  4 91  1  0  0  0
  4 92  1  0  0  0
  5  6  1  0  0  0
  5 26  1  0  0  0
  5 93  1  0  0  0
  6 25  1  0  0  0
  6 94  1  0  0  0
  6 95  1  0  0  0
  7  8  2  0  0  0
  7 26  1  0  0  0
  7 29  1  0  0  0
  8  9  1  0  0  0
  8 22  1  0  0  0
  9 10  1  0  0  0
  9 27  2  0  0  0
 10 11  2  0  0  0
 10 15  1  0  0  0
 11 12  1  0  0  0
 11 96  1  0  0  0
 12 13  2  0  0  0
 12 97  1  0  0  0
 13 14  1  0  0  0
 13 31  1  0  0  0
 14 15  2  0  0  0
 14 98  1  0  0  0
 15 99  1  0  0  0
 16 17  2  0  0  0
 16 21  1  0  0  0
 16 31  1  0  0  0
 17 18  1  0  0  0
 17100  1  0  0  0
 18 19  2  0  0  0
 18101  1  0  0  0
 19 20  1  0  0  0
 19 24  1  0  0  0
 20 21  2  0  0  0
 20102  1  0  0  0
 21 23  1  0  0  0
 22 28  1  0  0  0
 22 32  2  0  0  0
 26 27  1  0  0  0
 28103  1  0  0  0
 28104  1  0  0  0
 29105  1  0  0  0
 29106  1  0  0  0
 33 34  1  0  0  0
 33 66  1  0  0  0
 33 70  2  0  0  0
 34 36  1  0  0  0
 34 59  1  0  0  0
 34107  1  0  0  0
 35 44  2  0  0  0
 35 45  1  0  0  0
 35 68  1  0  0  0
 36 56  1  0  0  0
 36108  1  0  0  0
 37 39  1  0  0  0
 37 47  1  0  0  0
 37 66  1  0  0  0
 37109  1  0  0  0
 38 43  2  0  0  0
 38 46  1  0  0  0
 38 47  1  0  0  0
 39 64  1  0  0  0
 39 67  2  0  0  0
 40 52  1  0  0  0
 40 53  2  0  0  0
 40 58  1  0  0  0
 41110  1  0  0  0
 41111  1  0  0  0
 41112  1  0  0  0
 41 48  1  0  0  0
 42 43  1  0  0  0
 42 66  1  0  0  0
 42113  1  0  0  0
 42114  1  0  0  0
 43 44  1  0  0  0
 44115  1  0  0  0
 45 46  2  0  0  0
 45116  1  0  0  0
 46117  1  0  0  0
 47118  1  0  0  0
 47119  1  0  0  0
 48 56  1  0  0  0
 48 65  1  0  0  0
 48120  1  0  0  0
 49 50  1  0  0  0
 49 53  1  0  0  0
 49 64  1  0  0  0
 49121  1  0  0  0
 50 51  1  0  0  0
 50122  1  0  0  0
 50123  1  0  0  0
 51 52  1  0  0  0
 51124  1  0  0  0
 51125  1  0  0  0
 52126  1  0  0  0
 52127  1  0  0  0
 53 54  1  0  0  0
 54 55  2  0  0  0
 54128  1  0  0  0
 55 57  1  0  0  0
 55129  1  0  0  0
 56 69  2  0  0  0
 57 58  2  0  0  0
 57130  1  0  0  0
 58131  1  0  0  0
 59 60  1  0  0  0
 59 61  1  0  0  0
 59 62  1  0  0  0
 60132  1  0  0  0
 60133  1  0  0  0
 60134  1  0  0  0
 61135  1  0  0  0
 61136  1  0  0  0
 61137  1  0  0  0
 62138  1  0  0  0
 62139  1  0  0  0
 62140  1  0  0  0
 63 65  1  0  0  0
 63141  1  0  0  0
 63142  1  0  0  0
 63143  1  0  0  0
 64144  1  0  0  0
 65145  1  0  0  0
 68 83  1  0  0  0
 71 73  2  0  0  0
 71 75  1  0  0  0
 71146  1  0  0  0
 72 73  1  0  0  0
 72 74  2  0  0  0
 72 79  1  0  0  0
 73 80  1  0  0  0
 74 81  1  0  0  0
 74 84  1  0  0  0
 75 84  2  0  0  0
 75 85  1  0  0  0
 76 77  1  0  0  0
 76 79  1  0  0  0
 76147  1  0  0  0
 76148  1  0  0  0
 77 86  1  0  0  0
 77149  1  0  0  0
 77150  1  0  0  0
 78 79  1  0  0  0
 78 86  1  0  0  0
 78151  1  0  0  0
 78152  1  0  0  0
 79153  1  0  0  0
 80154  1  0  0  0
 80155  1  0  0  0
 80156  1  0  0  0
 81157  1  0  0  0
 81158  1  0  0  0
 81159  1  0  0  0
 82 83  1  0  0  0
 82160  1  0  0  0
 82161  1  0  0  0
 82 86  1  0  0  0
 83162  1  0  0  0
 83163  1  0  0  0
 85164  1  0  0  0
 86165  1  0  0  0
M  CHG  1  86   1
M  ISO  4   1 100  68 101  83 101  85 100
M  END
> <chiral flag>
0

> <version>
0

> <s_m_source_file>
/data/baiqing/PycharmProjects/Reinvent-master-3.2/result/LINK_invent/BTK/process_docking_weight1_custom_sum_contain_oxygen_bond_distance_aromatic_linkinvent_7_9_3/rearranged_h_0136.sdf

> <i_m_source_file_index>
86

> <r_mmod_Potential_Energy-OPLS-2005>
-201.168670654297

> <r_mmod_Stretch_Energy-OPLS-2005>
41.4639167785645

> <r_mmod_Bend_Energy-OPLS-2005>
141.984802246094

> <r_mmod_Torsional_Energy-OPLS-2005>
274.188873291016

> <r_mmod_Improper_Torsional_Energy-OPLS-2005>
2.81763982772827

> <r_mmod_Van_der_Waal_Energy-OPLS-2005>
159.796600341797

> <r_mmod_Electrostatic_Energy-OPLS-2005>
-362.427642822266

> <r_mmod_Solvation_Energy-OPLS-2005>
-470.421051025391

> <b_mmod_Minimization_Converged-OPLS-2005>
0

> <r_mmod_RMS_Derivative-OPLS-2005>
0.143601611256599

$$$$
89
                    3D
 Structure written by MMmdl.
164173  0  0  1  0            999 V2000
  -30.5240  -14.9954   20.4197 C   0  0  0  0  0  0
  -30.4436  -12.6272   19.4931 C   0  0  0  0  0  0
  -29.5264  -12.5357   18.2519 C   0  0  0  0  0  0
  -28.0583  -12.3168   18.6659 C   0  0  0  0  0  0
  -27.6232  -13.2531   19.8240 C   0  0  2  0  0  0
  -28.6662  -13.3058   20.9601 C   0  0  0  0  0  0
  -25.2430  -13.8222   20.5681 C   0  0  0  0  0  0
  -24.1763  -13.0429   20.9221 C   0  0  0  0  0  0
  -24.6390  -11.6916   20.8732 C   0  0  0  0  0  0
  -23.9076  -10.4287   21.0394 C   0  0  0  0  0  0
  -24.3627   -9.4198   21.9169 C   0  0  0  0  0  0
  -23.6292   -8.2239   22.0746 C   0  0  0  0  0  0
  -22.4272   -8.0286   21.3542 C   0  0  0  0  0  0
  -21.9910   -9.0253   20.4634 C   0  0  0  0  0  0
  -22.7249  -10.2126   20.3039 C   0  0  0  0  0  0
  -21.6856   -6.0724   22.5267 C   0  0  0  0  0  0
  -21.4016   -6.5620   23.8202 C   0  0  0  0  0  0
  -21.3665   -5.6770   24.9157 C   0  0  0  0  0  0
  -21.6049   -4.3036   24.7208 C   0  0  0  0  0  0
  -21.8822   -3.8135   23.4328 C   0  0  0  0  0  0
  -21.9184   -4.6949   22.3386 C   0  0  0  0  0  0
  -22.7783  -13.5200   21.1865 C   0  0  0  0  0  0
  -22.1661   -4.2134   21.0965 F   0  0  0  0  0  0
  -21.5627   -3.4521   25.7724 F   0  0  0  0  0  0
  -29.9320  -13.7337   20.3519 N   0  0  0  0  0  0
  -26.2856  -12.9462   20.3161 N   0  0  0  0  0  0
  -25.9321  -11.6584   20.5677 N   0  0  0  0  0  0
  -22.0430  -12.8205   22.0430 N   0  0  0  0  0  0
  -25.4054  -15.1962   20.4087 N   0  0  0  0  0  0
  -31.7420  -15.0480   20.2172 O   0  0  0  0  0  0
  -21.6641   -6.8885   21.4239 O   0  0  0  0  0  0
  -22.3460  -14.5486   20.6675 O   0  0  0  0  0  0
  -24.6458  -31.8406   23.1854 C   0  0  0  0  0  0
  -25.9212  -32.4683   23.8257 C   0  0  1  0  0  0
  -27.2150  -27.1058   20.1729 C   0  0  0  0  0  0
  -25.5955  -33.8493   24.2174 N   0  0  0  0  0  0
  -23.4505  -30.4579   21.5308 C   0  0  2  0  0  0
  -24.9019  -28.8731   20.1157 C   0  0  0  0  0  0
  -22.7579  -29.4525   22.4851 C   0  0  0  0  0  0
  -18.0310  -28.1399   22.8482 C   0  0  0  0  0  0
  -24.1490  -36.7253   23.2640 C   0  0  0  0  0  0
  -26.0072  -30.7072   21.3859 C   0  0  0  0  0  0
  -26.0794  -29.3125   20.7354 C   0  0  0  0  0  0
  -27.2403  -28.4463   20.7413 C   0  0  0  0  0  0
  -26.0130  -26.7687   19.5189 C   0  0  0  0  0  0
  -24.8823  -27.6175   19.4887 C   0  0  0  0  0  0
  -23.6797  -29.7801   20.1532 C   0  0  0  0  0  0
  -25.4123  -36.3024   24.0307 C   0  0  1  0  0  0
  -20.5924  -28.3714   23.1243 C   0  0  2  0  0  0
  -20.6791  -26.9416   22.5410 C   0  0  0  0  0  0
  -19.5762  -26.6382   21.5222 C   0  0  0  0  0  0
  -18.1944  -26.7933   22.1632 C   0  0  0  0  0  0
  -19.1563  -28.8876   23.2852 C   0  0  0  0  0  0
  -18.9479  -30.1479   23.8871 C   0  0  0  0  0  0
  -17.6469  -30.6593   24.0558 C   0  0  0  0  0  0
  -25.9074  -34.9402   23.5048 C   0  0  0  0  0  0
  -16.5363  -29.9080   23.6339 C   0  0  0  0  0  0
  -16.7292  -28.6501   23.0354 C   0  0  0  0  0  0
  -26.4525  -31.6569   25.0712 C   0  0  0  0  0  0
  -25.3700  -31.3767   26.1405 C   0  0  0  0  0  0
  -27.0386  -30.2959   24.6303 C   0  0  0  0  0  0
  -27.6038  -32.4344   25.7511 C   0  0  0  0  0  0
  -27.5572  -37.1786   24.8456 C   0  0  0  0  0  0
  -21.4265  -29.3040   22.3610 N   0  0  0  0  0  0
  -26.4279  -37.3740   23.9406 N   0  0  0  0  0  0
  -24.7210  -31.0237   22.0898 N   0  0  0  0  0  0
  -23.4208  -28.8071   23.3011 O   0  0  0  0  0  0
  -28.2691  -26.1155   20.1663 O   0  0  0  0  0  0
  -26.5648  -34.8901   22.4622 O   0  0  0  0  0  0
  -23.5576  -32.1289   23.7064 O   0  0  0  0  0  0
  -32.2945  -21.2002   19.2130 C   0  0  0  0  0  0
  -31.2809  -20.2834   19.4902 C   0  0  0  0  0  0
  -32.0531  -22.5555   19.3734 C   0  0  0  0  0  0
  -29.9998  -20.6187   20.0032 C   0  0  0  0  0  0
  -29.6849  -22.1326   20.0291 C   0  0  0  0  0  0
  -30.7711  -23.0101   19.7156 C   0  0  0  0  0  0
  -28.4914  -19.4155   21.6963 C   0  0  0  0  0  0
  -30.1313  -17.8529   22.3521 C   0  0  0  0  0  0
  -29.2345  -19.1844   20.3828 C   0  0  2  0  0  0
  -30.0889  -17.7290   20.8069 C   0  0  2  0  0  0
  -30.8201  -24.9962   18.4531 C   0  0  0  0  0  0
  -28.3153  -23.0447   20.1724 C   0  0  0  0  0  0
  -28.0947  -24.6622   20.7361 C   0  0  0  0  0  0
  -29.7430  -16.1939   20.5153 N   0  0  0  0  0  0
  -29.5045  -19.1335   22.7199 N   0  3  0  0  0  0
  -30.5880  -24.3684   19.7106 O   0  0  0  0  0  0
  -31.4734  -12.8017   19.1781 H   0  0  0  0  0  0
  -30.4563  -11.6849   20.0430 H   0  0  0  0  0  0
  -29.8579  -11.7329   17.5927 H   0  0  0  0  0  0
  -29.6051  -13.4565   17.6715 H   0  0  0  0  0  0
  -27.9527  -11.2774   18.9738 H   0  0  0  0  0  0
  -27.4027  -12.4457   17.8040 H   0  0  0  0  0  0
  -27.5763  -14.2499   19.3845 H   0  0  0  0  0  0
  -28.7659  -12.3364   21.4499 H   0  0  0  0  0  0
  -28.3566  -14.0129   21.7315 H   0  0  0  0  0  0
  -25.2781   -9.5652   22.4733 H   0  0  0  0  0  0
  -23.9983   -7.4626   22.7470 H   0  0  0  0  0  0
  -21.0835   -8.8778   19.8946 H   0  0  0  0  0  0
  -22.3722  -10.9657   19.6133 H   0  0  0  0  0  0
  -21.2032   -7.6131   23.9698 H   0  0  0  0  0  0
  -21.1484   -6.0503   25.9059 H   0  0  0  0  0  0
  -22.0605   -2.7595   23.2820 H   0  0  0  0  0  0
  -22.4051  -11.9903   22.4890 H   0  0  0  0  0  0
  -21.1024  -13.1211   22.2567 H   0  0  0  0  0  0
  -24.6247  -15.8374   20.4997 H   0  0  0  0  0  0
  -26.2243  -15.6288   20.0039 H   0  0  0  0  0  0
  -26.7274  -32.5284   23.0981 H   0  0  0  0  0  0
  -25.0108  -33.9599   25.0325 H   0  0  0  0  0  0
  -22.7546  -31.2849   21.3723 H   0  0  0  0  0  0
  -23.3756  -35.9581   23.3277 H   0  0  0  0  0  0
  -24.3584  -36.8921   22.2062 H   0  0  0  0  0  0
  -23.7244  -37.6440   23.6698 H   0  0  0  0  0  0
  -26.1600  -31.4569   20.6080 H   0  0  0  0  0  0
  -26.8784  -30.7651   22.0268 H   0  0  0  0  0  0
  -28.1411  -28.7809   21.2362 H   0  0  0  0  0  0
  -25.9374  -25.8059   19.0348 H   0  0  0  0  0  0
  -23.9865  -27.2802   18.9862 H   0  0  0  0  0  0
  -23.8160  -30.5494   19.3923 H   0  0  0  0  0  0
  -22.7955  -29.2196   19.8453 H   0  0  0  0  0  0
  -25.1318  -36.1835   25.0797 H   0  0  0  0  0  0
  -21.0022  -28.3302   24.1361 H   0  0  0  0  0  0
  -20.5695  -26.2323   23.3627 H   0  0  0  0  0  0
  -21.6652  -26.7427   22.1203 H   0  0  0  0  0  0
  -19.6913  -25.6287   21.1270 H   0  0  0  0  0  0
  -19.6705  -27.3178   20.6740 H   0  0  0  0  0  0
  -17.4219  -26.6695   21.4029 H   0  0  0  0  0  0
  -18.0329  -26.0082   22.9033 H   0  0  0  0  0  0
  -19.7950  -30.7310   24.2226 H   0  0  0  0  0  0
  -17.5017  -31.6262   24.5167 H   0  0  0  0  0  0
  -15.5360  -30.2963   23.7676 H   0  0  0  0  0  0
  -15.8700  -28.0811   22.7072 H   0  0  0  0  0  0
  -24.5880  -30.7114   25.7729 H   0  0  0  0  0  0
  -24.8887  -32.2959   26.4757 H   0  0  0  0  0  0
  -25.7980  -30.8993   27.0228 H   0  0  0  0  0  0
  -26.3002  -29.6691   24.1287 H   0  0  0  0  0  0
  -27.3968  -29.7253   25.4882 H   0  0  0  0  0  0
  -27.8925  -30.4196   23.9636 H   0  0  0  0  0  0
  -27.2613  -33.3672   26.2004 H   0  0  0  0  0  0
  -28.3896  -32.6870   25.0377 H   0  0  0  0  0  0
  -28.0645  -31.8527   26.5505 H   0  0  0  0  0  0
  -28.2562  -38.0105   24.7520 H   0  0  0  0  0  0
  -28.1095  -36.2636   24.6260 H   0  0  0  0  0  0
  -27.2292  -37.1405   25.8858 H   0  0  0  0  0  0
  -20.9475  -29.8755   21.6794 H   0  0  0  0  0  0
  -26.0137  -38.2803   24.1424 H   0  0  0  0  0  0
  -33.2588  -20.8610   18.8619 H   0  0  0  0  0  0
  -31.5491  -19.2686   19.2625 H   0  0  0  0  0  0
  -32.8493  -23.2563   19.1659 H   0  0  0  0  0  0
  -27.6695  -18.7042   21.8035 H   0  0  0  0  0  0
  -28.0692  -20.4137   21.7975 H   0  0  0  0  0  0
  -31.1490  -17.8025   22.7425 H   0  0  0  0  0  0
  -29.5635  -17.0546   22.8321 H   0  0  0  0  0  0
  -28.5284  -18.9821   19.5783 H   0  0  0  0  0  0
  -31.1207  -17.7874   20.4793 H   0  0  0  0  0  0
  -30.3607  -24.4297   17.6405 H   0  0  0  0  0  0
  -31.8841  -25.1114   18.2424 H   0  0  0  0  0  0
  -30.3740  -25.9914   18.4558 H   0  0  0  0  0  0
  -27.6537  -22.4348   20.7850 H   0  0  0  0  0  0
  -27.8596  -23.0158   19.1829 H   0  0  0  0  0  0
  -28.6296  -24.6982   21.6860 H   0  0  0  0  0  0
  -27.0508  -24.6610   21.0500 H   0  0  0  0  0  0
  -28.7517  -16.0050   20.5128 H   0  0  0  0  0  0
  -29.1009  -19.0943   23.6417 H   0  0  0  0  0  0
  -30.1964  -19.8656   22.7001 H   0  0  0  0  0  0
  1 25  1  0  0  0
  1 30  2  0  0  0
  1 84  1  0  0  0
  2  3  1  0  0  0
  2 25  1  0  0  0
  2 87  1  0  0  0
  2 88  1  0  0  0
  3  4  1  0  0  0
  3 89  1  0  0  0
  3 90  1  0  0  0
  4  5  1  0  0  0
  4 91  1  0  0  0
  4 92  1  0  0  0
  5  6  1  0  0  0
  5 26  1  0  0  0
  5 93  1  0  0  0
  6 25  1  0  0  0
  6 94  1  0  0  0
  6 95  1  0  0  0
  7  8  2  0  0  0
  7 26  1  0  0  0
  7 29  1  0  0  0
  8  9  1  0  0  0
  8 22  1  0  0  0
  9 10  1  0  0  0
  9 27  2  0  0  0
 10 11  2  0  0  0
 10 15  1  0  0  0
 11 12  1  0  0  0
 11 96  1  0  0  0
 12 13  2  0  0  0
 12 97  1  0  0  0
 13 14  1  0  0  0
 13 31  1  0  0  0
 14 15  2  0  0  0
 14 98  1  0  0  0
 15 99  1  0  0  0
 16 17  2  0  0  0
 16 21  1  0  0  0
 16 31  1  0  0  0
 17 18  1  0  0  0
 17100  1  0  0  0
 18 19  2  0  0  0
 18101  1  0  0  0
 19 20  1  0  0  0
 19 24  1  0  0  0
 20 21  2  0  0  0
 20102  1  0  0  0
 21 23  1  0  0  0
 22 28  1  0  0  0
 22 32  2  0  0  0
 26 27  1  0  0  0
 28103  1  0  0  0
 28104  1  0  0  0
 29105  1  0  0  0
 29106  1  0  0  0
 33 34  1  0  0  0
 33 66  1  0  0  0
 33 70  2  0  0  0
 34 36  1  0  0  0
 34 59  1  0  0  0
 34107  1  0  0  0
 35 44  2  0  0  0
 35 45  1  0  0  0
 35 68  1  0  0  0
 36 56  1  0  0  0
 36108  1  0  0  0
 37 39  1  0  0  0
 37 47  1  0  0  0
 37 66  1  0  0  0
 37109  1  0  0  0
 38 43  2  0  0  0
 38 46  1  0  0  0
 38 47  1  0  0  0
 39 64  1  0  0  0
 39 67  2  0  0  0
 40 52  1  0  0  0
 40 53  2  0  0  0
 40 58  1  0  0  0
 41110  1  0  0  0
 41111  1  0  0  0
 41112  1  0  0  0
 41 48  1  0  0  0
 42 43  1  0  0  0
 42 66  1  0  0  0
 42113  1  0  0  0
 42114  1  0  0  0
 43 44  1  0  0  0
 44115  1  0  0  0
 45 46  2  0  0  0
 45116  1  0  0  0
 46117  1  0  0  0
 47118  1  0  0  0
 47119  1  0  0  0
 48 56  1  0  0  0
 48 65  1  0  0  0
 48120  1  0  0  0
 49 50  1  0  0  0
 49 53  1  0  0  0
 49 64  1  0  0  0
 49121  1  0  0  0
 50 51  1  0  0  0
 50122  1  0  0  0
 50123  1  0  0  0
 51 52  1  0  0  0
 51124  1  0  0  0
 51125  1  0  0  0
 52126  1  0  0  0
 52127  1  0  0  0
 53 54  1  0  0  0
 54 55  2  0  0  0
 54128  1  0  0  0
 55 57  1  0  0  0
 55129  1  0  0  0
 56 69  2  0  0  0
 57 58  2  0  0  0
 57130  1  0  0  0
 58131  1  0  0  0
 59 60  1  0  0  0
 59 61  1  0  0  0
 59 62  1  0  0  0
 60132  1  0  0  0
 60133  1  0  0  0
 60134  1  0  0  0
 61135  1  0  0  0
 61136  1  0  0  0
 61137  1  0  0  0
 62138  1  0  0  0
 62139  1  0  0  0
 62140  1  0  0  0
 63 65  1  0  0  0
 63141  1  0  0  0
 63142  1  0  0  0
 63143  1  0  0  0
 64144  1  0  0  0
 65145  1  0  0  0
 68 83  1  0  0  0
 71 72  2  0  0  0
 71 73  1  0  0  0
 71146  1  0  0  0
 72 74  1  0  0  0
 72147  1  0  0  0
 73 76  2  0  0  0
 73148  1  0  0  0
 74 75  2  0  0  0
 74 79  1  0  0  0
 75 76  1  0  0  0
 75 82  1  0  0  0
 76 86  1  0  0  0
 77 79  1  0  0  0
 77 85  1  0  0  0
 77149  1  0  0  0
 77150  1  0  0  0
 78 80  1  0  0  0
 78 85  1  0  0  0
 78151  1  0  0  0
 78152  1  0  0  0
 79 80  1  0  0  0
 79153  1  0  0  0
 80 84  1  0  0  0
 80154  1  0  0  0
 81 86  1  0  0  0
 81155  1  0  0  0
 81156  1  0  0  0
 81157  1  0  0  0
 82 83  1  0  0  0
 82158  1  0  0  0
 82159  1  0  0  0
 83160  1  0  0  0
 83161  1  0  0  0
 84162  1  0  0  0
 85163  1  0  0  0
 85164  1  0  0  0
M  CHG  1  85   1
M  ISO  4   1 100  68 101  83 101  84 100
M  END
> <chiral flag>
0

> <version>
0

> <s_m_source_file>
/data/baiqing/PycharmProjects/Reinvent-master-3.2/result/LINK_invent/BTK/process_docking_weight1_custom_sum_contain_oxygen_bond_distance_aromatic_linkinvent_7_9_3/rearranged_h_0136.sdf

> <i_m_source_file_index>
87

> <r_mmod_Potential_Energy-OPLS-2005>
636.401062011719

> <r_mmod_Stretch_Energy-OPLS-2005>
352.142852783203

> <r_mmod_Bend_Energy-OPLS-2005>
413.181182861328

> <r_mmod_Torsional_Energy-OPLS-2005>
343.98388671875

> <r_mmod_Improper_Torsional_Energy-OPLS-2005>
5.2456955909729

> <r_mmod_Van_der_Waal_Energy-OPLS-2005>
140.813171386719

> <r_mmod_Electrostatic_Energy-OPLS-2005>
-345.313842773438

> <r_mmod_Solvation_Energy-OPLS-2005>
-497.249114990234

> <b_mmod_Minimization_Converged-OPLS-2005>
0

> <r_mmod_RMS_Derivative-OPLS-2005>
2.04675841331482

$$$$
90
                    3D
 Structure written by MMmdl.
151160  0  0  1  0            999 V2000
  -30.4342  -15.1688   20.3822 C   0  0  0  0  0  0
  -30.4503  -12.7359   19.5195 C   0  0  0  0  0  0
  -29.5374  -12.5647   18.2788 C   0  0  0  0  0  0
  -28.0782  -12.3074   18.6992 C   0  0  0  0  0  0
  -27.6215  -13.2622   19.8310 C   0  0  2  0  0  0
  -28.6588  -13.3698   20.9691 C   0  0  0  0  0  0
  -25.2427  -13.8228   20.5715 C   0  0  0  0  0  0
  -24.1767  -13.0436   20.9250 C   0  0  0  0  0  0
  -24.6404  -11.6927   20.8761 C   0  0  0  0  0  0
  -23.9090  -10.4293   21.0409 C   0  0  0  0  0  0
  -24.3634   -9.4205   21.9187 C   0  0  0  0  0  0
  -23.6301   -8.2244   22.0755 C   0  0  0  0  0  0
  -22.4283   -8.0284   21.3544 C   0  0  0  0  0  0
  -21.9924   -9.0261   20.4646 C   0  0  0  0  0  0
  -22.7261  -10.2136   20.3056 C   0  0  0  0  0  0
  -21.6855   -6.0738   22.5278 C   0  0  0  0  0  0
  -21.4018   -6.5641   23.8212 C   0  0  0  0  0  0
  -21.3660   -5.6793   24.9173 C   0  0  0  0  0  0
  -21.6042   -4.3055   24.7223 C   0  0  0  0  0  0
  -21.8818   -3.8148   23.4345 C   0  0  0  0  0  0
  -21.9194   -4.6966   22.3402 C   0  0  0  0  0  0
  -22.7783  -13.5198   21.1894 C   0  0  0  0  0  0
  -22.1661   -4.2150   21.0980 F   0  0  0  0  0  0
  -21.5627   -3.4540   25.7736 F   0  0  0  0  0  0
  -29.9069  -13.8560   20.3603 N   0  0  0  0  0  0
  -26.2853  -12.9479   20.3214 N   0  0  0  0  0  0
  -25.9338  -11.6598   20.5722 N   0  0  0  0  0  0
  -22.0432  -12.8188   22.0448 N   0  0  0  0  0  0
  -25.4055  -15.1961   20.4108 N   0  0  0  0  0  0
  -31.6448  -15.2392   20.1270 O   0  0  0  0  0  0
  -21.6643   -6.8885   21.4241 O   0  0  0  0  0  0
  -22.3467  -14.5498   20.6728 O   0  0  0  0  0  0
  -24.6566  -31.8294   23.1746 C   0  0  0  0  0  0
  -25.9273  -32.4621   23.8192 C   0  0  1  0  0  0
  -27.2222  -26.9911   20.1782 C   0  0  0  0  0  0
  -25.5965  -33.8431   24.2105 N   0  0  0  0  0  0
  -23.4686  -30.4418   21.5225 C   0  0  2  0  0  0
  -24.9219  -28.8374   20.1125 C   0  0  0  0  0  0
  -22.7635  -29.4467   22.4803 C   0  0  0  0  0  0
  -18.0318  -28.1402   22.8474 C   0  0  0  0  0  0
  -24.1492  -36.7219   23.2646 C   0  0  0  0  0  0
  -26.0334  -30.6571   21.3941 C   0  0  0  0  0  0
  -26.1036  -29.2525   20.7389 C   0  0  0  0  0  0
  -27.2513  -28.3499   20.7453 C   0  0  0  0  0  0
  -26.0124  -26.7091   19.5076 C   0  0  0  0  0  0
  -24.8980  -27.5849   19.4768 C   0  0  0  0  0  0
  -23.7047  -29.7578   20.1478 C   0  0  0  0  0  0
  -25.4132  -36.2988   24.0305 C   0  0  1  0  0  0
  -20.5939  -28.3741   23.1205 C   0  0  2  0  0  0
  -20.6795  -26.9428   22.5404 C   0  0  0  0  0  0
  -19.5768  -26.6377   21.5215 C   0  0  0  0  0  0
  -18.1952  -26.7938   22.1626 C   0  0  0  0  0  0
  -19.1578  -28.8891   23.2829 C   0  0  0  0  0  0
  -18.9488  -30.1483   23.8862 C   0  0  0  0  0  0
  -17.6482  -30.6595   24.0554 C   0  0  0  0  0  0
  -25.9092  -34.9369   23.5025 C   0  0  0  0  0  0
  -16.5373  -29.9082   23.6339 C   0  0  0  0  0  0
  -16.7300  -28.6500   23.0364 C   0  0  0  0  0  0
  -26.4547  -31.6544   25.0695 C   0  0  0  0  0  0
  -25.3690  -31.3772   26.1362 C   0  0  0  0  0  0
  -27.0434  -30.2921   24.6378 C   0  0  0  0  0  0
  -27.6049  -32.4340   25.7496 C   0  0  0  0  0  0
  -27.5573  -37.1768   24.8467 C   0  0  0  0  0  0
  -21.4311  -29.3041   22.3557 N   0  0  0  0  0  0
  -26.4284  -37.3716   23.9409 N   0  0  0  0  0  0
  -24.7404  -31.0014   22.0847 N   0  0  0  0  0  0
  -23.4212  -28.8036   23.3022 O   0  0  0  0  0  0
  -28.2505  -25.9337   20.2463 O   0  0  0  0  0  0
  -26.5696  -34.8894   22.4618 O   0  0  0  0  0  0
  -23.5650  -32.1232   23.6878 O   0  0  0  0  0  0
  -30.3345  -20.4055   20.0565 C   0  0  0  0  0  0
  -28.1186  -20.1882   20.6074 C   0  0  0  0  0  0
  -30.5294  -18.9336   20.1096 C   0  0  0  0  0  0
  -28.3040  -18.7170   20.6605 C   0  0  0  0  0  0
  -29.1230  -21.1911   20.3006 C   0  0  0  0  0  0
  -29.5192  -17.9420   20.4248 C   0  0  0  0  0  0
  -29.0736  -22.9350   20.2774 C   0  0  2  0  0  0
  -28.6442  -23.6764   19.0177 C   0  0  2  0  0  0
  -28.0109  -24.3240   20.2288 C   0  0  2  0  0  0
  -27.7813  -22.9893   17.9799 C   0  0  0  0  0  0
  -29.5712  -16.3438   20.5173 N   0  0  0  0  0  0
  -31.4722  -12.9398   19.1965 H   0  0  0  0  0  0
  -30.5023  -11.8098   20.0944 H   0  0  0  0  0  0
  -29.8977  -11.7490   17.6506 H   0  0  0  0  0  0
  -29.5857  -13.4667   17.6668 H   0  0  0  0  0  0
  -28.0121  -11.2745   19.0429 H   0  0  0  0  0  0
  -27.4129  -12.3863   17.8387 H   0  0  0  0  0  0
  -27.5576  -14.2456   19.3642 H   0  0  0  0  0  0
  -28.8006  -12.4106   21.4694 H   0  0  0  0  0  0
  -28.3166  -14.0691   21.7334 H   0  0  0  0  0  0
  -25.2778   -9.5678   22.4765 H   0  0  0  0  0  0
  -24.0006   -7.4634   22.7477 H   0  0  0  0  0  0
  -21.0855   -8.8785   19.8952 H   0  0  0  0  0  0
  -22.3721  -10.9677   19.6165 H   0  0  0  0  0  0
  -21.2013   -7.6149   23.9717 H   0  0  0  0  0  0
  -21.1481   -6.0522   25.9076 H   0  0  0  0  0  0
  -22.0596   -2.7610   23.2845 H   0  0  0  0  0  0
  -22.4062  -11.9866   22.4854 H   0  0  0  0  0  0
  -21.1039  -13.1194   22.2633 H   0  0  0  0  0  0
  -24.6243  -15.8362   20.5049 H   0  0  0  0  0  0
  -26.2232  -15.6306   20.0049 H   0  0  0  0  0  0
  -26.7340  -32.5181   23.0910 H   0  0  0  0  0  0
  -25.0075  -33.9520   25.0231 H   0  0  0  0  0  0
  -22.7786  -31.2716   21.3546 H   0  0  0  0  0  0
  -23.3769  -35.9535   23.3282 H   0  0  0  0  0  0
  -24.3572  -36.8887   22.2066 H   0  0  0  0  0  0
  -23.7232  -37.6396   23.6712 H   0  0  0  0  0  0
  -26.2055  -31.4020   20.6158 H   0  0  0  0  0  0
  -26.8967  -30.7134   22.0456 H   0  0  0  0  0  0
  -28.1499  -28.6666   21.2559 H   0  0  0  0  0  0
  -25.9037  -25.7506   19.0204 H   0  0  0  0  0  0
  -23.9990  -27.2629   18.9692 H   0  0  0  0  0  0
  -23.8546  -30.5261   19.3885 H   0  0  0  0  0  0
  -22.8160  -29.2076   19.8334 H   0  0  0  0  0  0
  -25.1327  -36.1797   25.0796 H   0  0  0  0  0  0
  -21.0032  -28.3343   24.1326 H   0  0  0  0  0  0
  -20.5679  -26.2355   23.3638 H   0  0  0  0  0  0
  -21.6658  -26.7411   22.1206 H   0  0  0  0  0  0
  -19.6925  -25.6276   21.1270 H   0  0  0  0  0  0
  -19.6706  -27.3165   20.6728 H   0  0  0  0  0  0
  -17.4218  -26.6683   21.4031 H   0  0  0  0  0  0
  -18.0347  -26.0087   22.9030 H   0  0  0  0  0  0
  -19.7961  -30.7309   24.2218 H   0  0  0  0  0  0
  -17.5031  -31.6272   24.5159 H   0  0  0  0  0  0
  -15.5370  -30.2972   23.7679 H   0  0  0  0  0  0
  -15.8702  -28.0802   22.7105 H   0  0  0  0  0  0
  -24.5884  -30.7110   25.7671 H   0  0  0  0  0  0
  -24.8864  -32.2964   26.4690 H   0  0  0  0  0  0
  -25.7935  -30.9003   27.0204 H   0  0  0  0  0  0
  -26.3083  -29.6612   24.1367 H   0  0  0  0  0  0
  -27.3977  -29.7266   25.5006 H   0  0  0  0  0  0
  -27.9019  -30.4125   23.9769 H   0  0  0  0  0  0
  -27.2623  -33.3676   26.1973 H   0  0  0  0  0  0
  -28.3913  -32.6845   25.0363 H   0  0  0  0  0  0
  -28.0657  -31.8532   26.5496 H   0  0  0  0  0  0
  -28.2574  -38.0080   24.7516 H   0  0  0  0  0  0
  -28.1085  -36.2605   24.6293 H   0  0  0  0  0  0
  -27.2287  -37.1409   25.8869 H   0  0  0  0  0  0
  -20.9551  -29.8732   21.6696 H   0  0  0  0  0  0
  -26.0139  -38.2778   24.1414 H   0  0  0  0  0  0
  -31.2187  -20.9787   19.8137 H   0  0  0  0  0  0
  -27.1272  -20.5559   20.8334 H   0  0  0  0  0  0
  -31.5231  -18.5655   19.8947 H   0  0  0  0  0  0
  -27.4198  -18.1492   20.9136 H   0  0  0  0  0  0
  -30.0421  -23.2118   20.6896 H   0  0  0  0  0  0
  -29.4457  -24.2476   18.5528 H   0  0  0  0  0  0
  -26.9696  -24.1062   20.4590 H   0  0  0  0  0  0
  -26.9995  -22.3988   18.4591 H   0  0  0  0  0  0
  -28.3900  -22.3249   17.3662 H   0  0  0  0  0  0
  -27.3106  -23.7294   17.3326 H   0  0  0  0  0  0
  -28.6503  -15.9873   20.7224 H   0  0  0  0  0  0
  1 25  1  0  0  0
  1 30  2  0  0  0
  1 81  1  0  0  0
  2  3  1  0  0  0
  2 25  1  0  0  0
  2 82  1  0  0  0
  2 83  1  0  0  0
  3  4  1  0  0  0
  3 84  1  0  0  0
  3 85  1  0  0  0
  4  5  1  0  0  0
  4 86  1  0  0  0
  4 87  1  0  0  0
  5  6  1  0  0  0
  5 26  1  0  0  0
  5 88  1  0  0  0
  6 25  1  0  0  0
  6 89  1  0  0  0
  6 90  1  0  0  0
  7  8  2  0  0  0
  7 26  1  0  0  0
  7 29  1  0  0  0
  8  9  1  0  0  0
  8 22  1  0  0  0
  9 10  1  0  0  0
  9 27  2  0  0  0
 10 11  2  0  0  0
 10 15  1  0  0  0
 11 12  1  0  0  0
 11 91  1  0  0  0
 12 13  2  0  0  0
 12 92  1  0  0  0
 13 14  1  0  0  0
 13 31  1  0  0  0
 14 15  2  0  0  0
 14 93  1  0  0  0
 15 94  1  0  0  0
 16 17  2  0  0  0
 16 21  1  0  0  0
 16 31  1  0  0  0
 17 18  1  0  0  0
 17 95  1  0  0  0
 18 19  2  0  0  0
 18 96  1  0  0  0
 19 20  1  0  0  0
 19 24  1  0  0  0
 20 21  2  0  0  0
 20 97  1  0  0  0
 21 23  1  0  0  0
 22 28  1  0  0  0
 22 32  2  0  0  0
 26 27  1  0  0  0
 28 98  1  0  0  0
 28 99  1  0  0  0
 29100  1  0  0  0
 29101  1  0  0  0
 33 34  1  0  0  0
 33 66  1  0  0  0
 33 70  2  0  0  0
 34 36  1  0  0  0
 34 59  1  0  0  0
 34102  1  0  0  0
 35 44  2  0  0  0
 35 45  1  0  0  0
 35 68  1  0  0  0
 36 56  1  0  0  0
 36103  1  0  0  0
 37 39  1  0  0  0
 37 47  1  0  0  0
 37 66  1  0  0  0
 37104  1  0  0  0
 38 43  2  0  0  0
 38 46  1  0  0  0
 38 47  1  0  0  0
 39 64  1  0  0  0
 39 67  2  0  0  0
 40 52  1  0  0  0
 40 53  2  0  0  0
 40 58  1  0  0  0
 41105  1  0  0  0
 41106  1  0  0  0
 41107  1  0  0  0
 41 48  1  0  0  0
 42 43  1  0  0  0
 42 66  1  0  0  0
 42108  1  0  0  0
 42109  1  0  0  0
 43 44  1  0  0  0
 44110  1  0  0  0
 45 46  2  0  0  0
 45111  1  0  0  0
 46112  1  0  0  0
 47113  1  0  0  0
 47114  1  0  0  0
 48 56  1  0  0  0
 48 65  1  0  0  0
 48115  1  0  0  0
 49 50  1  0  0  0
 49 53  1  0  0  0
 49 64  1  0  0  0
 49116  1  0  0  0
 50 51  1  0  0  0
 50117  1  0  0  0
 50118  1  0  0  0
 51 52  1  0  0  0
 51119  1  0  0  0
 51120  1  0  0  0
 52121  1  0  0  0
 52122  1  0  0  0
 53 54  1  0  0  0
 54 55  2  0  0  0
 54123  1  0  0  0
 55 57  1  0  0  0
 55124  1  0  0  0
 56 69  2  0  0  0
 57 58  2  0  0  0
 57125  1  0  0  0
 58126  1  0  0  0
 59 60  1  0  0  0
 59 61  1  0  0  0
 59 62  1  0  0  0
 60127  1  0  0  0
 60128  1  0  0  0
 60129  1  0  0  0
 61130  1  0  0  0
 61131  1  0  0  0
 61132  1  0  0  0
 62133  1  0  0  0
 62134  1  0  0  0
 62135  1  0  0  0
 63 65  1  0  0  0
 63136  1  0  0  0
 63137  1  0  0  0
 63138  1  0  0  0
 64139  1  0  0  0
 65140  1  0  0  0
 68 79  1  0  0  0
 71 73  2  0  0  0
 71 75  1  0  0  0
 71141  1  0  0  0
 72 74  1  0  0  0
 72 75  2  0  0  0
 72142  1  0  0  0
 73 76  1  0  0  0
 73143  1  0  0  0
 74 76  2  0  0  0
 74144  1  0  0  0
 75 77  1  0  0  0
 76 81  1  0  0  0
 77 78  1  0  0  0
 77 79  1  0  0  0
 77145  1  0  0  0
 78 79  1  0  0  0
 78 80  1  0  0  0
 78146  1  0  0  0
 79147  1  0  0  0
 80148  1  0  0  0
 80149  1  0  0  0
 80150  1  0  0  0
 81151  1  0  0  0
M  ISO  4   1 100  68 101  79 101  81 100
M  END
> <chiral flag>
0

> <version>
0

> <s_m_source_file>
/data/baiqing/PycharmProjects/Reinvent-master-3.2/result/LINK_invent/BTK/process_docking_weight1_custom_sum_contain_oxygen_bond_distance_aromatic_linkinvent_7_9_3/rearranged_h_0136.sdf

> <i_m_source_file_index>
88

> <r_mmod_Potential_Energy-OPLS-2005>
1009.29504394531

> <r_mmod_Stretch_Energy-OPLS-2005>
443.341400146484

> <r_mmod_Bend_Energy-OPLS-2005>
389.439392089844

> <r_mmod_Torsional_Energy-OPLS-2005>
244.319351196289

> <r_mmod_Improper_Torsional_Energy-OPLS-2005>
3.99959111213684

> <r_mmod_Van_der_Waal_Energy-OPLS-2005>
122.24853515625

> <r_mmod_Electrostatic_Energy-OPLS-2005>
-350.79931640625

> <r_mmod_Solvation_Energy-OPLS-2005>
-208.308395385742

> <b_mmod_Minimization_Converged-OPLS-2005>
0

> <r_mmod_RMS_Derivative-OPLS-2005>
0.388175547122955

$$$$
91
                    3D
 Structure written by MMmdl.
161170  0  0  1  0            999 V2000
  -30.6920  -14.5034   20.4958 C   0  0  0  0  0  0
  -30.4224  -12.3020   19.4433 C   0  0  0  0  0  0
  -29.5064  -12.5015   18.2162 C   0  0  0  0  0  0
  -28.0232  -12.3649   18.6176 C   0  0  0  0  0  0
  -27.6617  -13.2144   19.8685 C   0  0  2  0  0  0
  -28.7043  -13.0291   20.9998 C   0  0  0  0  0  0
  -25.2542  -13.8204   20.5603 C   0  0  0  0  0  0
  -24.1806  -13.0478   20.9120 C   0  0  0  0  0  0
  -24.6384  -11.6968   20.8695 C   0  0  0  0  0  0
  -23.9073  -10.4346   21.0376 C   0  0  0  0  0  0
  -24.3640   -9.4265   21.9161 C   0  0  0  0  0  0
  -23.6318   -8.2290   22.0755 C   0  0  0  0  0  0
  -22.4285   -8.0318   21.3557 C   0  0  0  0  0  0
  -21.9917   -9.0295   20.4657 C   0  0  0  0  0  0
  -22.7241  -10.2172   20.3057 C   0  0  0  0  0  0
  -21.6863   -6.0754   22.5284 C   0  0  0  0  0  0
  -21.4024   -6.5649   23.8214 C   0  0  0  0  0  0
  -21.3650   -5.6791   24.9163 C   0  0  0  0  0  0
  -21.6036   -4.3054   24.7200 C   0  0  0  0  0  0
  -21.8823   -3.8155   23.4315 C   0  0  0  0  0  0
  -21.9190   -4.6982   22.3386 C   0  0  0  0  0  0
  -22.7818  -13.5278   21.1765 C   0  0  0  0  0  0
  -22.1659   -4.2179   21.0954 F   0  0  0  0  0  0
  -21.5618   -3.4534   25.7702 F   0  0  0  0  0  0
  -30.0391  -13.3090   20.4467 N   0  0  0  0  0  0
  -26.3007  -12.9396   20.3300 N   0  0  0  0  0  0
  -25.9325  -11.6550   20.5739 N   0  0  0  0  0  0
  -22.0415  -12.8369   22.0367 N   0  0  0  0  0  0
  -25.4210  -15.1933   20.4034 N   0  0  0  0  0  0
  -31.8369  -14.6468   20.0625 O   0  0  0  0  0  0
  -21.6658   -6.8909   21.4251 O   0  0  0  0  0  0
  -22.3525  -14.5571   20.6564 O   0  0  0  0  0  0
  -24.6170  -31.8641   23.2039 C   0  0  0  0  0  0
  -25.9049  -32.4788   23.8388 C   0  0  1  0  0  0
  -27.2333  -27.3925   20.0995 C   0  0  0  0  0  0
  -25.5929  -33.8592   24.2345 N   0  0  0  0  0  0
  -23.4116  -30.4852   21.5388 C   0  0  2  0  0  0
  -24.8601  -28.9404   20.1145 C   0  0  0  0  0  0
  -22.7449  -29.4639   22.4907 C   0  0  0  0  0  0
  -18.0284  -28.1391   22.8484 C   0  0  0  0  0  0
  -24.1483  -36.7256   23.2636 C   0  0  0  0  0  0
  -25.9438  -30.8158   21.3683 C   0  0  0  0  0  0
  -26.0190  -29.4449   20.7166 C   0  0  0  0  0  0
  -27.2072  -28.6758   20.7075 C   0  0  0  0  0  0
  -26.0543  -26.9125   19.4918 C   0  0  0  0  0  0
  -24.8717  -27.6757   19.5021 C   0  0  0  0  0  0
  -23.6284  -29.8136   20.1557 C   0  0  0  0  0  0
  -25.4103  -36.3083   24.0348 C   0  0  1  0  0  0
  -20.5883  -28.3689   23.1274 C   0  0  2  0  0  0
  -20.6756  -26.9422   22.5385 C   0  0  0  0  0  0
  -19.5747  -26.6406   21.5163 C   0  0  0  0  0  0
  -18.1930  -26.7941   22.1605 C   0  0  0  0  0  0
  -19.1534  -28.8854   23.2882 C   0  0  0  0  0  0
  -18.9465  -30.1437   23.8921 C   0  0  0  0  0  0
  -17.6467  -30.6585   24.0554 C   0  0  0  0  0  0
  -25.9030  -34.9445   23.5138 C   0  0  0  0  0  0
  -16.5357  -29.9091   23.6315 C   0  0  0  0  0  0
  -16.7271  -28.6502   23.0360 C   0  0  0  0  0  0
  -26.4501  -31.6593   25.0735 C   0  0  0  0  0  0
  -25.3794  -31.3683   26.1500 C   0  0  0  0  0  0
  -27.0335  -30.3040   24.6132 C   0  0  0  0  0  0
  -27.6075  -32.4312   25.7483 C   0  0  0  0  0  0
  -27.5581  -37.1773   24.8466 C   0  0  0  0  0  0
  -21.4172  -29.3049   22.3666 N   0  0  0  0  0  0
  -26.4280  -37.3784   23.9430 N   0  0  0  0  0  0
  -24.6744  -31.0732   22.0940 N   0  0  0  0  0  0
  -23.4199  -28.8179   23.2967 O   0  0  0  0  0  0
  -28.4136  -26.6690   20.0691 O   0  0  0  0  0  0
  -26.5559  -34.8901   22.4678 O   0  0  0  0  0  0
  -23.5347  -32.1413   23.7408 O   0  0  0  0  0  0
  -32.6637  -18.9257   21.7495 C   0  0  0  0  0  0
  -28.0319  -22.9787   20.7022 C   0  0  0  0  0  0
  -29.4713  -23.3473   18.7934 C   0  0  0  0  0  0
  -27.8316  -24.3796   20.8148 C   0  0  0  0  0  0
  -29.2494  -24.7405   18.8868 C   0  0  0  0  0  0
  -32.1316  -17.7282   21.2125 C   0  0  0  0  0  0
  -31.6818  -19.8628   21.6690 C   0  0  0  0  0  0
  -28.8998  -22.4441   19.7156 C   0  0  0  0  0  0
  -28.4550  -25.2877   19.9185 C   0  0  0  0  0  0
  -30.8381  -17.9409   20.8105 C   0  0  0  0  0  0
  -28.5600  -17.2889   19.7144 C   0  0  0  0  0  0
  -29.2529  -20.9399   19.6097 C   0  0  0  0  0  0
  -29.3295  -20.1235   20.9363 C   0  0  0  0  0  0
  -29.9874  -16.8882   20.1019 C   0  0  2  0  0  0
  -30.5432  -19.2988   21.1031 N   0  0  0  0  0  0
  -29.9224  -15.5734   20.7829 N   0  0  0  0  0  0
  -31.4725  -12.3751   19.1529 H   0  0  0  0  0  0
  -30.3025  -11.2978   19.8524 H   0  0  0  0  0  0
  -29.7610  -11.7797   17.4373 H   0  0  0  0  0  0
  -29.6739  -13.4879   17.7802 H   0  0  0  0  0  0
  -27.8287  -11.3107   18.8155 H   0  0  0  0  0  0
  -27.3831  -12.6350   17.7789 H   0  0  0  0  0  0
  -27.6992  -14.2552   19.5510 H   0  0  0  0  0  0
  -28.6731  -12.0089   21.3875 H   0  0  0  0  0  0
  -28.4801  -13.6746   21.8494 H   0  0  0  0  0  0
  -25.2783   -9.5732   22.4728 H   0  0  0  0  0  0
  -24.0014   -7.4696   22.7494 H   0  0  0  0  0  0
  -21.0825   -8.8831   19.8991 H   0  0  0  0  0  0
  -22.3695  -10.9714   19.6174 H   0  0  0  0  0  0
  -21.2056   -7.6168   23.9735 H   0  0  0  0  0  0
  -21.1447   -6.0501   25.9061 H   0  0  0  0  0  0
  -22.0610   -2.7627   23.2789 H   0  0  0  0  0  0
  -22.4011  -12.0107   22.4917 H   0  0  0  0  0  0
  -21.1032  -13.1439   22.2472 H   0  0  0  0  0  0
  -24.6447  -15.8350   20.5096 H   0  0  0  0  0  0
  -26.2762  -15.6503   20.1156 H   0  0  0  0  0  0
  -26.7126  -32.5507   23.1150 H   0  0  0  0  0  0
  -25.0206  -33.9794   25.0587 H   0  0  0  0  0  0
  -22.6987  -31.2975   21.3839 H   0  0  0  0  0  0
  -23.3756  -35.9579   23.3323 H   0  0  0  0  0  0
  -24.3569  -36.8835   22.2043 H   0  0  0  0  0  0
  -23.7230  -37.6471   23.6612 H   0  0  0  0  0  0
  -26.0735  -31.5848   20.6053 H   0  0  0  0  0  0
  -26.8212  -30.8610   22.0010 H   0  0  0  0  0  0
  -28.1093  -29.0602   21.1636 H   0  0  0  0  0  0
  -26.0438  -25.9481   19.0025 H   0  0  0  0  0  0
  -23.9797  -27.2883   19.0280 H   0  0  0  0  0  0
  -23.7513  -30.5776   19.3862 H   0  0  0  0  0  0
  -22.7572  -29.2301   19.8549 H   0  0  0  0  0  0
  -25.1273  -36.1929   25.0841 H   0  0  0  0  0  0
  -20.9973  -28.3246   24.1385 H   0  0  0  0  0  0
  -20.5584  -26.2310   23.3586 H   0  0  0  0  0  0
  -21.6632  -26.7410   22.1213 H   0  0  0  0  0  0
  -19.6886  -25.6306   21.1204 H   0  0  0  0  0  0
  -19.6668  -27.3202   20.6674 H   0  0  0  0  0  0
  -17.4181  -26.6676   21.4017 H   0  0  0  0  0  0
  -18.0345  -26.0078   22.8995 H   0  0  0  0  0  0
  -19.7937  -30.7225   24.2338 H   0  0  0  0  0  0
  -17.5025  -31.6258   24.5160 H   0  0  0  0  0  0
  -15.5368  -30.2998   23.7604 H   0  0  0  0  0  0
  -15.8673  -28.0786   22.7113 H   0  0  0  0  0  0
  -24.5973  -30.7015   25.7846 H   0  0  0  0  0  0
  -24.8984  -32.2833   26.4977 H   0  0  0  0  0  0
  -25.8203  -30.8857   27.0238 H   0  0  0  0  0  0
  -26.2888  -29.6784   24.1198 H   0  0  0  0  0  0
  -27.4119  -29.7284   25.4582 H   0  0  0  0  0  0
  -27.8715  -30.4345   23.9276 H   0  0  0  0  0  0
  -27.2715  -33.3590   26.2121 H   0  0  0  0  0  0
  -28.3867  -32.6932   25.0305 H   0  0  0  0  0  0
  -28.0788  -31.8426   26.5371 H   0  0  0  0  0  0
  -28.2568  -38.0104   24.7558 H   0  0  0  0  0  0
  -28.1123  -36.2636   24.6227 H   0  0  0  0  0  0
  -27.2309  -37.1323   25.8875 H   0  0  0  0  0  0
  -20.9321  -29.8846   21.6943 H   0  0  0  0  0  0
  -26.0156  -38.2843   24.1499 H   0  0  0  0  0  0
  -33.6633  -19.0814   22.1381 H   0  0  0  0  0  0
  -27.5454  -22.3218   21.4108 H   0  0  0  0  0  0
  -30.1054  -22.9716   18.0052 H   0  0  0  0  0  0
  -27.2153  -24.7619   21.6175 H   0  0  0  0  0  0
  -29.7207  -25.4006   18.1718 H   0  0  0  0  0  0
  -32.6713  -16.7997   21.1067 H   0  0  0  0  0  0
  -31.6908  -20.9034   21.9692 H   0  0  0  0  0  0
  -28.5468  -18.2022   19.1229 H   0  0  0  0  0  0
  -27.9246  -17.4228   20.5894 H   0  0  0  0  0  0
  -28.1063  -16.5187   19.0912 H   0  0  0  0  0  0
  -30.2030  -20.8425   19.0773 H   0  0  0  0  0  0
  -28.5249  -20.4705   18.9480 H   0  0  0  0  0  0
  -28.4351  -19.5260   21.0893 H   0  0  0  0  0  0
  -29.3253  -20.8226   21.7737 H   0  0  0  0  0  0
  -30.4854  -16.7124   19.1444 H   0  0  0  0  0  0
  -29.0364  -15.3631   21.2153 H   0  0  0  0  0  0
  1 25  1  0  0  0
  1 30  2  0  0  0
  1 86  1  0  0  0
  2  3  1  0  0  0
  2 25  1  0  0  0
  2 87  1  0  0  0
  2 88  1  0  0  0
  3  4  1  0  0  0
  3 89  1  0  0  0
  3 90  1  0  0  0
  4  5  1  0  0  0
  4 91  1  0  0  0
  4 92  1  0  0  0
  5  6  1  0  0  0
  5 26  1  0  0  0
  5 93  1  0  0  0
  6 25  1  0  0  0
  6 94  1  0  0  0
  6 95  1  0  0  0
  7  8  2  0  0  0
  7 26  1  0  0  0
  7 29  1  0  0  0
  8  9  1  0  0  0
  8 22  1  0  0  0
  9 10  1  0  0  0
  9 27  2  0  0  0
 10 11  2  0  0  0
 10 15  1  0  0  0
 11 12  1  0  0  0
 11 96  1  0  0  0
 12 13  2  0  0  0
 12 97  1  0  0  0
 13 14  1  0  0  0
 13 31  1  0  0  0
 14 15  2  0  0  0
 14 98  1  0  0  0
 15 99  1  0  0  0
 16 17  2  0  0  0
 16 21  1  0  0  0
 16 31  1  0  0  0
 17 18  1  0  0  0
 17100  1  0  0  0
 18 19  2  0  0  0
 18101  1  0  0  0
 19 20  1  0  0  0
 19 24  1  0  0  0
 20 21  2  0  0  0
 20102  1  0  0  0
 21 23  1  0  0  0
 22 28  1  0  0  0
 22 32  2  0  0  0
 26 27  1  0  0  0
 28103  1  0  0  0
 28104  1  0  0  0
 29105  1  0  0  0
 29106  1  0  0  0
 33 34  1  0  0  0
 33 66  1  0  0  0
 33 70  2  0  0  0
 34 36  1  0  0  0
 34 59  1  0  0  0
 34107  1  0  0  0
 35 44  2  0  0  0
 35 45  1  0  0  0
 35 68  1  0  0  0
 36 56  1  0  0  0
 36108  1  0  0  0
 37 39  1  0  0  0
 37 47  1  0  0  0
 37 66  1  0  0  0
 37109  1  0  0  0
 38 43  2  0  0  0
 38 46  1  0  0  0
 38 47  1  0  0  0
 39 64  1  0  0  0
 39 67  2  0  0  0
 40 52  1  0  0  0
 40 53  2  0  0  0
 40 58  1  0  0  0
 41110  1  0  0  0
 41111  1  0  0  0
 41112  1  0  0  0
 41 48  1  0  0  0
 42 43  1  0  0  0
 42 66  1  0  0  0
 42113  1  0  0  0
 42114  1  0  0  0
 43 44  1  0  0  0
 44115  1  0  0  0
 45 46  2  0  0  0
 45116  1  0  0  0
 46117  1  0  0  0
 47118  1  0  0  0
 47119  1  0  0  0
 48 56  1  0  0  0
 48 65  1  0  0  0
 48120  1  0  0  0
 49 50  1  0  0  0
 49 53  1  0  0  0
 49 64  1  0  0  0
 49121  1  0  0  0
 50 51  1  0  0  0
 50122  1  0  0  0
 50123  1  0  0  0
 51 52  1  0  0  0
 51124  1  0  0  0
 51125  1  0  0  0
 52126  1  0  0  0
 52127  1  0  0  0
 53 54  1  0  0  0
 54 55  2  0  0  0
 54128  1  0  0  0
 55 57  1  0  0  0
 55129  1  0  0  0
 56 69  2  0  0  0
 57 58  2  0  0  0
 57130  1  0  0  0
 58131  1  0  0  0
 59 60  1  0  0  0
 59 61  1  0  0  0
 59 62  1  0  0  0
 60132  1  0  0  0
 60133  1  0  0  0
 60134  1  0  0  0
 61135  1  0  0  0
 61136  1  0  0  0
 61137  1  0  0  0
 62138  1  0  0  0
 62139  1  0  0  0
 62140  1  0  0  0
 63 65  1  0  0  0
 63141  1  0  0  0
 63142  1  0  0  0
 63143  1  0  0  0
 64144  1  0  0  0
 65145  1  0  0  0
 68 79  1  0  0  0
 71 76  1  0  0  0
 71 77  2  0  0  0
 71146  1  0  0  0
 72 74  2  0  0  0
 72 78  1  0  0  0
 72147  1  0  0  0
 73 75  1  0  0  0
 73 78  2  0  0  0
 73148  1  0  0  0
 74 79  1  0  0  0
 74149  1  0  0  0
 75 79  2  0  0  0
 75150  1  0  0  0
 76 80  2  0  0  0
 76151  1  0  0  0
 77 85  1  0  0  0
 77152  1  0  0  0
 78 82  1  0  0  0
 80 84  1  0  0  0
 80 85  1  0  0  0
 81153  1  0  0  0
 81154  1  0  0  0
 81155  1  0  0  0
 81 84  1  0  0  0
 82 83  1  0  0  0
 82156  1  0  0  0
 82157  1  0  0  0
 83 85  1  0  0  0
 83158  1  0  0  0
 83159  1  0  0  0
 84 86  1  0  0  0
 84160  1  0  0  0
 86161  1  0  0  0
M  ISO  4   1 100  68 101  79 101  86 100
M  END
> <chiral flag>
0

> <version>
0

> <s_m_source_file>
/data/baiqing/PycharmProjects/Reinvent-master-3.2/result/LINK_invent/BTK/process_docking_weight1_custom_sum_contain_oxygen_bond_distance_aromatic_linkinvent_7_9_3/rearranged_h_0136.sdf

> <i_m_source_file_index>
89

> <r_mmod_Potential_Energy-OPLS-2005>
-20.5912895202637

> <r_mmod_Stretch_Energy-OPLS-2005>
48.0197639465332

> <r_mmod_Bend_Energy-OPLS-2005>
126.065719604492

> <r_mmod_Torsional_Energy-OPLS-2005>
244.127304077148

> <r_mmod_Improper_Torsional_Energy-OPLS-2005>
8.78781604766846

> <r_mmod_Van_der_Waal_Energy-OPLS-2005>
140.440612792969

> <r_mmod_Electrostatic_Energy-OPLS-2005>
-392.512725830078

> <r_mmod_Solvation_Energy-OPLS-2005>
-214.379547119141

> <b_mmod_Minimization_Converged-OPLS-2005>
0

> <r_mmod_RMS_Derivative-OPLS-2005>
4.21625757217407

$$$$
92
                    3D
 Structure written by MMmdl.
176186  0  0  1  0            999 V2000
  -30.6827  -14.4820   20.4344 C   0  0  0  0  0  0
  -30.4112  -12.2670   19.4259 C   0  0  0  0  0  0
  -29.4937  -12.4750   18.2028 C   0  0  0  0  0  0
  -28.0094  -12.3559   18.6117 C   0  0  0  0  0  0
  -27.6555  -13.2038   19.8656 C   0  0  2  0  0  0
  -28.7074  -13.0235   20.9858 C   0  0  0  0  0  0
  -25.2590  -13.8133   20.5698 C   0  0  0  0  0  0
  -24.1838  -13.0417   20.9204 C   0  0  0  0  0  0
  -24.6388  -11.6887   20.8767 C   0  0  0  0  0  0
  -23.9055  -10.4276   21.0441 C   0  0  0  0  0  0
  -24.3617   -9.4178   21.9207 C   0  0  0  0  0  0
  -23.6289   -8.2217   22.0767 C   0  0  0  0  0  0
  -22.4276   -8.0267   21.3561 C   0  0  0  0  0  0
  -21.9909   -9.0237   20.4655 C   0  0  0  0  0  0
  -22.7236  -10.2115   20.3068 C   0  0  0  0  0  0
  -21.6845   -6.0740   22.5291 C   0  0  0  0  0  0
  -21.3998   -6.5646   23.8225 C   0  0  0  0  0  0
  -21.3668   -5.6804   24.9194 C   0  0  0  0  0  0
  -21.6046   -4.3067   24.7239 C   0  0  0  0  0  0
  -21.8806   -3.8148   23.4358 C   0  0  0  0  0  0
  -21.9178   -4.6963   22.3411 C   0  0  0  0  0  0
  -22.7864  -13.5234   21.1875 C   0  0  0  0  0  0
  -22.1653   -4.2143   21.0991 F   0  0  0  0  0  0
  -21.5636   -3.4548   25.7754 F   0  0  0  0  0  0
  -30.0297  -13.2900   20.4072 N   0  0  0  0  0  0
  -26.3018  -12.9290   20.3381 N   0  0  0  0  0  0
  -25.9326  -11.6466   20.5815 N   0  0  0  0  0  0
  -22.0513  -12.8236   22.0429 N   0  0  0  0  0  0
  -25.4352  -15.1822   20.4055 N   0  0  0  0  0  0
  -31.8856  -14.5812   20.1773 O   0  0  0  0  0  0
  -21.6624   -6.8876   21.4258 O   0  0  0  0  0  0
  -22.3574  -14.5571   20.6755 O   0  0  0  0  0  0
  -24.6121  -31.8669   23.2116 C   0  0  0  0  0  0
  -25.9022  -32.4831   23.8388 C   0  0  1  0  0  0
  -27.2287  -27.4519   20.1083 C   0  0  0  0  0  0
  -25.5896  -33.8631   24.2324 N   0  0  0  0  0  0
  -23.3976  -30.4914   21.5521 C   0  0  2  0  0  0
  -24.8466  -28.9615   20.1149 C   0  0  0  0  0  0
  -22.7378  -29.4659   22.5014 C   0  0  0  0  0  0
  -18.0247  -28.1388   22.8498 C   0  0  0  0  0  0
  -24.1485  -36.7330   23.2641 C   0  0  0  0  0  0
  -25.9241  -30.8403   21.3626 C   0  0  0  0  0  0
  -26.0026  -29.4737   20.7180 C   0  0  0  0  0  0
  -27.1952  -28.7211   20.7248 C   0  0  0  0  0  0
  -26.0686  -26.9618   19.4724 C   0  0  0  0  0  0
  -24.8745  -27.7012   19.4902 C   0  0  0  0  0  0
  -23.6048  -29.8216   20.1660 C   0  0  0  0  0  0
  -25.4102  -36.3120   24.0341 C   0  0  1  0  0  0
  -20.5835  -28.3670   23.1333 C   0  0  2  0  0  0
  -20.6749  -26.9416   22.5427 C   0  0  0  0  0  0
  -19.5732  -26.6393   21.5226 C   0  0  0  0  0  0
  -18.1902  -26.7944   22.1617 C   0  0  0  0  0  0
  -19.1501  -28.8849   23.2902 C   0  0  0  0  0  0
  -18.9428  -30.1460   23.8911 C   0  0  0  0  0  0
  -17.6446  -30.6605   24.0581 C   0  0  0  0  0  0
  -25.9023  -34.9485   23.5126 C   0  0  0  0  0  0
  -16.5321  -29.9102   23.6345 C   0  0  0  0  0  0
  -16.7234  -28.6520   23.0358 C   0  0  0  0  0  0
  -26.4476  -31.6603   25.0701 C   0  0  0  0  0  0
  -25.3757  -31.3720   26.1457 C   0  0  0  0  0  0
  -27.0290  -30.3039   24.6068 C   0  0  0  0  0  0
  -27.6040  -32.4341   25.7470 C   0  0  0  0  0  0
  -27.5579  -37.1805   24.8460 C   0  0  0  0  0  0
  -21.4107  -29.3036   22.3750 N   0  0  0  0  0  0
  -26.4286  -37.3798   23.9410 N   0  0  0  0  0  0
  -24.6630  -31.0783   22.1014 N   0  0  0  0  0  0
  -23.4143  -28.8190   23.3053 O   0  0  0  0  0  0
  -28.3565  -26.6697   20.1172 O   0  0  0  0  0  0
  -26.5565  -34.8935   22.4681 O   0  0  0  0  0  0
  -23.5314  -32.1391   23.7531 O   0  0  0  0  0  0
  -31.3534  -20.3968   16.4038 C   0  0  0  0  0  0
  -30.7150  -19.2489   15.9253 C   0  0  0  0  0  0
  -31.0996  -20.8170   17.7117 C   0  0  0  0  0  0
  -29.7980  -18.7774   18.1729 C   0  0  0  0  0  0
  -29.9104  -18.4684   16.7784 C   0  0  0  0  0  0
  -30.2756  -20.0698   18.5845 C   0  0  0  0  0  0
  -29.2799  -17.8108   20.6320 C   0  0  0  0  0  0
  -29.9481  -25.2776   21.2896 C   0  0  0  0  0  0
  -27.5194  -24.8731   21.6312 C   0  0  0  0  0  0
  -29.2656  -16.3775   21.1896 C   0  0  0  0  0  0
  -30.0875  -16.3633   18.9686 C   0  0  0  0  0  0
  -29.9692  -24.1435   20.2474 C   0  0  0  0  0  0
  -27.5676  -23.7220   20.6075 C   0  0  0  0  0  0
  -29.2543  -17.6571   19.1088 C   0  0  2  0  0  0
  -28.5765  -25.9618   21.3465 C   0  0  2  0  0  0
  -29.1443  -17.3380   16.1022 C   0  0  0  0  0  0
  -29.8983  -20.8497   19.8471 C   0  0  0  0  0  0
  -28.9545  -22.0246   19.4830 C   0  0  0  0  0  0
  -29.8749  -15.5369   20.1639 N   0  0  0  0  0  0
  -28.9197  -23.1126   20.4997 N   0  3  1  0  0  0
  -31.4626  -12.3289   19.1392 H   0  0  0  0  0  0
  -30.2712  -11.2664   19.8399 H   0  0  0  0  0  0
  -29.7323  -11.7529   17.4205 H   0  0  0  0  0  0
  -29.6753  -13.4588   17.7699 H   0  0  0  0  0  0
  -27.8038  -11.3019   18.8052 H   0  0  0  0  0  0
  -27.3638  -12.6393   17.7798 H   0  0  0  0  0  0
  -27.6757  -14.2447   19.5465 H   0  0  0  0  0  0
  -28.6789  -12.0060   21.3771 H   0  0  0  0  0  0
  -28.5054  -13.6838   21.8302 H   0  0  0  0  0  0
  -25.2764   -9.5626   22.4790 H   0  0  0  0  0  0
  -23.9984   -7.4594   22.7478 H   0  0  0  0  0  0
  -21.0848   -8.8759   19.8956 H   0  0  0  0  0  0
  -22.3718  -10.9663   19.6170 H   0  0  0  0  0  0
  -21.1990   -7.6153   23.9726 H   0  0  0  0  0  0
  -21.1521   -6.0548   25.9108 H   0  0  0  0  0  0
  -22.0578   -2.7606   23.2868 H   0  0  0  0  0  0
  -22.4127  -11.9812   22.4661 H   0  0  0  0  0  0
  -21.1162  -13.1295   22.2738 H   0  0  0  0  0  0
  -24.6706  -15.8438   20.4828 H   0  0  0  0  0  0
  -26.2962  -15.6026   20.0819 H   0  0  0  0  0  0
  -26.7101  -32.5535   23.1147 H   0  0  0  0  0  0
  -25.0097  -33.9828   25.0510 H   0  0  0  0  0  0
  -22.6850  -31.3066   21.4120 H   0  0  0  0  0  0
  -23.3745  -35.9666   23.3296 H   0  0  0  0  0  0
  -24.3589  -36.8939   22.2055 H   0  0  0  0  0  0
  -23.7232  -37.6539   23.6651 H   0  0  0  0  0  0
  -26.0249  -31.6013   20.5882 H   0  0  0  0  0  0
  -26.8169  -30.9014   21.9723 H   0  0  0  0  0  0
  -28.0841  -29.1061   21.2060 H   0  0  0  0  0  0
  -26.0845  -25.9996   18.9843 H   0  0  0  0  0  0
  -23.9887  -27.3007   19.0160 H   0  0  0  0  0  0
  -23.7034  -30.5927   19.4004 H   0  0  0  0  0  0
  -22.7333  -29.2308   19.8761 H   0  0  0  0  0  0
  -25.1284  -36.1986   25.0835 H   0  0  0  0  0  0
  -20.9903  -28.3226   24.1459 H   0  0  0  0  0  0
  -20.5682  -26.2274   23.3599 H   0  0  0  0  0  0
  -21.6618  -26.7503   22.1193 H   0  0  0  0  0  0
  -19.6896  -25.6304   21.1251 H   0  0  0  0  0  0
  -19.6679  -27.3215   20.6770 H   0  0  0  0  0  0
  -17.4180  -26.6703   21.4013 H   0  0  0  0  0  0
  -18.0292  -26.0085   22.9009 H   0  0  0  0  0  0
  -19.7915  -30.7272   24.2283 H   0  0  0  0  0  0
  -17.4998  -31.6304   24.5156 H   0  0  0  0  0  0
  -15.5329  -30.3008   23.7702 H   0  0  0  0  0  0
  -15.8611  -28.0854   22.7069 H   0  0  0  0  0  0
  -24.5919  -30.7077   25.7801 H   0  0  0  0  0  0
  -24.8980  -32.2894   26.4915 H   0  0  0  0  0  0
  -25.8120  -30.8872   27.0199 H   0  0  0  0  0  0
  -26.2797  -29.6809   24.1152 H   0  0  0  0  0  0
  -27.4082  -29.7284   25.4527 H   0  0  0  0  0  0
  -27.8646  -30.4357   23.9178 H   0  0  0  0  0  0
  -27.2633  -33.3647   26.2036 H   0  0  0  0  0  0
  -28.3855  -32.6890   25.0297 H   0  0  0  0  0  0
  -28.0690  -31.8461   26.5394 H   0  0  0  0  0  0
  -28.2590  -38.0109   24.7521 H   0  0  0  0  0  0
  -28.1075  -36.2640   24.6264 H   0  0  0  0  0  0
  -27.2297  -37.1425   25.8861 H   0  0  0  0  0  0
  -20.9246  -29.8752   21.6983 H   0  0  0  0  0  0
  -26.0180  -38.2886   24.1395 H   0  0  0  0  0  0
  -31.9701  -20.9986   15.7509 H   0  0  0  0  0  0
  -30.8374  -18.9745   14.8860 H   0  0  0  0  0  0
  -31.5131  -21.7628   18.0356 H   0  0  0  0  0  0
  -30.2174  -18.2743   20.9418 H   0  0  0  0  0  0
  -28.4390  -18.3928   21.0105 H   0  0  0  0  0  0
  -30.7178  -26.0133   21.0576 H   0  0  0  0  0  0
  -30.1971  -24.8702   22.2706 H   0  0  0  0  0  0
  -27.6928  -24.4653   22.6297 H   0  0  0  0  0  0
  -26.5169  -25.2987   21.6624 H   0  0  0  0  0  0
  -28.2402  -16.0455   21.3609 H   0  0  0  0  0  0
  -29.8044  -16.3147   22.1355 H   0  0  0  0  0  0
  -31.1465  -16.6246   18.8905 H   0  0  0  0  0  0
  -29.8300  -15.7956   18.0756 H   0  0  0  0  0  0
  -30.9536  -23.6751   20.2364 H   0  0  0  0  0  0
  -29.8257  -24.5795   19.2565 H   0  0  0  0  0  0
  -27.2523  -24.0797   19.6262 H   0  0  0  0  0  0
  -26.8481  -22.9580   20.9049 H   0  0  0  0  0  0
  -28.2174  -17.4601   18.8315 H   0  0  0  0  0  0
  -28.5837  -26.6781   22.1708 H   0  0  0  0  0  0
  -28.7189  -17.7024   15.1663 H   0  0  0  0  0  0
  -28.3001  -16.9754   16.6854 H   0  0  0  0  0  0
  -29.7968  -16.4985   15.8613 H   0  0  0  0  0  0
  -30.8168  -21.2180   20.3057 H   0  0  0  0  0  0
  -29.4067  -20.2682   20.6123 H   0  0  0  0  0  0
  -27.9575  -21.6074   19.3342 H   0  0  0  0  0  0
  -29.2131  -22.4676   18.5200 H   0  0  0  0  0  0
  -29.1123  -22.6803   21.3914 H   0  0  0  0  0  0
  1 25  1  0  0  0
  1 30  2  0  0  0
  1 89  1  0  0  0
  2  3  1  0  0  0
  2 25  1  0  0  0
  2 91  1  0  0  0
  2 92  1  0  0  0
  3  4  1  0  0  0
  3 93  1  0  0  0
  3 94  1  0  0  0
  4  5  1  0  0  0
  4 95  1  0  0  0
  4 96  1  0  0  0
  5  6  1  0  0  0
  5 26  1  0  0  0
  5 97  1  0  0  0
  6 25  1  0  0  0
  6 98  1  0  0  0
  6 99  1  0  0  0
  7  8  2  0  0  0
  7 26  1  0  0  0
  7 29  1  0  0  0
  8  9  1  0  0  0
  8 22  1  0  0  0
  9 10  1  0  0  0
  9 27  2  0  0  0
 10 11  2  0  0  0
 10 15  1  0  0  0
 11 12  1  0  0  0
 11100  1  0  0  0
 12 13  2  0  0  0
 12101  1  0  0  0
 13 14  1  0  0  0
 13 31  1  0  0  0
 14 15  2  0  0  0
 14102  1  0  0  0
 15103  1  0  0  0
 16 17  2  0  0  0
 16 21  1  0  0  0
 16 31  1  0  0  0
 17 18  1  0  0  0
 17104  1  0  0  0
 18 19  2  0  0  0
 18105  1  0  0  0
 19 20  1  0  0  0
 19 24  1  0  0  0
 20 21  2  0  0  0
 20106  1  0  0  0
 21 23  1  0  0  0
 22 28  1  0  0  0
 22 32  2  0  0  0
 26 27  1  0  0  0
 28107  1  0  0  0
 28108  1  0  0  0
 29109  1  0  0  0
 29110  1  0  0  0
 33 34  1  0  0  0
 33 66  1  0  0  0
 33 70  2  0  0  0
 34 36  1  0  0  0
 34 59  1  0  0  0
 34111  1  0  0  0
 35 44  2  0  0  0
 35 45  1  0  0  0
 35 68  1  0  0  0
 36 56  1  0  0  0
 36112  1  0  0  0
 37 39  1  0  0  0
 37 47  1  0  0  0
 37 66  1  0  0  0
 37113  1  0  0  0
 38 43  2  0  0  0
 38 46  1  0  0  0
 38 47  1  0  0  0
 39 64  1  0  0  0
 39 67  2  0  0  0
 40 52  1  0  0  0
 40 53  2  0  0  0
 40 58  1  0  0  0
 41114  1  0  0  0
 41115  1  0  0  0
 41116  1  0  0  0
 41 48  1  0  0  0
 42 43  1  0  0  0
 42 66  1  0  0  0
 42117  1  0  0  0
 42118  1  0  0  0
 43 44  1  0  0  0
 44119  1  0  0  0
 45 46  2  0  0  0
 45120  1  0  0  0
 46121  1  0  0  0
 47122  1  0  0  0
 47123  1  0  0  0
 48 56  1  0  0  0
 48 65  1  0  0  0
 48124  1  0  0  0
 49 50  1  0  0  0
 49 53  1  0  0  0
 49 64  1  0  0  0
 49125  1  0  0  0
 50 51  1  0  0  0
 50126  1  0  0  0
 50127  1  0  0  0
 51 52  1  0  0  0
 51128  1  0  0  0
 51129  1  0  0  0
 52130  1  0  0  0
 52131  1  0  0  0
 53 54  1  0  0  0
 54 55  2  0  0  0
 54132  1  0  0  0
 55 57  1  0  0  0
 55133  1  0  0  0
 56 69  2  0  0  0
 57 58  2  0  0  0
 57134  1  0  0  0
 58135  1  0  0  0
 59 60  1  0  0  0
 59 61  1  0  0  0
 59 62  1  0  0  0
 60136  1  0  0  0
 60137  1  0  0  0
 60138  1  0  0  0
 61139  1  0  0  0
 61140  1  0  0  0
 61141  1  0  0  0
 62142  1  0  0  0
 62143  1  0  0  0
 62144  1  0  0  0
 63 65  1  0  0  0
 63145  1  0  0  0
 63146  1  0  0  0
 63147  1  0  0  0
 64148  1  0  0  0
 65149  1  0  0  0
 68 85  1  0  0  0
 71 72  2  0  0  0
 71 73  1  0  0  0
 71150  1  0  0  0
 72 75  1  0  0  0
 72151  1  0  0  0
 73 76  2  0  0  0
 73152  1  0  0  0
 74 75  2  0  0  0
 74 76  1  0  0  0
 74 84  1  0  0  0
 75 86  1  0  0  0
 76 87  1  0  0  0
 77 80  1  0  0  0
 77 84  1  0  0  0
 77153  1  0  0  0
 77154  1  0  0  0
 78 82  1  0  0  0
 78 85  1  0  0  0
 78155  1  0  0  0
 78156  1  0  0  0
 79 83  1  0  0  0
 79 85  1  0  0  0
 79157  1  0  0  0
 79158  1  0  0  0
 80 89  1  0  0  0
 80159  1  0  0  0
 80160  1  0  0  0
 81 84  1  0  0  0
 81 89  1  0  0  0
 81161  1  0  0  0
 81162  1  0  0  0
 82 90  1  0  0  0
 82163  1  0  0  0
 82164  1  0  0  0
 83 90  1  0  0  0
 83165  1  0  0  0
 83166  1  0  0  0
 84167  1  0  0  0
 85168  1  0  0  0
 86169  1  0  0  0
 86170  1  0  0  0
 86171  1  0  0  0
 87 88  1  0  0  0
 87172  1  0  0  0
 87173  1  0  0  0
 88174  1  0  0  0
 88175  1  0  0  0
 88 90  1  0  0  0
 90176  1  0  0  0
M  CHG  1  90   1
M  ISO  4   1 100  68 101  85 101  89 100
M  END
> <chiral flag>
0

> <version>
0

> <s_m_source_file>
/data/baiqing/PycharmProjects/Reinvent-master-3.2/result/LINK_invent/BTK/process_docking_weight1_custom_sum_contain_oxygen_bond_distance_aromatic_linkinvent_7_9_3/rearranged_h_0136.sdf

> <i_m_source_file_index>
90

> <r_mmod_Potential_Energy-OPLS-2005>
169.276672363281

> <r_mmod_Stretch_Energy-OPLS-2005>
43.3892555236816

> <r_mmod_Bend_Energy-OPLS-2005>
144.735702514648

> <r_mmod_Torsional_Energy-OPLS-2005>
430.724060058594

> <r_mmod_Improper_Torsional_Energy-OPLS-2005>
23.4315433502197

> <r_mmod_Van_der_Waal_Energy-OPLS-2005>
157.535095214844

> <r_mmod_Electrostatic_Energy-OPLS-2005>
-229.825836181641

> <r_mmod_Solvation_Energy-OPLS-2005>
-421.761016845703

> <b_mmod_Minimization_Converged-OPLS-2005>
0

> <r_mmod_RMS_Derivative-OPLS-2005>
3.5018789768219

$$$$
93
                    3D
 Structure written by MMmdl.
165173  0  0  1  0            999 V2000
  -30.6692  -14.5088   20.4965 C   0  0  0  0  0  0
  -30.4322  -12.3154   19.4161 C   0  0  0  0  0  0
  -29.4992  -12.4735   18.1994 C   0  0  0  0  0  0
  -28.0220  -12.3250   18.6159 C   0  0  0  0  0  0
  -27.6557  -13.1760   19.8604 C   0  0  2  0  0  0
  -28.7035  -13.0068   20.9832 C   0  0  0  0  0  0
  -25.2658  -13.8073   20.5738 C   0  0  0  0  0  0
  -24.1853  -13.0403   20.9204 C   0  0  0  0  0  0
  -24.6331  -11.6851   20.8697 C   0  0  0  0  0  0
  -23.8957  -10.4278   21.0368 C   0  0  0  0  0  0
  -24.3547   -9.4228   21.9143 C   0  0  0  0  0  0
  -23.6288   -8.2238   22.0696 C   0  0  0  0  0  0
  -22.4258   -8.0269   21.3509 C   0  0  0  0  0  0
  -21.9859   -9.0202   20.4586 C   0  0  0  0  0  0
  -22.7125  -10.2121   20.3014 C   0  0  0  0  0  0
  -21.6864   -6.0728   22.5279 C   0  0  0  0  0  0
  -21.4001   -6.5619   23.8211 C   0  0  0  0  0  0
  -21.3672   -5.6764   24.9169 C   0  0  0  0  0  0
  -21.6062   -4.3027   24.7222 C   0  0  0  0  0  0
  -21.8833   -3.8135   23.4338 C   0  0  0  0  0  0
  -21.9211   -4.6955   22.3402 C   0  0  0  0  0  0
  -22.7897  -13.5263   21.1867 C   0  0  0  0  0  0
  -22.1679   -4.2146   21.0978 F   0  0  0  0  0  0
  -21.5649   -3.4513   25.7737 F   0  0  0  0  0  0
  -30.0262  -13.3097   20.4150 N   0  0  0  0  0  0
  -26.3000  -12.9145   20.3314 N   0  0  0  0  0  0
  -25.9254  -11.6347   20.5726 N   0  0  0  0  0  0
  -22.0491  -12.8276   22.0388 N   0  0  0  0  0  0
  -25.4492  -15.1786   20.4265 N   0  0  0  0  0  0
  -31.8412  -14.6705   20.1457 O   0  0  0  0  0  0
  -21.6640   -6.8867   21.4232 O   0  0  0  0  0  0
  -22.3611  -14.5583   20.6728 O   0  0  0  0  0  0
  -24.6113  -31.8678   23.2101 C   0  0  0  0  0  0
  -25.9008  -32.4833   23.8412 C   0  0  1  0  0  0
  -27.2599  -27.4729   20.0749 C   0  0  0  0  0  0
  -25.5860  -33.8629   24.2346 N   0  0  0  0  0  0
  -23.4035  -30.4895   21.5454 C   0  0  2  0  0  0
  -24.8575  -28.9532   20.1173 C   0  0  0  0  0  0
  -22.7401  -29.4656   22.4953 C   0  0  0  0  0  0
  -18.0268  -28.1392   22.8485 C   0  0  0  0  0  0
  -24.1480  -36.7331   23.2641 C   0  0  0  0  0  0
  -25.9279  -30.8405   21.3628 C   0  0  0  0  0  0
  -26.0113  -29.4730   20.7183 C   0  0  0  0  0  0
  -27.2135  -28.7325   20.7088 C   0  0  0  0  0  0
  -26.0878  -26.9506   19.4879 C   0  0  0  0  0  0
  -24.8866  -27.6856   19.5080 C   0  0  0  0  0  0
  -23.6183  -29.8184   20.1611 C   0  0  0  0  0  0
  -25.4098  -36.3127   24.0350 C   0  0  1  0  0  0
  -20.5858  -28.3684   23.1304 C   0  0  2  0  0  0
  -20.6754  -26.9414   22.5413 C   0  0  0  0  0  0
  -19.5728  -26.6393   21.5210 C   0  0  0  0  0  0
  -18.1911  -26.7936   22.1627 C   0  0  0  0  0  0
  -19.1519  -28.8854   23.2902 C   0  0  0  0  0  0
  -18.9456  -30.1454   23.8926 C   0  0  0  0  0  0
  -17.6457  -30.6589   24.0579 C   0  0  0  0  0  0
  -25.9014  -34.9487   23.5149 C   0  0  0  0  0  0
  -16.5345  -29.9104   23.6313 C   0  0  0  0  0  0
  -16.7260  -28.6522   23.0332 C   0  0  0  0  0  0
  -26.4459  -31.6610   25.0731 C   0  0  0  0  0  0
  -25.3756  -31.3715   26.1511 C   0  0  0  0  0  0
  -27.0284  -30.3057   24.6086 C   0  0  0  0  0  0
  -27.6046  -32.4329   25.7475 C   0  0  0  0  0  0
  -27.5584  -37.1820   24.8464 C   0  0  0  0  0  0
  -21.4131  -29.3058   22.3708 N   0  0  0  0  0  0
  -26.4295  -37.3806   23.9407 N   0  0  0  0  0  0
  -24.6649  -31.0804   22.0985 N   0  0  0  0  0  0
  -23.4174  -28.8184   23.2983 O   0  0  0  0  0  0
  -28.4241  -26.7436   20.0632 O   0  0  0  0  0  0
  -26.5585  -34.8934   22.4717 O   0  0  0  0  0  0
  -23.5306  -32.1410   23.7496 O   0  0  0  0  0  0
  -30.2949  -17.8560   21.6584 C   0  0  0  0  0  0
  -29.8807  -17.6623   19.2209 C   0  0  0  0  0  0
  -29.7983  -16.3938   21.8676 C   0  0  0  0  0  0
  -29.2937  -16.2566   19.4481 C   0  0  0  0  0  0
  -29.6014  -18.5391   20.4536 C   0  0  0  0  0  0
  -29.6746  -21.5951   18.2506 C   0  0  0  0  0  0
  -29.0245  -20.7388   19.3717 C   0  0  0  0  0  0
  -30.3197  -22.9492   18.6429 C   0  0  0  0  0  0
  -30.0264  -25.4144   18.7968 C   0  0  0  0  0  0
  -29.0293  -26.5910   18.7798 C   0  0  0  0  0  0
  -29.8477  -15.5803   20.6384 N   0  0  0  0  0  0
  -29.9725  -19.9719   20.2404 N   0  3  0  0  0  0
  -29.3639  -24.0848   18.7367 N   0  3  0  0  0  0
  -31.4706  -12.4378   19.1051 H   0  0  0  0  0  0
  -30.3595  -11.3116   19.8397 H   0  0  0  0  0  0
  -29.7540  -11.7313   17.4412 H   0  0  0  0  0  0
  -29.6548  -13.4465   17.7300 H   0  0  0  0  0  0
  -27.8438  -11.2701   18.8216 H   0  0  0  0  0  0
  -27.3717  -12.5847   17.7807 H   0  0  0  0  0  0
  -27.6660  -14.2068   19.5279 H   0  0  0  0  0  0
  -28.6937  -11.9856   21.3666 H   0  0  0  0  0  0
  -28.4651  -13.6515   21.8320 H   0  0  0  0  0  0
  -25.2698   -9.5788   22.4701 H   0  0  0  0  0  0
  -24.0056   -7.4639   22.7394 H   0  0  0  0  0  0
  -21.0801   -8.8656   19.8877 H   0  0  0  0  0  0
  -22.3520  -10.9651   19.6141 H   0  0  0  0  0  0
  -21.1926   -7.6112   23.9722 H   0  0  0  0  0  0
  -21.1498   -6.0468   25.9074 H   0  0  0  0  0  0
  -22.0605   -2.7598   23.2822 H   0  0  0  0  0  0
  -22.4086  -11.9976   22.4860 H   0  0  0  0  0  0
  -21.1067  -13.1267   22.2460 H   0  0  0  0  0  0
  -24.6961  -15.8469   20.5599 H   0  0  0  0  0  0
  -26.3287  -15.6108   20.1771 H   0  0  0  0  0  0
  -26.7087  -32.5567   23.1193 H   0  0  0  0  0  0
  -25.0027  -33.9804   25.0503 H   0  0  0  0  0  0
  -22.6937  -31.3054   21.3980 H   0  0  0  0  0  0
  -23.3742  -35.9661   23.3303 H   0  0  0  0  0  0
  -24.3591  -36.8942   22.2056 H   0  0  0  0  0  0
  -23.7229  -37.6538   23.6652 H   0  0  0  0  0  0
  -26.0346  -31.6035   20.5898 H   0  0  0  0  0  0
  -26.8173  -30.9031   21.9775 H   0  0  0  0  0  0
  -28.1057  -29.1289   21.1744 H   0  0  0  0  0  0
  -26.1047  -25.9771   19.0190 H   0  0  0  0  0  0
  -23.9991  -27.2726   19.0489 H   0  0  0  0  0  0
  -23.7353  -30.5902   19.3989 H   0  0  0  0  0  0
  -22.7456  -29.2367   19.8587 H   0  0  0  0  0  0
  -25.1276  -36.2006   25.0846 H   0  0  0  0  0  0
  -20.9972  -28.3249   24.1416 H   0  0  0  0  0  0
  -20.5628  -26.2298   23.3610 H   0  0  0  0  0  0
  -21.6626  -26.7432   22.1210 H   0  0  0  0  0  0
  -19.6877  -25.6301   21.1238 H   0  0  0  0  0  0
  -19.6660  -27.3207   20.6738 H   0  0  0  0  0  0
  -17.4172  -26.6688   21.4034 H   0  0  0  0  0  0
  -18.0309  -26.0081   22.9022 H   0  0  0  0  0  0
  -19.7945  -30.7265   24.2301 H   0  0  0  0  0  0
  -17.5022  -31.6272   24.5178 H   0  0  0  0  0  0
  -15.5352  -30.3029   23.7625 H   0  0  0  0  0  0
  -15.8655  -28.0867   22.7018 H   0  0  0  0  0  0
  -24.5859  -30.7145   25.7859 H   0  0  0  0  0  0
  -24.9039  -32.2875   26.5071 H   0  0  0  0  0  0
  -25.8127  -30.8790   27.0204 H   0  0  0  0  0  0
  -26.2808  -29.6817   24.1174 H   0  0  0  0  0  0
  -27.4101  -29.7305   25.4532 H   0  0  0  0  0  0
  -27.8624  -30.4395   23.9197 H   0  0  0  0  0  0
  -27.2673  -33.3615   26.2096 H   0  0  0  0  0  0
  -28.3820  -32.6916   25.0274 H   0  0  0  0  0  0
  -28.0750  -31.8431   26.5352 H   0  0  0  0  0  0
  -28.2602  -38.0117   24.7518 H   0  0  0  0  0  0
  -28.1083  -36.2654   24.6278 H   0  0  0  0  0  0
  -27.2313  -37.1455   25.8872 H   0  0  0  0  0  0
  -20.9267  -29.8855   21.7012 H   0  0  0  0  0  0
  -26.0193  -38.2887   24.1409 H   0  0  0  0  0  0
  -31.3742  -17.8411   21.5123 H   0  0  0  0  0  0
  -30.1151  -18.4221   22.5729 H   0  0  0  0  0  0
  -29.4339  -18.0990   18.3276 H   0  0  0  0  0  0
  -30.9521  -17.6087   19.0186 H   0  0  0  0  0  0
  -28.7647  -16.4079   22.2153 H   0  0  0  0  0  0
  -30.3647  -15.9130   22.6652 H   0  0  0  0  0  0
  -29.4163  -15.6558   18.5463 H   0  0  0  0  0  0
  -28.2203  -16.3613   19.5945 H   0  0  0  0  0  0
  -28.5301  -18.5232   20.6594 H   0  0  0  0  0  0
  -28.9159  -21.7955   17.4918 H   0  0  0  0  0  0
  -30.4136  -20.9871   17.7283 H   0  0  0  0  0  0
  -28.3576  -20.0370   18.8662 H   0  0  0  0  0  0
  -28.3612  -21.3459   19.9890 H   0  0  0  0  0  0
  -31.0405  -23.1954   17.8609 H   0  0  0  0  0  0
  -30.8981  -22.8659   19.5636 H   0  0  0  0  0  0
  -30.6744  -25.4756   19.6717 H   0  0  0  0  0  0
  -30.6751  -25.5168   17.9258 H   0  0  0  0  0  0
  -28.3015  -26.4665   17.9762 H   0  0  0  0  0  0
  -29.5720  -27.5130   18.5626 H   0  0  0  0  0  0
  -30.9194  -20.0481   19.9069 H   0  0  0  0  0  0
  -29.9522  -20.4203   21.1452 H   0  0  0  0  0  0
  -28.7818  -23.9771   19.5532 H   0  0  0  0  0  0
  -28.7582  -24.0705   17.9301 H   0  0  0  0  0  0
  1 25  1  0  0  0
  1 30  2  0  0  0
  1 81  1  0  0  0
  2  3  1  0  0  0
  2 25  1  0  0  0
  2 84  1  0  0  0
  2 85  1  0  0  0
  3  4  1  0  0  0
  3 86  1  0  0  0
  3 87  1  0  0  0
  4  5  1  0  0  0
  4 88  1  0  0  0
  4 89  1  0  0  0
  5  6  1  0  0  0
  5 26  1  0  0  0
  5 90  1  0  0  0
  6 25  1  0  0  0
  6 91  1  0  0  0
  6 92  1  0  0  0
  7  8  2  0  0  0
  7 26  1  0  0  0
  7 29  1  0  0  0
  8  9  1  0  0  0
  8 22  1  0  0  0
  9 10  1  0  0  0
  9 27  2  0  0  0
 10 11  2  0  0  0
 10 15  1  0  0  0
 11 12  1  0  0  0
 11 93  1  0  0  0
 12 13  2  0  0  0
 12 94  1  0  0  0
 13 14  1  0  0  0
 13 31  1  0  0  0
 14 15  2  0  0  0
 14 95  1  0  0  0
 15 96  1  0  0  0
 16 17  2  0  0  0
 16 21  1  0  0  0
 16 31  1  0  0  0
 17 18  1  0  0  0
 17 97  1  0  0  0
 18 19  2  0  0  0
 18 98  1  0  0  0
 19 20  1  0  0  0
 19 24  1  0  0  0
 20 21  2  0  0  0
 20 99  1  0  0  0
 21 23  1  0  0  0
 22 28  1  0  0  0
 22 32  2  0  0  0
 26 27  1  0  0  0
 28100  1  0  0  0
 28101  1  0  0  0
 29102  1  0  0  0
 29103  1  0  0  0
 33 34  1  0  0  0
 33 66  1  0  0  0
 33 70  2  0  0  0
 34 36  1  0  0  0
 34 59  1  0  0  0
 34104  1  0  0  0
 35 44  2  0  0  0
 35 45  1  0  0  0
 35 68  1  0  0  0
 36 56  1  0  0  0
 36105  1  0  0  0
 37 39  1  0  0  0
 37 47  1  0  0  0
 37 66  1  0  0  0
 37106  1  0  0  0
 38 43  2  0  0  0
 38 46  1  0  0  0
 38 47  1  0  0  0
 39 64  1  0  0  0
 39 67  2  0  0  0
 40 52  1  0  0  0
 40 53  2  0  0  0
 40 58  1  0  0  0
 41107  1  0  0  0
 41108  1  0  0  0
 41109  1  0  0  0
 41 48  1  0  0  0
 42 43  1  0  0  0
 42 66  1  0  0  0
 42110  1  0  0  0
 42111  1  0  0  0
 43 44  1  0  0  0
 44112  1  0  0  0
 45 46  2  0  0  0
 45113  1  0  0  0
 46114  1  0  0  0
 47115  1  0  0  0
 47116  1  0  0  0
 48 56  1  0  0  0
 48 65  1  0  0  0
 48117  1  0  0  0
 49 50  1  0  0  0
 49 53  1  0  0  0
 49 64  1  0  0  0
 49118  1  0  0  0
 50 51  1  0  0  0
 50119  1  0  0  0
 50120  1  0  0  0
 51 52  1  0  0  0
 51121  1  0  0  0
 51122  1  0  0  0
 52123  1  0  0  0
 52124  1  0  0  0
 53 54  1  0  0  0
 54 55  2  0  0  0
 54125  1  0  0  0
 55 57  1  0  0  0
 55126  1  0  0  0
 56 69  2  0  0  0
 57 58  2  0  0  0
 57127  1  0  0  0
 58128  1  0  0  0
 59 60  1  0  0  0
 59 61  1  0  0  0
 59 62  1  0  0  0
 60129  1  0  0  0
 60130  1  0  0  0
 60131  1  0  0  0
 61132  1  0  0  0
 61133  1  0  0  0
 61134  1  0  0  0
 62135  1  0  0  0
 62136  1  0  0  0
 62137  1  0  0  0
 63 65  1  0  0  0
 63138  1  0  0  0
 63139  1  0  0  0
 63140  1  0  0  0
 64141  1  0  0  0
 65142  1  0  0  0
 68 80  1  0  0  0
 71 73  1  0  0  0
 71 75  1  0  0  0
 71143  1  0  0  0
 71144  1  0  0  0
 72 74  1  0  0  0
 72 75  1  0  0  0
 72145  1  0  0  0
 72146  1  0  0  0
 73 81  1  0  0  0
 73147  1  0  0  0
 73148  1  0  0  0
 74 81  1  0  0  0
 74149  1  0  0  0
 74150  1  0  0  0
 75 82  1  0  0  0
 75151  1  0  0  0
 76 77  1  0  0  0
 76 78  1  0  0  0
 76152  1  0  0  0
 76153  1  0  0  0
 77 82  1  0  0  0
 77154  1  0  0  0
 77155  1  0  0  0
 78 83  1  0  0  0
 78156  1  0  0  0
 78157  1  0  0  0
 79 80  1  0  0  0
 79 83  1  0  0  0
 79158  1  0  0  0
 79159  1  0  0  0
 80160  1  0  0  0
 80161  1  0  0  0
 82162  1  0  0  0
 82163  1  0  0  0
 83164  1  0  0  0
 83165  1  0  0  0
M  CHG  2  82   1  83   1
M  ISO  4   1 100  68 101  80 101  81 100
M  END
> <chiral flag>
0

> <version>
0

> <s_m_source_file>
/data/baiqing/PycharmProjects/Reinvent-master-3.2/result/LINK_invent/BTK/process_docking_weight1_custom_sum_contain_oxygen_bond_distance_aromatic_linkinvent_7_9_3/rearranged_h_0136.sdf

> <i_m_source_file_index>
91

> <r_mmod_Potential_Energy-OPLS-2005>
-64.5376129150391

> <r_mmod_Stretch_Energy-OPLS-2005>
37.9945373535156

> <r_mmod_Bend_Energy-OPLS-2005>
102.63298034668

> <r_mmod_Torsional_Energy-OPLS-2005>
392.967224121094

> <r_mmod_Improper_Torsional_Energy-OPLS-2005>
10.1348123550415

> <r_mmod_Van_der_Waal_Energy-OPLS-2005>
126.963043212891

> <r_mmod_Electrostatic_Energy-OPLS-2005>
217.296264648438

> <r_mmod_Solvation_Energy-OPLS-2005>
-969.59228515625

> <b_mmod_Minimization_Converged-OPLS-2005>
0

> <r_mmod_RMS_Derivative-OPLS-2005>
4.3455810546875

$$$$
94
                    3D
 Structure written by MMmdl.
175184  0  0  1  0            999 V2000
  -30.8482  -14.2451   20.7523 C   0  0  0  0  0  0
  -30.3999  -12.2681   19.3610 C   0  0  0  0  0  0
  -29.4599  -12.5123   18.1722 C   0  0  0  0  0  0
  -27.9937  -12.3711   18.6117 C   0  0  0  0  0  0
  -27.6665  -13.2001   19.8804 C   0  0  2  0  0  0
  -28.7075  -12.9579   20.9945 C   0  0  0  0  0  0
  -25.2632  -13.8181   20.5695 C   0  0  0  0  0  0
  -24.1868  -13.0475   20.9169 C   0  0  0  0  0  0
  -24.6388  -11.6925   20.8749 C   0  0  0  0  0  0
  -23.9050  -10.4314   21.0413 C   0  0  0  0  0  0
  -24.3601   -9.4237   21.9197 C   0  0  0  0  0  0
  -23.6291   -8.2268   22.0772 C   0  0  0  0  0  0
  -22.4287   -8.0294   21.3551 C   0  0  0  0  0  0
  -21.9908   -9.0265   20.4666 C   0  0  0  0  0  0
  -22.7216  -10.2150   20.3067 C   0  0  0  0  0  0
  -21.6856   -6.0748   22.5293 C   0  0  0  0  0  0
  -21.4011   -6.5651   23.8229 C   0  0  0  0  0  0
  -21.3646   -5.6805   24.9187 C   0  0  0  0  0  0
  -21.6032   -4.3067   24.7236 C   0  0  0  0  0  0
  -21.8816   -3.8156   23.4364 C   0  0  0  0  0  0
  -21.9192   -4.6972   22.3418 C   0  0  0  0  0  0
  -22.7895  -13.5293   21.1812 C   0  0  0  0  0  0
  -22.1659   -4.2157   21.0993 F   0  0  0  0  0  0
  -21.5608   -3.4552   25.7752 F   0  0  0  0  0  0
  -30.0565  -13.1942   20.4468 N   0  0  0  0  0  0
  -26.3056  -12.9330   20.3436 N   0  0  0  0  0  0
  -25.9324  -11.6494   20.5819 N   0  0  0  0  0  0
  -22.0502  -12.8327   22.0363 N   0  0  0  0  0  0
  -25.4392  -15.1894   20.4084 N   0  0  0  0  0  0
  -31.7513  -14.6657   20.0211 O   0  0  0  0  0  0
  -21.6649   -6.8895   21.4259 O   0  0  0  0  0  0
  -22.3615  -14.5607   20.6654 O   0  0  0  0  0  0
  -24.6122  -31.8717   23.2197 C   0  0  0  0  0  0
  -25.9043  -32.4838   23.8462 C   0  0  1  0  0  0
  -27.2240  -27.4716   20.0658 C   0  0  0  0  0  0
  -25.5930  -33.8642   24.2387 N   0  0  0  0  0  0
  -23.3942  -30.5022   21.5606 C   0  0  2  0  0  0
  -24.8348  -28.9847   20.1110 C   0  0  0  0  0  0
  -22.7372  -29.4682   22.5030 C   0  0  0  0  0  0
  -18.0259  -28.1368   22.8500 C   0  0  0  0  0  0
  -24.1481  -36.7308   23.2631 C   0  0  0  0  0  0
  -25.9239  -30.8462   21.3705 C   0  0  0  0  0  0
  -25.9969  -29.4887   20.7072 C   0  0  0  0  0  0
  -27.1934  -28.7398   20.6833 C   0  0  0  0  0  0
  -26.0398  -26.9880   19.4528 C   0  0  0  0  0  0
  -24.8499  -27.7311   19.4825 C   0  0  0  0  0  0
  -23.5961  -29.8466   20.1700 C   0  0  0  0  0  0
  -25.4103  -36.3121   24.0343 C   0  0  1  0  0  0
  -20.5849  -28.3643   23.1331 C   0  0  2  0  0  0
  -20.6752  -26.9381   22.5417 C   0  0  0  0  0  0
  -19.5727  -26.6382   21.5211 C   0  0  0  0  0  0
  -18.1900  -26.7925   22.1610 C   0  0  0  0  0  0
  -19.1514  -28.8825   23.2913 C   0  0  0  0  0  0
  -18.9445  -30.1442   23.8914 C   0  0  0  0  0  0
  -17.6443  -30.6571   24.0581 C   0  0  0  0  0  0
  -25.9038  -34.9481   23.5152 C   0  0  0  0  0  0
  -16.5343  -29.9074   23.6341 C   0  0  0  0  0  0
  -16.7253  -28.6499   23.0356 C   0  0  0  0  0  0
  -26.4486  -31.6598   25.0771 C   0  0  0  0  0  0
  -25.3781  -31.3688   26.1540 C   0  0  0  0  0  0
  -27.0300  -30.3037   24.6140 C   0  0  0  0  0  0
  -27.6084  -32.4299   25.7517 C   0  0  0  0  0  0
  -27.5595  -37.1788   24.8455 C   0  0  0  0  0  0
  -21.4109  -29.3024   22.3751 N   0  0  0  0  0  0
  -26.4279  -37.3816   23.9446 N   0  0  0  0  0  0
  -24.6616  -31.0852   22.1086 N   0  0  0  0  0  0
  -23.4166  -28.8207   23.3036 O   0  0  0  0  0  0
  -28.4023  -26.7520   20.0802 O   0  0  0  0  0  0
  -26.5578  -34.8915   22.4697 O   0  0  0  0  0  0
  -23.5327  -32.1458   23.7622 O   0  0  0  0  0  0
  -28.5817  -19.4173   22.7913 C   0  0  0  0  0  0
  -27.9818  -20.1611   21.8199 C   0  0  0  0  0  0
  -29.8400  -19.0250   22.2663 C   0  0  0  0  0  0
  -29.9972  -19.5315   21.0062 C   0  0  0  0  0  0
  -28.2145  -23.3438   18.4635 C   0  0  0  0  0  0
  -28.8854  -23.1215   20.9394 C   0  0  0  0  0  0
  -28.5463  -24.8398   18.5474 C   0  0  0  0  0  0
  -29.2355  -24.6198   20.9334 C   0  0  0  0  0  0
  -28.9520  -22.4769   19.5266 C   0  0  1  0  0  0
  -28.2840  -25.3332   19.9773 C   0  0  1  0  0  0
  -31.1269  -19.4094   20.0282 C   0  0  0  0  0  0
  -27.0517  -20.7405   19.0796 C   0  0  0  0  0  0
  -31.2274  -16.0402   24.0137 C   0  0  0  0  0  0
  -30.2214  -17.1734   23.7534 C   0  0  0  0  0  0
  -31.7797  -15.3694   22.7432 C   0  0  0  0  0  0
  -28.5266  -20.9681   19.4786 C   0  0  2  0  0  0
  -28.8282  -20.2361   20.7162 N   0  0  0  0  0  0
  -30.7836  -18.2389   22.9307 N   0  0  0  0  0  0
  -30.7532  -14.6220   22.0294 N   0  0  0  0  0  0
  -31.4392  -12.3664   19.0412 H   0  0  0  0  0  0
  -30.2956  -11.2415   19.7185 H   0  0  0  0  0  0
  -29.6749  -11.7955   17.3774 H   0  0  0  0  0  0
  -29.6332  -13.5046   17.7528 H   0  0  0  0  0  0
  -27.8052  -11.3139   18.8039 H   0  0  0  0  0  0
  -27.3283  -12.6582   17.7957 H   0  0  0  0  0  0
  -27.7265  -14.2518   19.6015 H   0  0  0  0  0  0
  -28.6544  -11.9352   21.3677 H   0  0  0  0  0  0
  -28.4705  -13.6010   21.8446 H   0  0  0  0  0  0
  -25.2735   -9.5725   22.4785 H   0  0  0  0  0  0
  -23.9995   -7.4675   22.7521 H   0  0  0  0  0  0
  -21.0822   -8.8774   19.8999 H   0  0  0  0  0  0
  -22.3655  -10.9688   19.6185 H   0  0  0  0  0  0
  -21.2012   -7.6160   23.9735 H   0  0  0  0  0  0
  -21.1450   -6.0531   25.9083 H   0  0  0  0  0  0
  -22.0597   -2.7618   23.2866 H   0  0  0  0  0  0
  -22.4043  -11.9962   22.4750 H   0  0  0  0  0  0
  -21.1145  -13.1443   22.2575 H   0  0  0  0  0  0
  -24.6829  -15.8542   20.5247 H   0  0  0  0  0  0
  -26.3089  -15.6258   20.1255 H   0  0  0  0  0  0
  -26.7117  -32.5549   23.1228 H   0  0  0  0  0  0
  -25.0147  -33.9827   25.0575 H   0  0  0  0  0  0
  -22.6820  -31.3198   21.4325 H   0  0  0  0  0  0
  -23.3785  -35.9594   23.3217 H   0  0  0  0  0  0
  -24.3600  -36.9007   22.2068 H   0  0  0  0  0  0
  -23.7163  -37.6451   23.6701 H   0  0  0  0  0  0
  -26.0416  -31.6228   20.6133 H   0  0  0  0  0  0
  -26.8097  -30.8866   21.9923 H   0  0  0  0  0  0
  -28.0908  -29.1268   21.1463 H   0  0  0  0  0  0
  -26.0092  -26.0417   18.9344 H   0  0  0  0  0  0
  -23.9590  -27.3435   19.0073 H   0  0  0  0  0  0
  -23.6958  -30.6295   19.4172 H   0  0  0  0  0  0
  -22.7187  -29.2680   19.8748 H   0  0  0  0  0  0
  -25.1269  -36.1981   25.0835 H   0  0  0  0  0  0
  -20.9947  -28.3193   24.1449 H   0  0  0  0  0  0
  -20.5648  -26.2241   23.3594 H   0  0  0  0  0  0
  -21.6620  -26.7407   22.1216 H   0  0  0  0  0  0
  -19.6875  -25.6295   21.1228 H   0  0  0  0  0  0
  -19.6680  -27.3212   20.6763 H   0  0  0  0  0  0
  -17.4175  -26.6709   21.4002 H   0  0  0  0  0  0
  -18.0272  -26.0050   22.8982 H   0  0  0  0  0  0
  -19.7917  -30.7275   24.2266 H   0  0  0  0  0  0
  -17.4989  -31.6249   24.5177 H   0  0  0  0  0  0
  -15.5342  -30.2981   23.7657 H   0  0  0  0  0  0
  -15.8650  -28.0833   22.7051 H   0  0  0  0  0  0
  -24.5952  -30.7027   25.7897 H   0  0  0  0  0  0
  -24.8978  -32.2832   26.5037 H   0  0  0  0  0  0
  -25.8167  -30.8835   27.0269 H   0  0  0  0  0  0
  -26.2819  -29.6789   24.1246 H   0  0  0  0  0  0
  -27.4107  -29.7296   25.4597 H   0  0  0  0  0  0
  -27.8653  -30.4353   23.9260 H   0  0  0  0  0  0
  -27.2755  -33.3633   26.2074 H   0  0  0  0  0  0
  -28.3912  -32.6785   25.0339 H   0  0  0  0  0  0
  -28.0720  -31.8414   26.5447 H   0  0  0  0  0  0
  -28.2555  -38.0146   24.7610 H   0  0  0  0  0  0
  -28.1150  -36.2684   24.6142 H   0  0  0  0  0  0
  -27.2328  -37.1272   25.8854 H   0  0  0  0  0  0
  -20.9245  -29.8778   21.7022 H   0  0  0  0  0  0
  -26.0160  -38.2867   24.1546 H   0  0  0  0  0  0
  -28.1563  -19.1909   23.7603 H   0  0  0  0  0  0
  -27.0191  -20.6528   21.8182 H   0  0  0  0  0  0
  -28.4302  -22.9726   17.4614 H   0  0  0  0  0  0
  -27.1344  -23.2675   18.5923 H   0  0  0  0  0  0
  -27.8822  -22.9965   21.3494 H   0  0  0  0  0  0
  -29.5631  -22.6111   21.6244 H   0  0  0  0  0  0
  -27.9356  -25.3895   17.8309 H   0  0  0  0  0  0
  -29.5841  -25.0194   18.2649 H   0  0  0  0  0  0
  -30.2721  -24.7744   20.6317 H   0  0  0  0  0  0
  -29.1351  -25.0286   21.9393 H   0  0  0  0  0  0
  -30.0092  -22.4992   19.2575 H   0  0  0  0  0  0
  -27.2918  -25.0153   20.3012 H   0  0  0  0  0  0
  -31.9635  -18.8535   20.4507 H   0  0  0  0  0  0
  -31.5002  -20.3909   19.7359 H   0  0  0  0  0  0
  -30.8093  -18.8805   19.1292 H   0  0  0  0  0  0
  -26.8734  -21.0439   18.0475 H   0  0  0  0  0  0
  -26.3654  -21.3039   19.7118 H   0  0  0  0  0  0
  -26.7807  -19.6871   19.1440 H   0  0  0  0  0  0
  -30.7525  -15.2839   24.6421 H   0  0  0  0  0  0
  -32.0609  -16.4254   24.6009 H   0  0  0  0  0  0
  -29.9067  -17.5965   24.7088 H   0  0  0  0  0  0
  -29.3245  -16.7678   23.2798 H   0  0  0  0  0  0
  -32.5728  -14.6699   23.0125 H   0  0  0  0  0  0
  -32.2397  -16.1139   22.0915 H   0  0  0  0  0  0
  -29.1046  -20.5025   18.6802 H   0  0  0  0  0  0
  -31.5892  -17.9781   22.3708 H   0  0  0  0  0  0
  -30.0321  -14.1744   22.5751 H   0  0  0  0  0  0
  1 25  1  0  0  0
  1 30  2  0  0  0
  1 89  1  0  0  0
  2  3  1  0  0  0
  2 25  1  0  0  0
  2 90  1  0  0  0
  2 91  1  0  0  0
  3  4  1  0  0  0
  3 92  1  0  0  0
  3 93  1  0  0  0
  4  5  1  0  0  0
  4 94  1  0  0  0
  4 95  1  0  0  0
  5  6  1  0  0  0
  5 26  1  0  0  0
  5 96  1  0  0  0
  6 25  1  0  0  0
  6 97  1  0  0  0
  6 98  1  0  0  0
  7  8  2  0  0  0
  7 26  1  0  0  0
  7 29  1  0  0  0
  8  9  1  0  0  0
  8 22  1  0  0  0
  9 10  1  0  0  0
  9 27  2  0  0  0
 10 11  2  0  0  0
 10 15  1  0  0  0
 11 12  1  0  0  0
 11 99  1  0  0  0
 12 13  2  0  0  0
 12100  1  0  0  0
 13 14  1  0  0  0
 13 31  1  0  0  0
 14 15  2  0  0  0
 14101  1  0  0  0
 15102  1  0  0  0
 16 17  2  0  0  0
 16 21  1  0  0  0
 16 31  1  0  0  0
 17 18  1  0  0  0
 17103  1  0  0  0
 18 19  2  0  0  0
 18104  1  0  0  0
 19 20  1  0  0  0
 19 24  1  0  0  0
 20 21  2  0  0  0
 20105  1  0  0  0
 21 23  1  0  0  0
 22 28  1  0  0  0
 22 32  2  0  0  0
 26 27  1  0  0  0
 28106  1  0  0  0
 28107  1  0  0  0
 29108  1  0  0  0
 29109  1  0  0  0
 33 34  1  0  0  0
 33 66  1  0  0  0
 33 70  2  0  0  0
 34 36  1  0  0  0
 34 59  1  0  0  0
 34110  1  0  0  0
 35 44  2  0  0  0
 35 45  1  0  0  0
 35 68  1  0  0  0
 36 56  1  0  0  0
 36111  1  0  0  0
 37 39  1  0  0  0
 37 47  1  0  0  0
 37 66  1  0  0  0
 37112  1  0  0  0
 38 43  2  0  0  0
 38 46  1  0  0  0
 38 47  1  0  0  0
 39 64  1  0  0  0
 39 67  2  0  0  0
 40 52  1  0  0  0
 40 53  2  0  0  0
 40 58  1  0  0  0
 41113  1  0  0  0
 41114  1  0  0  0
 41115  1  0  0  0
 41 48  1  0  0  0
 42 43  1  0  0  0
 42 66  1  0  0  0
 42116  1  0  0  0
 42117  1  0  0  0
 43 44  1  0  0  0
 44118  1  0  0  0
 45 46  2  0  0  0
 45119  1  0  0  0
 46120  1  0  0  0
 47121  1  0  0  0
 47122  1  0  0  0
 48 56  1  0  0  0
 48 65  1  0  0  0
 48123  1  0  0  0
 49 50  1  0  0  0
 49 53  1  0  0  0
 49 64  1  0  0  0
 49124  1  0  0  0
 50 51  1  0  0  0
 50125  1  0  0  0
 50126  1  0  0  0
 51 52  1  0  0  0
 51127  1  0  0  0
 51128  1  0  0  0
 52129  1  0  0  0
 52130  1  0  0  0
 53 54  1  0  0  0
 54 55  2  0  0  0
 54131  1  0  0  0
 55 57  1  0  0  0
 55132  1  0  0  0
 56 69  2  0  0  0
 57 58  2  0  0  0
 57133  1  0  0  0
 58134  1  0  0  0
 59 60  1  0  0  0
 59 61  1  0  0  0
 59 62  1  0  0  0
 60135  1  0  0  0
 60136  1  0  0  0
 60137  1  0  0  0
 61138  1  0  0  0
 61139  1  0  0  0
 61140  1  0  0  0
 62141  1  0  0  0
 62142  1  0  0  0
 62143  1  0  0  0
 63 65  1  0  0  0
 63144  1  0  0  0
 63145  1  0  0  0
 63146  1  0  0  0
 64147  1  0  0  0
 65148  1  0  0  0
 68 80  1  0  0  0
 71 72  2  0  0  0
 71 73  1  0  0  0
 71149  1  0  0  0
 72 87  1  0  0  0
 72150  1  0  0  0
 73 74  2  0  0  0
 73 88  1  0  0  0
 74 81  1  0  0  0
 74 87  1  0  0  0
 75 77  1  0  0  0
 75151  1  0  0  0
 75152  1  0  0  0
 75 79  1  0  0  0
 76 78  1  0  0  0
 76 79  1  0  0  0
 76153  1  0  0  0
 76154  1  0  0  0
 77 80  1  0  0  0
 77155  1  0  0  0
 77156  1  0  0  0
 78 80  1  0  0  0
 78157  1  0  0  0
 78158  1  0  0  0
 79 86  1  0  0  0
 79159  1  0  0  0
 80160  1  0  0  0
 81161  1  0  0  0
 81162  1  0  0  0
 81163  1  0  0  0
 82164  1  0  0  0
 82165  1  0  0  0
 82166  1  0  0  0
 82 86  1  0  0  0
 83 84  1  0  0  0
 83 85  1  0  0  0
 83167  1  0  0  0
 83168  1  0  0  0
 84 88  1  0  0  0
 84169  1  0  0  0
 84170  1  0  0  0
 85 89  1  0  0  0
 85171  1  0  0  0
 85172  1  0  0  0
 86 87  1  0  0  0
 86173  1  0  0  0
 88174  1  0  0  0
 89175  1  0  0  0
M  ISO  4   1 100  68 101  80 101  89 100
M  END
> <chiral flag>
0

> <version>
0

> <s_m_source_file>
/data/baiqing/PycharmProjects/Reinvent-master-3.2/result/LINK_invent/BTK/process_docking_weight1_custom_sum_contain_oxygen_bond_distance_aromatic_linkinvent_7_9_3/rearranged_h_0136.sdf

> <i_m_source_file_index>
92

> <r_mmod_Potential_Energy-OPLS-2005>
-66.3823089599609

> <r_mmod_Stretch_Energy-OPLS-2005>
34.517147064209

> <r_mmod_Bend_Energy-OPLS-2005>
104.257835388184

> <r_mmod_Torsional_Energy-OPLS-2005>
271.904205322266

> <r_mmod_Improper_Torsional_Energy-OPLS-2005>
9.90642833709717

> <r_mmod_Van_der_Waal_Energy-OPLS-2005>
150.121505737305

> <r_mmod_Electrostatic_Energy-OPLS-2005>
-440.85986328125

> <r_mmod_Solvation_Energy-OPLS-2005>
-207.686889648438

> <b_mmod_Minimization_Converged-OPLS-2005>
0

> <r_mmod_RMS_Derivative-OPLS-2005>
2.55199480056763

$$$$
95
                    3D
 Structure written by MMmdl.
162171  0  0  1  0            999 V2000
  -30.6614  -14.6866   20.4393 C   0  0  0  0  0  0
  -30.4378  -12.4168   19.4589 C   0  0  0  0  0  0
  -29.5037  -12.4601   18.2300 C   0  0  0  0  0  0
  -28.0333  -12.2921   18.6551 C   0  0  0  0  0  0
  -27.6413  -13.2148   19.8404 C   0  0  2  0  0  0
  -28.6916  -13.1709   20.9703 C   0  0  0  0  0  0
  -25.2564  -13.8214   20.5690 C   0  0  0  0  0  0
  -24.1809  -13.0489   20.9170 C   0  0  0  0  0  0
  -24.6364  -11.6957   20.8715 C   0  0  0  0  0  0
  -23.9040  -10.4354   21.0379 C   0  0  0  0  0  0
  -24.3625   -9.4278   21.9143 C   0  0  0  0  0  0
  -23.6328   -8.2309   22.0718 C   0  0  0  0  0  0
  -22.4309   -8.0330   21.3518 C   0  0  0  0  0  0
  -21.9925   -9.0291   20.4616 C   0  0  0  0  0  0
  -22.7238  -10.2177   20.3021 C   0  0  0  0  0  0
  -21.6908   -6.0778   22.5274 C   0  0  0  0  0  0
  -21.4053   -6.5660   23.8211 C   0  0  0  0  0  0
  -21.3611   -5.6790   24.9145 C   0  0  0  0  0  0
  -21.6019   -4.3058   24.7185 C   0  0  0  0  0  0
  -21.8842   -3.8185   23.4306 C   0  0  0  0  0  0
  -21.9232   -4.7014   22.3377 C   0  0  0  0  0  0
  -22.7840  -13.5262   21.1881 C   0  0  0  0  0  0
  -22.1705   -4.2220   21.0951 F   0  0  0  0  0  0
  -21.5586   -3.4516   25.7679 F   0  0  0  0  0  0
  -29.9975  -13.4858   20.3770 N   0  0  0  0  0  0
  -26.2959  -12.9348   20.3284 N   0  0  0  0  0  0
  -25.9292  -11.6519   20.5749 N   0  0  0  0  0  0
  -22.0511  -12.8192   22.0399 N   0  0  0  0  0  0
  -25.4352  -15.1931   20.4148 N   0  0  0  0  0  0
  -31.8717  -14.7376   20.2094 O   0  0  0  0  0  0
  -21.6674   -6.8931   21.4242 O   0  0  0  0  0  0
  -22.3492  -14.5572   20.6775 O   0  0  0  0  0  0
  -24.6278  -31.8588   23.1982 C   0  0  0  0  0  0
  -25.9110  -32.4783   23.8337 C   0  0  1  0  0  0
  -27.2416  -27.3210   20.1227 C   0  0  0  0  0  0
  -25.5921  -33.8578   24.2268 N   0  0  0  0  0  0
  -23.4238  -30.4786   21.5415 C   0  0  2  0  0  0
  -24.8758  -28.9212   20.1223 C   0  0  0  0  0  0
  -22.7477  -29.4641   22.4939 C   0  0  0  0  0  0
  -18.0284  -28.1384   22.8522 C   0  0  0  0  0  0
  -24.1504  -36.7310   23.2633 C   0  0  0  0  0  0
  -25.9633  -30.7922   21.3679 C   0  0  0  0  0  0
  -26.0443  -29.4136   20.7195 C   0  0  0  0  0  0
  -27.2334  -28.6234   20.7114 C   0  0  0  0  0  0
  -26.0519  -26.8719   19.5143 C   0  0  0  0  0  0
  -24.8786  -27.6526   19.5168 C   0  0  0  0  0  0
  -23.6432  -29.8033   20.1616 C   0  0  0  0  0  0
  -25.4128  -36.3088   24.0326 C   0  0  1  0  0  0
  -20.5887  -28.3716   23.1302 C   0  0  2  0  0  0
  -20.6793  -26.9454   22.5408 C   0  0  0  0  0  0
  -19.5753  -26.6460   21.5220 C   0  0  0  0  0  0
  -18.1949  -26.7924   22.1658 C   0  0  0  0  0  0
  -19.1534  -28.8867   23.2902 C   0  0  0  0  0  0
  -18.9456  -30.1457   23.8914 C   0  0  0  0  0  0
  -17.6440  -30.6590   24.0566 C   0  0  0  0  0  0
  -25.9062  -34.9455   23.5106 C   0  0  0  0  0  0
  -16.5335  -29.9097   23.6341 C   0  0  0  0  0  0
  -16.7268  -28.6499   23.0398 C   0  0  0  0  0  0
  -26.4486  -31.6590   25.0704 C   0  0  0  0  0  0
  -25.3721  -31.3744   26.1431 C   0  0  0  0  0  0
  -27.0323  -30.3020   24.6146 C   0  0  0  0  0  0
  -27.6044  -32.4318   25.7485 C   0  0  0  0  0  0
  -27.5590  -37.1809   24.8460 C   0  0  0  0  0  0
  -21.4190  -29.3084   22.3717 N   0  0  0  0  0  0
  -26.4301  -37.3780   23.9398 N   0  0  0  0  0  0
  -24.6908  -31.0599   22.0944 N   0  0  0  0  0  0
  -23.4206  -28.8184   23.3029 O   0  0  0  0  0  0
  -28.3454  -26.4597   20.0976 O   0  0  0  0  0  0
  -26.5623  -34.8919   22.4670 O   0  0  0  0  0  0
  -23.5447  -32.1373   23.7301 O   0  0  0  0  0  0
  -29.8169  -23.2041   20.5179 C   0  0  0  0  0  0
  -29.9739  -21.7735   20.5108 C   0  0  0  0  0  0
  -27.4447  -22.9474   20.7621 C   0  0  0  0  0  0
  -28.5470  -23.8354   20.6832 C   0  0  0  0  0  0
  -27.5938  -21.5293   20.7794 C   0  0  0  0  0  0
  -28.8673  -20.8963   20.6997 C   0  0  0  0  0  0
  -29.1610  -17.8233   19.0850 C   0  0  0  0  0  0
  -29.6770  -16.3746   18.9927 C   0  0  0  0  0  0
  -29.7826  -18.4047   20.3467 C   0  0  1  0  0  0
  -29.9357  -17.0844   21.2194 C   0  0  2  0  0  0
  -26.3439  -20.6817   20.9432 C   0  0  0  0  0  0
  -31.1588  -17.1852   22.1480 C   0  0  0  0  0  0
  -28.3394  -25.3553   21.0733 C   0  0  0  0  0  0
  -29.9056  -15.8467   20.3508 N   0  0  0  0  0  0
  -28.9380  -19.4797   20.9465 N   0  0  0  0  0  0
  -31.4755  -12.5384   19.1435 H   0  0  0  0  0  0
  -30.3846  -11.4466   19.9575 H   0  0  0  0  0  0
  -29.7794  -11.6715   17.5289 H   0  0  0  0  0  0
  -29.6247  -13.4063   17.7013 H   0  0  0  0  0  0
  -27.8978  -11.2479   18.9423 H   0  0  0  0  0  0
  -27.3701  -12.4616   17.8067 H   0  0  0  0  0  0
  -27.6225  -14.2265   19.4394 H   0  0  0  0  0  0
  -28.4424  -13.8924   21.7489 H   0  0  0  0  0  0
  -28.7099  -12.1889   21.4451 H   0  0  0  0  0  0
  -25.2781   -9.5827   22.4662 H   0  0  0  0  0  0
  -24.0072   -7.4737   22.7430 H   0  0  0  0  0  0
  -21.0864   -8.8823   19.8903 H   0  0  0  0  0  0
  -22.3715  -10.9692   19.6119 H   0  0  0  0  0  0
  -21.2078   -7.6174   23.9719 H   0  0  0  0  0  0
  -21.1367   -6.0514   25.9027 H   0  0  0  0  0  0
  -22.0661   -2.7655   23.2800 H   0  0  0  0  0  0
  -22.4195  -11.9865   22.4759 H   0  0  0  0  0  0
  -21.1100  -13.1187   22.2514 H   0  0  0  0  0  0
  -24.6830  -15.8641   20.5140 H   0  0  0  0  0  0
  -26.3120  -15.6164   20.1409 H   0  0  0  0  0  0
  -26.7199  -32.5462   23.1106 H   0  0  0  0  0  0
  -25.0053  -33.9725   25.0405 H   0  0  0  0  0  0
  -22.7191  -31.2983   21.3885 H   0  0  0  0  0  0
  -23.3749  -35.9655   23.3292 H   0  0  0  0  0  0
  -24.3588  -36.8930   22.2043 H   0  0  0  0  0  0
  -23.7262  -37.6519   23.6660 H   0  0  0  0  0  0
  -26.0827  -31.5483   20.5910 H   0  0  0  0  0  0
  -26.8481  -30.8539   21.9911 H   0  0  0  0  0  0
  -28.1344  -28.9954   21.1789 H   0  0  0  0  0  0
  -26.0298  -25.8944   19.0532 H   0  0  0  0  0  0
  -23.9799  -27.2621   19.0591 H   0  0  0  0  0  0
  -23.7693  -30.5715   19.3973 H   0  0  0  0  0  0
  -22.7657  -29.2295   19.8598 H   0  0  0  0  0  0
  -25.1305  -36.1943   25.0815 H   0  0  0  0  0  0
  -21.0005  -28.3295   24.1420 H   0  0  0  0  0  0
  -20.5703  -26.2338   23.3603 H   0  0  0  0  0  0
  -21.6669  -26.7493   22.1177 H   0  0  0  0  0  0
  -19.6935  -25.6400   21.1200 H   0  0  0  0  0  0
  -19.6660  -27.3316   20.6794 H   0  0  0  0  0  0
  -17.4222  -26.6699   21.4071 H   0  0  0  0  0  0
  -18.0383  -26.0039   22.9060 H   0  0  0  0  0  0
  -19.7944  -30.7280   24.2290 H   0  0  0  0  0  0
  -17.5008  -31.6284   24.5135 H   0  0  0  0  0  0
  -15.5350  -30.3001   23.7638 H   0  0  0  0  0  0
  -15.8663  -28.0802   22.7137 H   0  0  0  0  0  0
  -24.5879  -30.7121   25.7757 H   0  0  0  0  0  0
  -24.8937  -32.2930   26.4853 H   0  0  0  0  0  0
  -25.8029  -30.8912   27.0211 H   0  0  0  0  0  0
  -26.2904  -29.6767   24.1185 H   0  0  0  0  0  0
  -27.4048  -29.7273   25.4632 H   0  0  0  0  0  0
  -27.8751  -30.4297   23.9346 H   0  0  0  0  0  0
  -27.2653  -33.3597   26.2100 H   0  0  0  0  0  0
  -28.3848  -32.6919   25.0319 H   0  0  0  0  0  0
  -28.0740  -31.8427   26.5369 H   0  0  0  0  0  0
  -28.2612  -38.0105   24.7507 H   0  0  0  0  0  0
  -28.1087  -36.2635   24.6300 H   0  0  0  0  0  0
  -27.2306  -37.1475   25.8862 H   0  0  0  0  0  0
  -20.9367  -29.8830   21.6938 H   0  0  0  0  0  0
  -26.0191  -38.2861   24.1377 H   0  0  0  0  0  0
  -30.7023  -23.8253   20.4822 H   0  0  0  0  0  0
  -30.9727  -21.3617   20.4485 H   0  0  0  0  0  0
  -26.4612  -23.3710   20.9045 H   0  0  0  0  0  0
  -28.0738  -17.7971   19.1682 H   0  0  0  0  0  0
  -29.4039  -18.4119   18.1984 H   0  0  0  0  0  0
  -28.9862  -15.7431   18.4363 H   0  0  0  0  0  0
  -30.6191  -16.3715   18.4407 H   0  0  0  0  0  0
  -30.7662  -18.8088   20.0964 H   0  0  0  0  0  0
  -29.0563  -16.9889   21.8571 H   0  0  0  0  0  0
  -26.3339  -20.2050   21.9238 H   0  0  0  0  0  0
  -26.3057  -19.9053   20.1786 H   0  0  0  0  0  0
  -25.4395  -21.2831   20.8551 H   0  0  0  0  0  0
  -32.0858  -17.2618   21.5776 H   0  0  0  0  0  0
  -31.2372  -16.3278   22.8169 H   0  0  0  0  0  0
  -31.0862  -18.0751   22.7725 H   0  0  0  0  0  0
  -29.1169  -25.5945   21.7972 H   0  0  0  0  0  0
  -27.4141  -25.4060   21.6458 H   0  0  0  0  0  0
  -28.0647  -19.1085   21.3054 H   0  0  0  0  0  0
  1 25  1  0  0  0
  1 30  2  0  0  0
  1 84  1  0  0  0
  2  3  1  0  0  0
  2 25  1  0  0  0
  2 86  1  0  0  0
  2 87  1  0  0  0
  3  4  1  0  0  0
  3 88  1  0  0  0
  3 89  1  0  0  0
  4  5  1  0  0  0
  4 90  1  0  0  0
  4 91  1  0  0  0
  5  6  1  0  0  0
  5 26  1  0  0  0
  5 92  1  0  0  0
  6 25  1  0  0  0
  6 93  1  0  0  0
  6 94  1  0  0  0
  7  8  2  0  0  0
  7 26  1  0  0  0
  7 29  1  0  0  0
  8  9  1  0  0  0
  8 22  1  0  0  0
  9 10  1  0  0  0
  9 27  2  0  0  0
 10 11  2  0  0  0
 10 15  1  0  0  0
 11 12  1  0  0  0
 11 95  1  0  0  0
 12 13  2  0  0  0
 12 96  1  0  0  0
 13 14  1  0  0  0
 13 31  1  0  0  0
 14 15  2  0  0  0
 14 97  1  0  0  0
 15 98  1  0  0  0
 16 17  2  0  0  0
 16 21  1  0  0  0
 16 31  1  0  0  0
 17 18  1  0  0  0
 17 99  1  0  0  0
 18 19  2  0  0  0
 18100  1  0  0  0
 19 20  1  0  0  0
 19 24  1  0  0  0
 20 21  2  0  0  0
 20101  1  0  0  0
 21 23  1  0  0  0
 22 28  1  0  0  0
 22 32  2  0  0  0
 26 27  1  0  0  0
 28102  1  0  0  0
 28103  1  0  0  0
 29104  1  0  0  0
 29105  1  0  0  0
 33 34  1  0  0  0
 33 66  1  0  0  0
 33 70  2  0  0  0
 34 36  1  0  0  0
 34 59  1  0  0  0
 34106  1  0  0  0
 35 44  2  0  0  0
 35 45  1  0  0  0
 35 68  1  0  0  0
 36 56  1  0  0  0
 36107  1  0  0  0
 37 39  1  0  0  0
 37 47  1  0  0  0
 37 66  1  0  0  0
 37108  1  0  0  0
 38 43  2  0  0  0
 38 46  1  0  0  0
 38 47  1  0  0  0
 39 64  1  0  0  0
 39 67  2  0  0  0
 40 52  1  0  0  0
 40 53  2  0  0  0
 40 58  1  0  0  0
 41109  1  0  0  0
 41110  1  0  0  0
 41111  1  0  0  0
 41 48  1  0  0  0
 42 43  1  0  0  0
 42 66  1  0  0  0
 42112  1  0  0  0
 42113  1  0  0  0
 43 44  1  0  0  0
 44114  1  0  0  0
 45 46  2  0  0  0
 45115  1  0  0  0
 46116  1  0  0  0
 47117  1  0  0  0
 47118  1  0  0  0
 48 56  1  0  0  0
 48 65  1  0  0  0
 48119  1  0  0  0
 49 50  1  0  0  0
 49 53  1  0  0  0
 49 64  1  0  0  0
 49120  1  0  0  0
 50 51  1  0  0  0
 50121  1  0  0  0
 50122  1  0  0  0
 51 52  1  0  0  0
 51123  1  0  0  0
 51124  1  0  0  0
 52125  1  0  0  0
 52126  1  0  0  0
 53 54  1  0  0  0
 54 55  2  0  0  0
 54127  1  0  0  0
 55 57  1  0  0  0
 55128  1  0  0  0
 56 69  2  0  0  0
 57 58  2  0  0  0
 57129  1  0  0  0
 58130  1  0  0  0
 59 60  1  0  0  0
 59 61  1  0  0  0
 59 62  1  0  0  0
 60131  1  0  0  0
 60132  1  0  0  0
 60133  1  0  0  0
 61134  1  0  0  0
 61135  1  0  0  0
 61136  1  0  0  0
 62137  1  0  0  0
 62138  1  0  0  0
 62139  1  0  0  0
 63 65  1  0  0  0
 63140  1  0  0  0
 63141  1  0  0  0
 63142  1  0  0  0
 64143  1  0  0  0
 65144  1  0  0  0
 68 83  1  0  0  0
 71 72  2  0  0  0
 71 74  1  0  0  0
 71145  1  0  0  0
 72 76  1  0  0  0
 72146  1  0  0  0
 73 74  2  0  0  0
 73 75  1  0  0  0
 73147  1  0  0  0
 74 83  1  0  0  0
 75 76  2  0  0  0
 75 81  1  0  0  0
 76 85  1  0  0  0
 77 78  1  0  0  0
 77 79  1  0  0  0
 77148  1  0  0  0
 77149  1  0  0  0
 78 84  1  0  0  0
 78150  1  0  0  0
 78151  1  0  0  0
 79 80  1  0  0  0
 79 85  1  0  0  0
 79152  1  0  0  0
 80 82  1  0  0  0
 80 84  1  0  0  0
 80153  1  0  0  0
 81154  1  0  0  0
 81155  1  0  0  0
 81156  1  0  0  0
 82157  1  0  0  0
 82158  1  0  0  0
 82159  1  0  0  0
 83160  1  0  0  0
 83161  1  0  0  0
 85162  1  0  0  0
M  ISO  4   1 100  68 101  83 101  84 100
M  END
> <chiral flag>
0

> <version>
0

> <s_m_source_file>
/data/baiqing/PycharmProjects/Reinvent-master-3.2/result/LINK_invent/BTK/process_docking_weight1_custom_sum_contain_oxygen_bond_distance_aromatic_linkinvent_7_9_3/rearranged_h_0136.sdf

> <i_m_source_file_index>
93

> <r_mmod_Potential_Energy-OPLS-2005>
323.229431152344

> <r_mmod_Stretch_Energy-OPLS-2005>
82.3602142333984

> <r_mmod_Bend_Energy-OPLS-2005>
188.894226074219

> <r_mmod_Torsional_Energy-OPLS-2005>
400.986938476562

> <r_mmod_Improper_Torsional_Energy-OPLS-2005>
18.9632339477539

> <r_mmod_Van_der_Waal_Energy-OPLS-2005>
127.73844909668

> <r_mmod_Electrostatic_Energy-OPLS-2005>
-367.998352050781

> <r_mmod_Solvation_Energy-OPLS-2005>
-191.49072265625

> <b_mmod_Minimization_Converged-OPLS-2005>
0

> <r_mmod_RMS_Derivative-OPLS-2005>
4.45213842391968

$$$$
96
                    3D
 Structure written by MMmdl.
159167  0  0  1  0            999 V2000
  -30.7271  -14.4302   20.6323 C   0  0  0  0  0  0
  -30.4242  -12.3064   19.4137 C   0  0  0  0  0  0
  -29.4921  -12.5109   18.2043 C   0  0  0  0  0  0
  -28.0138  -12.3694   18.6188 C   0  0  0  0  0  0
  -27.6627  -13.2041   19.8792 C   0  0  2  0  0  0
  -28.7023  -12.9691   20.9988 C   0  0  0  0  0  0
  -25.2585  -13.8160   20.5684 C   0  0  0  0  0  0
  -24.1832  -13.0438   20.9174 C   0  0  0  0  0  0
  -24.6373  -11.6898   20.8726 C   0  0  0  0  0  0
  -23.9040  -10.4283   21.0400 C   0  0  0  0  0  0
  -24.3604   -9.4208   21.9175 C   0  0  0  0  0  0
  -23.6278   -8.2251   22.0751 C   0  0  0  0  0  0
  -22.4257   -8.0287   21.3550 C   0  0  0  0  0  0
  -21.9894   -9.0253   20.4651 C   0  0  0  0  0  0
  -22.7218  -10.2129   20.3051 C   0  0  0  0  0  0
  -21.6845   -6.0744   22.5278 C   0  0  0  0  0  0
  -21.4009   -6.5636   23.8214 C   0  0  0  0  0  0
  -21.3660   -5.6792   24.9172 C   0  0  0  0  0  0
  -21.6040   -4.3055   24.7221 C   0  0  0  0  0  0
  -21.8814   -3.8152   23.4343 C   0  0  0  0  0  0
  -21.9190   -4.6976   22.3405 C   0  0  0  0  0  0
  -22.7846  -13.5247   21.1812 C   0  0  0  0  0  0
  -22.1649   -4.2166   21.0981 F   0  0  0  0  0  0
  -21.5619   -3.4532   25.7729 F   0  0  0  0  0  0
  -30.0370  -13.2730   20.4533 N   0  0  0  0  0  0
  -26.3022  -12.9326   20.3389 N   0  0  0  0  0  0
  -25.9301  -11.6487   20.5772 N   0  0  0  0  0  0
  -22.0479  -12.8266   22.0385 N   0  0  0  0  0  0
  -25.4296  -15.1880   20.4067 N   0  0  0  0  0  0
  -31.8139  -14.6563   20.0913 O   0  0  0  0  0  0
  -21.6626   -6.8884   21.4242 O   0  0  0  0  0  0
  -22.3544  -14.5543   20.6626 O   0  0  0  0  0  0
  -24.6134  -31.8696   23.2109 C   0  0  0  0  0  0
  -25.9031  -32.4827   23.8395 C   0  0  1  0  0  0
  -27.2358  -27.4457   20.0710 C   0  0  0  0  0  0
  -25.5910  -33.8625   24.2333 N   0  0  0  0  0  0
  -23.3986  -30.4938   21.5516 C   0  0  2  0  0  0
  -24.8417  -28.9600   20.1132 C   0  0  0  0  0  0
  -22.7395  -29.4669   22.4990 C   0  0  0  0  0  0
  -18.0270  -28.1385   22.8494 C   0  0  0  0  0  0
  -24.1489  -36.7306   23.2639 C   0  0  0  0  0  0
  -25.9263  -30.8356   21.3616 C   0  0  0  0  0  0
  -26.0014  -29.4710   20.7076 C   0  0  0  0  0  0
  -27.1946  -28.7173   20.6893 C   0  0  0  0  0  0
  -26.0472  -26.9352   19.4984 C   0  0  0  0  0  0
  -24.8578  -27.6893   19.5141 C   0  0  0  0  0  0
  -23.6056  -29.8279   20.1649 C   0  0  0  0  0  0
  -25.4112  -36.3107   24.0339 C   0  0  1  0  0  0
  -20.5856  -28.3668   23.1328 C   0  0  2  0  0  0
  -20.6758  -26.9409   22.5416 C   0  0  0  0  0  0
  -19.5734  -26.6395   21.5214 C   0  0  0  0  0  0
  -18.1914  -26.7930   22.1627 C   0  0  0  0  0  0
  -19.1517  -28.8844   23.2909 C   0  0  0  0  0  0
  -18.9456  -30.1448   23.8919 C   0  0  0  0  0  0
  -17.6457  -30.6595   24.0570 C   0  0  0  0  0  0
  -25.9037  -34.9475   23.5125 C   0  0  0  0  0  0
  -16.5349  -29.9100   23.6331 C   0  0  0  0  0  0
  -16.7260  -28.6517   23.0347 C   0  0  0  0  0  0
  -26.4459  -31.6600   25.0721 C   0  0  0  0  0  0
  -25.3738  -31.3710   26.1489 C   0  0  0  0  0  0
  -27.0284  -30.3049   24.6087 C   0  0  0  0  0  0
  -27.6040  -32.4318   25.7482 C   0  0  0  0  0  0
  -27.5572  -37.1819   24.8478 C   0  0  0  0  0  0
  -21.4126  -29.3044   22.3744 N   0  0  0  0  0  0
  -26.4298  -37.3787   23.9400 N   0  0  0  0  0  0
  -24.6648  -31.0808   22.0999 N   0  0  0  0  0  0
  -23.4179  -28.8215   23.3025 O   0  0  0  0  0  0
  -28.4347  -26.7620   20.0932 O   0  0  0  0  0  0
  -26.5591  -34.8923   22.4683 O   0  0  0  0  0  0
  -23.5332  -32.1453   23.7508 O   0  0  0  0  0  0
  -27.3538  -20.1170   21.0905 C   0  0  0  0  0  0
  -29.7658  -20.2312   20.8517 C   0  0  0  0  0  0
  -27.2642  -21.5001   20.8334 C   0  0  0  0  0  0
  -29.6715  -21.6122   20.5690 C   0  0  0  0  0  0
  -28.6051  -19.4701   21.1168 C   0  0  0  0  0  0
  -28.4154  -22.2717   20.5743 C   0  0  0  0  0  0
  -30.2342  -24.8546   21.0511 C   0  0  0  0  0  0
  -29.6569  -17.6134   22.3368 C   0  0  0  0  0  0
  -30.6864  -16.6789   21.6791 C   0  0  0  0  0  0
  -28.7131  -25.6943   19.1758 C   0  0  0  0  0  0
  -29.2950  -24.4522   19.8973 C   0  0  2  0  0  0
  -28.6519  -18.0930   21.3898 N   0  0  0  0  0  0
  -30.1262  -15.3576   21.3937 N   0  0  0  0  0  0
  -28.2185  -23.6239   20.3477 O   0  0  0  0  0  0
  -31.4659  -12.4194   19.1061 H   0  0  0  0  0  0
  -30.3363  -11.2896   19.8008 H   0  0  0  0  0  0
  -29.7323  -11.7895   17.4229 H   0  0  0  0  0  0
  -29.6636  -13.4984   17.7720 H   0  0  0  0  0  0
  -27.8224  -11.3134   18.8131 H   0  0  0  0  0  0
  -27.3594  -12.6460   17.7908 H   0  0  0  0  0  0
  -27.7131  -14.2540   19.5918 H   0  0  0  0  0  0
  -28.6753  -11.9278   21.3260 H   0  0  0  0  0  0
  -28.4538  -13.5540   21.8850 H   0  0  0  0  0  0
  -25.2755   -9.5686   22.4747 H   0  0  0  0  0  0
  -23.9991   -7.4639   22.7460 H   0  0  0  0  0  0
  -21.0829   -8.8768   19.8961 H   0  0  0  0  0  0
  -22.3671  -10.9665   19.6161 H   0  0  0  0  0  0
  -21.1996   -7.6143   23.9726 H   0  0  0  0  0  0
  -21.1480   -6.0517   25.9074 H   0  0  0  0  0  0
  -22.0596   -2.7620   23.2831 H   0  0  0  0  0  0
  -22.4083  -11.9969   22.4866 H   0  0  0  0  0  0
  -21.1091  -13.1311   22.2549 H   0  0  0  0  0  0
  -24.6595  -15.8413   20.5029 H   0  0  0  0  0  0
  -26.2756  -15.6206   20.0556 H   0  0  0  0  0  0
  -26.7102  -32.5538   23.1155 H   0  0  0  0  0  0
  -25.0091  -33.9796   25.0501 H   0  0  0  0  0  0
  -22.6882  -31.3117   21.4150 H   0  0  0  0  0  0
  -23.3737  -35.9657   23.3357 H   0  0  0  0  0  0
  -24.3567  -36.8860   22.2042 H   0  0  0  0  0  0
  -23.7273  -37.6543   23.6614 H   0  0  0  0  0  0
  -26.0394  -31.6033   20.5949 H   0  0  0  0  0  0
  -26.8133  -30.8868   21.9802 H   0  0  0  0  0  0
  -28.0913  -29.1139   21.1446 H   0  0  0  0  0  0
  -25.9993  -25.9530   19.0548 H   0  0  0  0  0  0
  -23.9599  -27.2823   19.0698 H   0  0  0  0  0  0
  -23.7154  -30.6064   19.4089 H   0  0  0  0  0  0
  -22.7282  -29.2512   19.8668 H   0  0  0  0  0  0
  -25.1290  -36.1970   25.0834 H   0  0  0  0  0  0
  -20.9942  -28.3221   24.1447 H   0  0  0  0  0  0
  -20.5665  -26.2274   23.3599 H   0  0  0  0  0  0
  -21.6631  -26.7456   22.1203 H   0  0  0  0  0  0
  -19.6896  -25.6311   21.1233 H   0  0  0  0  0  0
  -19.6671  -27.3219   20.6755 H   0  0  0  0  0  0
  -17.4182  -26.6688   21.4031 H   0  0  0  0  0  0
  -18.0313  -26.0070   22.9022 H   0  0  0  0  0  0
  -19.7932  -30.7258   24.2290 H   0  0  0  0  0  0
  -17.5020  -31.6272   24.5174 H   0  0  0  0  0  0
  -15.5351  -30.3012   23.7648 H   0  0  0  0  0  0
  -15.8656  -28.0850   22.7038 H   0  0  0  0  0  0
  -24.5933  -30.7018   25.7849 H   0  0  0  0  0  0
  -24.8903  -32.2868   26.4910 H   0  0  0  0  0  0
  -25.8115  -30.8926   27.0264 H   0  0  0  0  0  0
  -26.2823  -29.6832   24.1137 H   0  0  0  0  0  0
  -27.4061  -29.7259   25.4518 H   0  0  0  0  0  0
  -27.8642  -30.4371   23.9218 H   0  0  0  0  0  0
  -27.2674  -33.3629   26.2051 H   0  0  0  0  0  0
  -28.3858  -32.6864   25.0313 H   0  0  0  0  0  0
  -28.0703  -31.8454   26.5416 H   0  0  0  0  0  0
  -28.2630  -38.0067   24.7463 H   0  0  0  0  0  0
  -28.1020  -36.2608   24.6381 H   0  0  0  0  0  0
  -27.2284  -37.1562   25.8877 H   0  0  0  0  0  0
  -20.9282  -29.8781   21.6985 H   0  0  0  0  0  0
  -26.0191  -38.2870   24.1369 H   0  0  0  0  0  0
  -26.4443  -19.5636   21.2783 H   0  0  0  0  0  0
  -30.7406  -19.7643   20.8498 H   0  0  0  0  0  0
  -26.2911  -21.9706   20.8304 H   0  0  0  0  0  0
  -30.5868  -22.1396   20.3558 H   0  0  0  0  0  0
  -30.9824  -25.5635   20.6981 H   0  0  0  0  0  0
  -30.7673  -24.0092   21.4807 H   0  0  0  0  0  0
  -29.6826  -25.3336   21.8602 H   0  0  0  0  0  0
  -30.1784  -18.4548   22.7962 H   0  0  0  0  0  0
  -29.1560  -17.1030   23.1614 H   0  0  0  0  0  0
  -31.5228  -16.5372   22.3657 H   0  0  0  0  0  0
  -31.1011  -17.1355   20.7786 H   0  0  0  0  0  0
  -27.9023  -25.4060   18.5119 H   0  0  0  0  0  0
  -29.4813  -26.0871   18.5095 H   0  0  0  0  0  0
  -29.8582  -23.9009   19.1425 H   0  0  0  0  0  0
  -27.7410  -17.6562   21.5023 H   0  0  0  0  0  0
  -29.2218  -15.1387   21.7810 H   0  0  0  0  0  0
  1 25  1  0  0  0
  1 30  2  0  0  0
  1 83  1  0  0  0
  2  3  1  0  0  0
  2 25  1  0  0  0
  2 85  1  0  0  0
  2 86  1  0  0  0
  3  4  1  0  0  0
  3 87  1  0  0  0
  3 88  1  0  0  0
  4  5  1  0  0  0
  4 89  1  0  0  0
  4 90  1  0  0  0
  5  6  1  0  0  0
  5 26  1  0  0  0
  5 91  1  0  0  0
  6 25  1  0  0  0
  6 92  1  0  0  0
  6 93  1  0  0  0
  7  8  2  0  0  0
  7 26  1  0  0  0
  7 29  1  0  0  0
  8  9  1  0  0  0
  8 22  1  0  0  0
  9 10  1  0  0  0
  9 27  2  0  0  0
 10 11  2  0  0  0
 10 15  1  0  0  0
 11 12  1  0  0  0
 11 94  1  0  0  0
 12 13  2  0  0  0
 12 95  1  0  0  0
 13 14  1  0  0  0
 13 31  1  0  0  0
 14 15  2  0  0  0
 14 96  1  0  0  0
 15 97  1  0  0  0
 16 17  2  0  0  0
 16 21  1  0  0  0
 16 31  1  0  0  0
 17 18  1  0  0  0
 17 98  1  0  0  0
 18 19  2  0  0  0
 18 99  1  0  0  0
 19 20  1  0  0  0
 19 24  1  0  0  0
 20 21  2  0  0  0
 20100  1  0  0  0
 21 23  1  0  0  0
 22 28  1  0  0  0
 22 32  2  0  0  0
 26 27  1  0  0  0
 28101  1  0  0  0
 28102  1  0  0  0
 29103  1  0  0  0
 29104  1  0  0  0
 33 34  1  0  0  0
 33 66  1  0  0  0
 33 70  2  0  0  0
 34 36  1  0  0  0
 34 59  1  0  0  0
 34105  1  0  0  0
 35 44  2  0  0  0
 35 45  1  0  0  0
 35 68  1  0  0  0
 36 56  1  0  0  0
 36106  1  0  0  0
 37 39  1  0  0  0
 37 47  1  0  0  0
 37 66  1  0  0  0
 37107  1  0  0  0
 38 43  2  0  0  0
 38 46  1  0  0  0
 38 47  1  0  0  0
 39 64  1  0  0  0
 39 67  2  0  0  0
 40 52  1  0  0  0
 40 53  2  0  0  0
 40 58  1  0  0  0
 41108  1  0  0  0
 41109  1  0  0  0
 41110  1  0  0  0
 41 48  1  0  0  0
 42 43  1  0  0  0
 42 66  1  0  0  0
 42111  1  0  0  0
 42112  1  0  0  0
 43 44  1  0  0  0
 44113  1  0  0  0
 45 46  2  0  0  0
 45114  1  0  0  0
 46115  1  0  0  0
 47116  1  0  0  0
 47117  1  0  0  0
 48 56  1  0  0  0
 48 65  1  0  0  0
 48118  1  0  0  0
 49 50  1  0  0  0
 49 53  1  0  0  0
 49 64  1  0  0  0
 49119  1  0  0  0
 50 51  1  0  0  0
 50120  1  0  0  0
 50121  1  0  0  0
 51 52  1  0  0  0
 51122  1  0  0  0
 51123  1  0  0  0
 52124  1  0  0  0
 52125  1  0  0  0
 53 54  1  0  0  0
 54 55  2  0  0  0
 54126  1  0  0  0
 55 57  1  0  0  0
 55127  1  0  0  0
 56 69  2  0  0  0
 57 58  2  0  0  0
 57128  1  0  0  0
 58129  1  0  0  0
 59 60  1  0  0  0
 59 61  1  0  0  0
 59 62  1  0  0  0
 60130  1  0  0  0
 60131  1  0  0  0
 60132  1  0  0  0
 61133  1  0  0  0
 61134  1  0  0  0
 61135  1  0  0  0
 62136  1  0  0  0
 62137  1  0  0  0
 62138  1  0  0  0
 63 65  1  0  0  0
 63139  1  0  0  0
 63140  1  0  0  0
 63141  1  0  0  0
 64142  1  0  0  0
 65143  1  0  0  0
 68 80  1  0  0  0
 71 73  2  0  0  0
 71 75  1  0  0  0
 71144  1  0  0  0
 72 74  1  0  0  0
 72 75  2  0  0  0
 72145  1  0  0  0
 73 76  1  0  0  0
 73146  1  0  0  0
 74 76  2  0  0  0
 74147  1  0  0  0
 75 82  1  0  0  0
 76 84  1  0  0  0
 77148  1  0  0  0
 77149  1  0  0  0
 77150  1  0  0  0
 77 81  1  0  0  0
 78 79  1  0  0  0
 78 82  1  0  0  0
 78151  1  0  0  0
 78152  1  0  0  0
 79 83  1  0  0  0
 79153  1  0  0  0
 79154  1  0  0  0
 80 81  1  0  0  0
 80155  1  0  0  0
 80156  1  0  0  0
 81 84  1  0  0  0
 81157  1  0  0  0
 82158  1  0  0  0
 83159  1  0  0  0
M  ISO  4   1 100  68 101  80 101  83 100
M  END
> <chiral flag>
0

> <version>
0

> <s_m_source_file>
/data/baiqing/PycharmProjects/Reinvent-master-3.2/result/LINK_invent/BTK/process_docking_weight1_custom_sum_contain_oxygen_bond_distance_aromatic_linkinvent_7_9_3/rearranged_h_0136.sdf

> <i_m_source_file_index>
94

> <r_mmod_Potential_Energy-OPLS-2005>
-156.689254760742

> <r_mmod_Stretch_Energy-OPLS-2005>
35.2067794799805

> <r_mmod_Bend_Energy-OPLS-2005>
116.145606994629

> <r_mmod_Torsional_Energy-OPLS-2005>
206.719177246094

> <r_mmod_Improper_Torsional_Energy-OPLS-2005>
5.88505554199219

> <r_mmod_Van_der_Waal_Energy-OPLS-2005>
159.102645874023

> <r_mmod_Electrostatic_Energy-OPLS-2005>
-469.326110839844

> <r_mmod_Solvation_Energy-OPLS-2005>
-220.306137084961

> <b_mmod_Minimization_Converged-OPLS-2005>
0

> <r_mmod_RMS_Derivative-OPLS-2005>
2.22447872161865

$$$$
97
                    3D
 Structure written by MMmdl.
155164  0  0  1  0            999 V2000
  -30.5159  -14.8765   20.4419 C   0  0  0  0  0  0
  -30.4575  -12.5393   19.4837 C   0  0  0  0  0  0
  -29.5233  -12.5221   18.2491 C   0  0  0  0  0  0
  -28.0538  -12.3131   18.6678 C   0  0  0  0  0  0
  -27.6415  -13.2287   19.8494 C   0  0  2  0  0  0
  -28.6878  -13.1845   20.9856 C   0  0  0  0  0  0
  -25.2524  -13.8181   20.5710 C   0  0  0  0  0  0
  -24.1806  -13.0433   20.9209 C   0  0  0  0  0  0
  -24.6382  -11.6905   20.8752 C   0  0  0  0  0  0
  -23.9056  -10.4288   21.0403 C   0  0  0  0  0  0
  -24.3610   -9.4206   21.9182 C   0  0  0  0  0  0
  -23.6283   -8.2243   22.0759 C   0  0  0  0  0  0
  -22.4269   -8.0273   21.3537 C   0  0  0  0  0  0
  -21.9897   -9.0251   20.4649 C   0  0  0  0  0  0
  -22.7229  -10.2126   20.3052 C   0  0  0  0  0  0
  -21.6843   -6.0725   22.5274 C   0  0  0  0  0  0
  -21.4016   -6.5633   23.8212 C   0  0  0  0  0  0
  -21.3661   -5.6786   24.9175 C   0  0  0  0  0  0
  -21.6047   -4.3052   24.7222 C   0  0  0  0  0  0
  -21.8819   -3.8138   23.4346 C   0  0  0  0  0  0
  -21.9198   -4.6954   22.3402 C   0  0  0  0  0  0
  -22.7836  -13.5226   21.1875 C   0  0  0  0  0  0
  -22.1659   -4.2139   21.0981 F   0  0  0  0  0  0
  -21.5633   -3.4541   25.7738 F   0  0  0  0  0  0
  -29.9747  -13.5997   20.4061 N   0  0  0  0  0  0
  -26.2935  -12.9369   20.3280 N   0  0  0  0  0  0
  -25.9311  -11.6518   20.5753 N   0  0  0  0  0  0
  -22.0463  -12.8214   22.0420 N   0  0  0  0  0  0
  -25.4244  -15.1911   20.4129 N   0  0  0  0  0  0
  -31.6968  -15.0321   20.1091 O   0  0  0  0  0  0
  -21.6634   -6.8866   21.4229 O   0  0  0  0  0  0
  -22.3530  -14.5533   20.6721 O   0  0  0  0  0  0
  -24.6372  -31.8436   23.1896 C   0  0  0  0  0  0
  -25.9157  -32.4703   23.8255 C   0  0  1  0  0  0
  -27.2279  -27.1846   20.1548 C   0  0  0  0  0  0
  -25.5906  -33.8505   24.2173 N   0  0  0  0  0  0
  -23.4382  -30.4662   21.5300 C   0  0  2  0  0  0
  -24.8897  -28.8936   20.1133 C   0  0  0  0  0  0
  -22.7535  -29.4526   22.4816 C   0  0  0  0  0  0
  -18.0299  -28.1393   22.8471 C   0  0  0  0  0  0
  -24.1488  -36.7261   23.2647 C   0  0  0  0  0  0
  -25.9897  -30.7379   21.3753 C   0  0  0  0  0  0
  -26.0635  -29.3512   20.7230 C   0  0  0  0  0  0
  -27.2343  -28.5133   20.7256 C   0  0  0  0  0  0
  -26.0246  -26.8027   19.5248 C   0  0  0  0  0  0
  -24.8788  -27.6280   19.5029 C   0  0  0  0  0  0
  -23.6647  -29.7923   20.1497 C   0  0  0  0  0  0
  -25.4110  -36.3030   24.0317 C   0  0  1  0  0  0
  -20.5913  -28.3680   23.1247 C   0  0  2  0  0  0
  -20.6777  -26.9380   22.5406 C   0  0  0  0  0  0
  -19.5762  -26.6359   21.5209 C   0  0  0  0  0  0
  -18.1940  -26.7937   22.1619 C   0  0  0  0  0  0
  -19.1562  -28.8854   23.2862 C   0  0  0  0  0  0
  -18.9493  -30.1457   23.8875 C   0  0  0  0  0  0
  -17.6497  -30.6594   24.0554 C   0  0  0  0  0  0
  -25.9053  -34.9413   23.5059 C   0  0  0  0  0  0
  -16.5376  -29.9084   23.6343 C   0  0  0  0  0  0
  -16.7290  -28.6510   23.0338 C   0  0  0  0  0  0
  -26.4504  -31.6569   25.0682 C   0  0  0  0  0  0
  -25.3713  -31.3761   26.1396 C   0  0  0  0  0  0
  -27.0359  -30.2978   24.6199 C   0  0  0  0  0  0
  -27.6026  -32.4323   25.7482 C   0  0  0  0  0  0
  -27.5567  -37.1785   24.8465 C   0  0  0  0  0  0
  -21.4222  -29.3032   22.3614 N   0  0  0  0  0  0
  -26.4276  -37.3740   23.9415 N   0  0  0  0  0  0
  -24.7079  -31.0354   22.0881 N   0  0  0  0  0  0
  -23.4225  -28.8059   23.2911 O   0  0  0  0  0  0
  -28.3207  -26.2604   20.1867 O   0  0  0  0  0  0
  -26.5650  -34.8913   22.4644 O   0  0  0  0  0  0
  -23.5498  -32.1252   23.7163 O   0  0  0  0  0  0
  -30.0793  -19.8934   20.0521 C   0  0  0  0  0  0
  -30.3609  -18.4530   20.0251 C   0  0  0  0  0  0
  -28.4175  -18.0612   21.3063 C   0  0  0  0  0  0
  -28.1565  -19.4757   21.3565 C   0  0  0  0  0  0
  -28.9621  -20.4916   20.7427 C   0  0  0  0  0  0
  -29.5371  -17.4562   20.6648 C   0  0  0  0  0  0
  -28.0701  -22.2587   22.2101 C   0  0  0  0  0  0
  -26.9821  -19.9630   22.1667 C   0  0  0  0  0  0
  -27.4419  -21.1306   23.0378 C   0  0  0  0  0  0
  -28.9221  -23.2481   20.1119 C   0  0  0  0  0  0
  -28.1122  -24.7361   20.2770 C   0  0  0  0  0  0
  -28.6244  -21.9801   20.9907 N   0  0  0  0  0  0
  -29.6324  -15.9367   20.7172 N   0  0  0  0  0  0
  -28.0895  -23.3719   22.7440 O   0  0  0  0  0  0
  -31.4874  -12.7159   19.1701 H   0  0  0  0  0  0
  -30.4598  -11.5703   19.9842 H   0  0  0  0  0  0
  -29.8282  -11.7371   17.5558 H   0  0  0  0  0  0
  -29.6163  -13.4651   17.7077 H   0  0  0  0  0  0
  -27.9408  -11.2685   18.9616 H   0  0  0  0  0  0
  -27.3890  -12.4627   17.8157 H   0  0  0  0  0  0
  -27.6262  -14.2425   19.4489 H   0  0  0  0  0  0
  -28.7612  -12.1808   21.4059 H   0  0  0  0  0  0
  -28.3984  -13.8356   21.8115 H   0  0  0  0  0  0
  -25.2745   -9.5689   22.4769 H   0  0  0  0  0  0
  -23.9992   -7.4633   22.7476 H   0  0  0  0  0  0
  -21.0836   -8.8761   19.8953 H   0  0  0  0  0  0
  -22.3678  -10.9664   19.6172 H   0  0  0  0  0  0
  -21.1998   -7.6143   23.9708 H   0  0  0  0  0  0
  -21.1486   -6.0521   25.9077 H   0  0  0  0  0  0
  -22.0598   -2.7602   23.2851 H   0  0  0  0  0  0
  -22.4054  -11.9859   22.4795 H   0  0  0  0  0  0
  -21.1085  -13.1260   22.2635 H   0  0  0  0  0  0
  -24.6547  -15.8433   20.5186 H   0  0  0  0  0  0
  -26.2593  -15.6253   20.0426 H   0  0  0  0  0  0
  -26.7213  -32.5329   23.0978 H   0  0  0  0  0  0
  -25.0033  -33.9606   25.0306 H   0  0  0  0  0  0
  -22.7408  -31.2920   21.3751 H   0  0  0  0  0  0
  -23.3745  -35.9605   23.3295 H   0  0  0  0  0  0
  -24.3582  -36.8898   22.2070 H   0  0  0  0  0  0
  -23.7262  -37.6464   23.6688 H   0  0  0  0  0  0
  -26.1300  -31.4912   20.5991 H   0  0  0  0  0  0
  -26.8671  -30.7948   22.0084 H   0  0  0  0  0  0
  -28.1311  -28.8607   21.2193 H   0  0  0  0  0  0
  -25.9545  -25.8289   19.0601 H   0  0  0  0  0  0
  -23.9784  -27.2656   19.0284 H   0  0  0  0  0  0
  -23.8036  -30.5666   19.3938 H   0  0  0  0  0  0
  -22.7812  -29.2334   19.8348 H   0  0  0  0  0  0
  -25.1311  -36.1848   25.0809 H   0  0  0  0  0  0
  -21.0026  -28.3255   24.1355 H   0  0  0  0  0  0
  -20.5647  -26.2271   23.3605 H   0  0  0  0  0  0
  -21.6644  -26.7366   22.1215 H   0  0  0  0  0  0
  -19.6909  -25.6259   21.1243 H   0  0  0  0  0  0
  -19.6731  -27.3170   20.6747 H   0  0  0  0  0  0
  -17.4201  -26.6664   21.4023 H   0  0  0  0  0  0
  -18.0342  -26.0094   22.9034 H   0  0  0  0  0  0
  -19.7977  -30.7279   24.2211 H   0  0  0  0  0  0
  -17.5059  -31.6281   24.5152 H   0  0  0  0  0  0
  -15.5378  -30.2994   23.7690 H   0  0  0  0  0  0
  -15.8683  -28.0854   22.7034 H   0  0  0  0  0  0
  -24.5890  -30.7086   25.7754 H   0  0  0  0  0  0
  -24.8900  -32.2959   26.4748 H   0  0  0  0  0  0
  -25.8018  -30.9011   27.0223 H   0  0  0  0  0  0
  -26.2955  -29.6707   24.1217 H   0  0  0  0  0  0
  -27.4039  -29.7251   25.4729 H   0  0  0  0  0  0
  -27.8830  -30.4244   23.9447 H   0  0  0  0  0  0
  -27.2607  -33.3637   26.2000 H   0  0  0  0  0  0
  -28.3894  -32.6841   25.0362 H   0  0  0  0  0  0
  -28.0622  -31.8476   26.5461 H   0  0  0  0  0  0
  -28.2572  -38.0093   24.7490 H   0  0  0  0  0  0
  -28.1071  -36.2616   24.6310 H   0  0  0  0  0  0
  -27.2285  -37.1460   25.8870 H   0  0  0  0  0  0
  -20.9377  -29.8819   21.6893 H   0  0  0  0  0  0
  -26.0135  -38.2801   24.1440 H   0  0  0  0  0  0
  -30.7830  -20.5497   19.5590 H   0  0  0  0  0  0
  -31.2406  -18.1194   19.4922 H   0  0  0  0  0  0
  -27.7214  -17.4111   21.8197 H   0  0  0  0  0  0
  -26.5830  -19.1683   22.7978 H   0  0  0  0  0  0
  -26.1808  -20.2702   21.4921 H   0  0  0  0  0  0
  -26.5975  -21.5228   23.6059 H   0  0  0  0  0  0
  -28.1800  -20.7892   23.7652 H   0  0  0  0  0  0
  -29.9983  -23.4214   20.1703 H   0  0  0  0  0  0
  -28.7666  -22.8982   19.0900 H   0  0  0  0  0  0
  -28.2627  -24.8706   19.2051 H   0  0  0  0  0  0
  -28.8589  -24.9505   21.0419 H   0  0  0  0  0  0
  -28.7643  -15.5328   21.0354 H   0  0  0  0  0  0
  1 25  1  0  0  0
  1 30  2  0  0  0
  1 83  1  0  0  0
  2  3  1  0  0  0
  2 25  1  0  0  0
  2 85  1  0  0  0
  2 86  1  0  0  0
  3  4  1  0  0  0
  3 87  1  0  0  0
  3 88  1  0  0  0
  4  5  1  0  0  0
  4 89  1  0  0  0
  4 90  1  0  0  0
  5  6  1  0  0  0
  5 26  1  0  0  0
  5 91  1  0  0  0
  6 25  1  0  0  0
  6 92  1  0  0  0
  6 93  1  0  0  0
  7  8  2  0  0  0
  7 26  1  0  0  0
  7 29  1  0  0  0
  8  9  1  0  0  0
  8 22  1  0  0  0
  9 10  1  0  0  0
  9 27  2  0  0  0
 10 11  2  0  0  0
 10 15  1  0  0  0
 11 12  1  0  0  0
 11 94  1  0  0  0
 12 13  2  0  0  0
 12 95  1  0  0  0
 13 14  1  0  0  0
 13 31  1  0  0  0
 14 15  2  0  0  0
 14 96  1  0  0  0
 15 97  1  0  0  0
 16 17  2  0  0  0
 16 21  1  0  0  0
 16 31  1  0  0  0
 17 18  1  0  0  0
 17 98  1  0  0  0
 18 19  2  0  0  0
 18 99  1  0  0  0
 19 20  1  0  0  0
 19 24  1  0  0  0
 20 21  2  0  0  0
 20100  1  0  0  0
 21 23  1  0  0  0
 22 28  1  0  0  0
 22 32  2  0  0  0
 26 27  1  0  0  0
 28101  1  0  0  0
 28102  1  0  0  0
 29103  1  0  0  0
 29104  1  0  0  0
 33 34  1  0  0  0
 33 66  1  0  0  0
 33 70  2  0  0  0
 34 36  1  0  0  0
 34 59  1  0  0  0
 34105  1  0  0  0
 35 44  2  0  0  0
 35 45  1  0  0  0
 35 68  1  0  0  0
 36 56  1  0  0  0
 36106  1  0  0  0
 37 39  1  0  0  0
 37 47  1  0  0  0
 37 66  1  0  0  0
 37107  1  0  0  0
 38 43  2  0  0  0
 38 46  1  0  0  0
 38 47  1  0  0  0
 39 64  1  0  0  0
 39 67  2  0  0  0
 40 52  1  0  0  0
 40 53  2  0  0  0
 40 58  1  0  0  0
 41108  1  0  0  0
 41109  1  0  0  0
 41110  1  0  0  0
 41 48  1  0  0  0
 42 43  1  0  0  0
 42 66  1  0  0  0
 42111  1  0  0  0
 42112  1  0  0  0
 43 44  1  0  0  0
 44113  1  0  0  0
 45 46  2  0  0  0
 45114  1  0  0  0
 46115  1  0  0  0
 47116  1  0  0  0
 47117  1  0  0  0
 48 56  1  0  0  0
 48 65  1  0  0  0
 48118  1  0  0  0
 49 50  1  0  0  0
 49 53  1  0  0  0
 49 64  1  0  0  0
 49119  1  0  0  0
 50 51  1  0  0  0
 50120  1  0  0  0
 50121  1  0  0  0
 51 52  1  0  0  0
 51122  1  0  0  0
 51123  1  0  0  0
 52124  1  0  0  0
 52125  1  0  0  0
 53 54  1  0  0  0
 54 55  2  0  0  0
 54126  1  0  0  0
 55 57  1  0  0  0
 55127  1  0  0  0
 56 69  2  0  0  0
 57 58  2  0  0  0
 57128  1  0  0  0
 58129  1  0  0  0
 59 60  1  0  0  0
 59 61  1  0  0  0
 59 62  1  0  0  0
 60130  1  0  0  0
 60131  1  0  0  0
 60132  1  0  0  0
 61133  1  0  0  0
 61134  1  0  0  0
 61135  1  0  0  0
 62136  1  0  0  0
 62137  1  0  0  0
 62138  1  0  0  0
 63 65  1  0  0  0
 63139  1  0  0  0
 63140  1  0  0  0
 63141  1  0  0  0
 64142  1  0  0  0
 65143  1  0  0  0
 68 81  1  0  0  0
 71 72  2  0  0  0
 71 75  1  0  0  0
 71144  1  0  0  0
 72 76  1  0  0  0
 72145  1  0  0  0
 73 74  1  0  0  0
 73 76  2  0  0  0
 73146  1  0  0  0
 74 75  2  0  0  0
 74 78  1  0  0  0
 75 82  1  0  0  0
 76 83  1  0  0  0
 77 79  1  0  0  0
 77 82  1  0  0  0
 77 84  2  0  0  0
 78 79  1  0  0  0
 78147  1  0  0  0
 78148  1  0  0  0
 79149  1  0  0  0
 79150  1  0  0  0
 80 81  1  0  0  0
 80 82  1  0  0  0
 80151  1  0  0  0
 80152  1  0  0  0
 81153  1  0  0  0
 81154  1  0  0  0
 83155  1  0  0  0
M  ISO  4   1 100  68 101  81 101  83 100
M  END
> <chiral flag>
0

> <version>
0

> <s_m_source_file>
/data/baiqing/PycharmProjects/Reinvent-master-3.2/result/LINK_invent/BTK/process_docking_weight1_custom_sum_contain_oxygen_bond_distance_aromatic_linkinvent_7_9_3/rearranged_h_0136.sdf

> <i_m_source_file_index>
95

> <r_mmod_Potential_Energy-OPLS-2005>
639.476989746094

> <r_mmod_Stretch_Energy-OPLS-2005>
219.515518188477

> <r_mmod_Bend_Energy-OPLS-2005>
466.559997558594

> <r_mmod_Torsional_Energy-OPLS-2005>
270.420989990234

> <r_mmod_Improper_Torsional_Energy-OPLS-2005>
4.35876083374023

> <r_mmod_Van_der_Waal_Energy-OPLS-2005>
155.261962890625

> <r_mmod_Electrostatic_Energy-OPLS-2005>
-396.790740966797

> <r_mmod_Solvation_Energy-OPLS-2005>
-225.926177978516

> <b_mmod_Minimization_Converged-OPLS-2005>
0

> <r_mmod_RMS_Derivative-OPLS-2005>
2.33578038215637

$$$$
98
                    3D
 Structure written by MMmdl.
160168  0  0  1  0            999 V2000
  -30.6514  -14.6289   20.5453 C   0  0  0  0  0  0
  -30.4167  -12.3921   19.4808 C   0  0  0  0  0  0
  -29.5201  -12.5519   18.2311 C   0  0  0  0  0  0
  -28.0322  -12.3760   18.6036 C   0  0  0  0  0  0
  -27.6473  -13.2173   19.8532 C   0  0  2  0  0  0
  -28.6834  -13.1078   21.0026 C   0  0  0  0  0  0
  -25.2620  -13.8175   20.5690 C   0  0  0  0  0  0
  -24.1886  -13.0426   20.9174 C   0  0  0  0  0  0
  -24.6438  -11.6879   20.8723 C   0  0  0  0  0  0
  -23.9076  -10.4283   21.0395 C   0  0  0  0  0  0
  -24.3643   -9.4202   21.9179 C   0  0  0  0  0  0
  -23.6315   -8.2241   22.0757 C   0  0  0  0  0  0
  -22.4303   -8.0289   21.3542 C   0  0  0  0  0  0
  -21.9932   -9.0255   20.4651 C   0  0  0  0  0  0
  -22.7244  -10.2127   20.3042 C   0  0  0  0  0  0
  -21.6837   -6.0751   22.5268 C   0  0  0  0  0  0
  -21.4067   -6.5679   23.8213 C   0  0  0  0  0  0
  -21.3645   -5.6824   24.9173 C   0  0  0  0  0  0
  -21.6009   -4.3085   24.7217 C   0  0  0  0  0  0
  -21.8801   -3.8168   23.4353 C   0  0  0  0  0  0
  -21.9203   -4.6979   22.3408 C   0  0  0  0  0  0
  -22.7930  -13.5268   21.1921 C   0  0  0  0  0  0
  -22.1661   -4.2196   21.0976 F   0  0  0  0  0  0
  -21.5565   -3.4545   25.7714 F   0  0  0  0  0  0
  -30.0053  -13.4256   20.4438 N   0  0  0  0  0  0
  -26.2962  -12.9303   20.3198 N   0  0  0  0  0  0
  -25.9335  -11.6445   20.5609 N   0  0  0  0  0  0
  -22.0631  -12.8186   22.0455 N   0  0  0  0  0  0
  -25.4372  -15.1909   20.4183 N   0  0  0  0  0  0
  -31.8194  -14.7698   20.1823 O   0  0  0  0  0  0
  -21.6616   -6.8926   21.4244 O   0  0  0  0  0  0
  -22.3563  -14.5532   20.6752 O   0  0  0  0  0  0
  -24.6245  -31.8561   23.2049 C   0  0  0  0  0  0
  -25.9122  -32.4693   23.8325 C   0  0  1  0  0  0
  -27.2102  -27.2830   20.1431 C   0  0  0  0  0  0
  -25.5895  -33.8490   24.2214 N   0  0  0  0  0  0
  -23.4225  -30.4739   21.5437 C   0  0  2  0  0  0
  -24.8706  -28.9237   20.1096 C   0  0  0  0  0  0
  -22.7478  -29.4606   22.4977 C   0  0  0  0  0  0
  -18.0268  -28.1433   22.8510 C   0  0  0  0  0  0
  -24.1501  -36.7269   23.2668 C   0  0  0  0  0  0
  -25.9636  -30.7604   21.4054 C   0  0  0  0  0  0
  -26.0294  -29.3933   20.7408 C   0  0  0  0  0  0
  -27.1974  -28.5735   20.7641 C   0  0  0  0  0  0
  -26.0646  -26.9169   19.4191 C   0  0  0  0  0  0
  -24.8866  -27.6896   19.4403 C   0  0  0  0  0  0
  -23.6386  -29.8058   20.1603 C   0  0  0  0  0  0
  -25.4125  -36.3030   24.0343 C   0  0  1  0  0  0
  -20.5880  -28.3732   23.1290 C   0  0  2  0  0  0
  -20.6711  -26.9453   22.5460 C   0  0  0  0  0  0
  -19.5719  -26.6481   21.5198 C   0  0  0  0  0  0
  -18.1901  -26.7989   22.1640 C   0  0  0  0  0  0
  -19.1525  -28.8918   23.2852 C   0  0  0  0  0  0
  -18.9439  -30.1540   23.8851 C   0  0  0  0  0  0
  -17.6431  -30.6679   24.0520 C   0  0  0  0  0  0
  -25.9066  -34.9392   23.5081 C   0  0  0  0  0  0
  -16.5312  -29.9135   23.6371 C   0  0  0  0  0  0
  -16.7250  -28.6521   23.0398 C   0  0  0  0  0  0
  -26.4501  -31.6509   25.0719 C   0  0  0  0  0  0
  -25.3762  -31.3653   26.1474 C   0  0  0  0  0  0
  -27.0389  -30.2903   24.6297 C   0  0  0  0  0  0
  -27.6029  -32.4324   25.7470 C   0  0  0  0  0  0
  -27.5585  -37.1772   24.8473 C   0  0  0  0  0  0
  -21.4196  -29.3051   22.3678 N   0  0  0  0  0  0
  -26.4299  -37.3728   23.9410 N   0  0  0  0  0  0
  -24.6855  -31.0515   22.1032 N   0  0  0  0  0  0
  -23.4095  -28.8235   23.3196 O   0  0  0  0  0  0
  -28.3272  -26.4428   20.1986 O   0  0  0  0  0  0
  -26.5664  -34.8903   22.4687 O   0  0  0  0  0  0
  -23.5439  -32.1383   23.7319 O   0  0  0  0  0  0
  -27.9919  -22.5714   20.4466 C   0  0  0  0  0  0
  -30.1342  -23.3771   19.8696 C   0  0  0  0  0  0
  -27.5119  -23.9269   20.5030 C   0  0  0  0  0  0
  -29.3301  -22.2416   20.1350 C   0  0  0  0  0  0
  -28.4296  -25.0130   20.1940 C   0  0  0  0  0  0
  -24.9788  -23.7557   19.8323 C   0  0  0  0  0  0
  -25.6848  -24.9559   22.0981 C   0  0  0  0  0  0
  -29.9449  -18.3137   20.2823 C   0  0  0  0  0  0
  -29.6356  -19.7498   20.9189 C   0  0  0  0  0  0
  -30.2627  -17.1126   21.2721 C   0  0  0  0  0  0
  -26.0343  -23.9991   20.9449 C   0  0  0  0  0  0
  -29.7138  -24.6695   19.9070 N   0  0  0  0  0  0
  -29.8451  -20.9077   19.9909 N   0  0  0  0  0  0
  -29.8848  -15.7004   20.9008 N   0  0  0  0  0  0
  -31.4814  -12.4603   19.2283 H   0  0  0  0  0  0
  -30.2710  -11.3983   19.9175 H   0  0  0  0  0  0
  -29.8105  -11.8483   17.4522 H   0  0  0  0  0  0
  -29.6596  -13.5494   17.8025 H   0  0  0  0  0  0
  -27.8472  -11.3111   18.7643 H   0  0  0  0  0  0
  -27.4079  -12.6594   17.7579 H   0  0  0  0  0  0
  -27.6582  -14.2568   19.5187 H   0  0  0  0  0  0
  -28.6926  -12.1043   21.4345 H   0  0  0  0  0  0
  -28.4121  -13.7702   21.8266 H   0  0  0  0  0  0
  -25.2841   -9.5627   22.4690 H   0  0  0  0  0  0
  -24.0006   -7.4617   22.7479 H   0  0  0  0  0  0
  -21.0860   -8.8777   19.8968 H   0  0  0  0  0  0
  -22.3768  -10.9648   19.6125 H   0  0  0  0  0  0
  -21.2117   -7.6205   23.9731 H   0  0  0  0  0  0
  -21.1484   -6.0574   25.9081 H   0  0  0  0  0  0
  -22.0610   -2.7639   23.2806 H   0  0  0  0  0  0
  -22.4314  -11.9743   22.4637 H   0  0  0  0  0  0
  -21.1253  -13.1156   22.2771 H   0  0  0  0  0  0
  -24.6579  -15.8368   20.4912 H   0  0  0  0  0  0
  -26.2785  -15.6281   20.0691 H   0  0  0  0  0  0
  -26.7148  -32.5320   23.1030 H   0  0  0  0  0  0
  -24.9810  -33.9547   25.0178 H   0  0  0  0  0  0
  -22.7214  -31.2999   21.3974 H   0  0  0  0  0  0
  -23.3741  -35.9618   23.3318 H   0  0  0  0  0  0
  -24.3602  -36.8898   22.2086 H   0  0  0  0  0  0
  -23.7270  -37.6482   23.6693 H   0  0  0  0  0  0
  -26.1416  -31.5212   20.6469 H   0  0  0  0  0  0
  -26.8291  -30.7710   22.0574 H   0  0  0  0  0  0
  -28.0848  -28.9088   21.2845 H   0  0  0  0  0  0
  -26.1035  -26.0135   18.8454 H   0  0  0  0  0  0
  -24.0121  -27.3297   18.9125 H   0  0  0  0  0  0
  -23.7667  -30.5765   19.4046 H   0  0  0  0  0  0
  -22.7618  -29.2313   19.8621 H   0  0  0  0  0  0
  -25.1317  -36.1842   25.0829 H   0  0  0  0  0  0
  -20.9851  -28.3269   24.1414 H   0  0  0  0  0  0
  -20.5473  -26.2371   23.3692 H   0  0  0  0  0  0
  -21.6598  -26.7377   22.1362 H   0  0  0  0  0  0
  -19.6947  -25.6402   21.1176 H   0  0  0  0  0  0
  -19.6617  -27.3333   20.6765 H   0  0  0  0  0  0
  -17.4157  -26.6662   21.4087 H   0  0  0  0  0  0
  -18.0401  -26.0132   22.9083 H   0  0  0  0  0  0
  -19.7930  -30.7388   24.2151 H   0  0  0  0  0  0
  -17.4988  -31.6380   24.5103 H   0  0  0  0  0  0
  -15.5331  -30.3035   23.7777 H   0  0  0  0  0  0
  -15.8591  -28.0859   22.7200 H   0  0  0  0  0  0
  -24.5903  -30.7031   25.7830 H   0  0  0  0  0  0
  -24.9020  -32.2820   26.5000 H   0  0  0  0  0  0
  -25.8143  -30.8758   27.0181 H   0  0  0  0  0  0
  -26.3017  -29.6645   24.1245 H   0  0  0  0  0  0
  -27.3920  -29.7197   25.4900 H   0  0  0  0  0  0
  -27.8969  -30.4176   23.9686 H   0  0  0  0  0  0
  -27.2554  -33.3611   26.2042 H   0  0  0  0  0  0
  -28.3796  -32.6910   25.0252 H   0  0  0  0  0  0
  -28.0736  -31.8457   26.5384 H   0  0  0  0  0  0
  -28.2599  -38.0073   24.7501 H   0  0  0  0  0  0
  -28.1078  -36.2594   24.6290 H   0  0  0  0  0  0
  -27.2312  -37.1415   25.8883 H   0  0  0  0  0  0
  -20.9429  -29.8584   21.6704 H   0  0  0  0  0  0
  -26.0169  -38.2813   24.1349 H   0  0  0  0  0  0
  -27.3129  -21.7479   20.6275 H   0  0  0  0  0  0
  -31.1746  -23.2349   19.6139 H   0  0  0  0  0  0
  -25.0906  -24.3244   18.9141 H   0  0  0  0  0  0
  -23.9664  -23.9309   20.2000 H   0  0  0  0  0  0
  -25.0045  -22.7092   19.5151 H   0  0  0  0  0  0
  -26.2368  -24.6619   22.9951 H   0  0  0  0  0  0
  -24.6218  -24.8766   22.3365 H   0  0  0  0  0  0
  -25.9009  -26.0047   21.9166 H   0  0  0  0  0  0
  -30.8280  -18.4158   19.6514 H   0  0  0  0  0  0
  -29.1348  -18.0319   19.6090 H   0  0  0  0  0  0
  -30.3099  -19.8686   21.7684 H   0  0  0  0  0  0
  -28.6258  -19.7752   21.3415 H   0  0  0  0  0  0
  -29.7445  -17.3186   22.2083 H   0  0  0  0  0  0
  -31.3158  -17.1422   21.5390 H   0  0  0  0  0  0
  -25.8931  -23.0657   21.4914 H   0  0  0  0  0  0
  -30.7411  -20.8639   19.4992 H   0  0  0  0  0  0
  -28.9216  -15.4548   21.0821 H   0  0  0  0  0  0
  1 25  1  0  0  0
  1 30  2  0  0  0
  1 84  1  0  0  0
  2  3  1  0  0  0
  2 25  1  0  0  0
  2 85  1  0  0  0
  2 86  1  0  0  0
  3  4  1  0  0  0
  3 87  1  0  0  0
  3 88  1  0  0  0
  4  5  1  0  0  0
  4 89  1  0  0  0
  4 90  1  0  0  0
  5  6  1  0  0  0
  5 26  1  0  0  0
  5 91  1  0  0  0
  6 25  1  0  0  0
  6 92  1  0  0  0
  6 93  1  0  0  0
  7  8  2  0  0  0
  7 26  1  0  0  0
  7 29  1  0  0  0
  8  9  1  0  0  0
  8 22  1  0  0  0
  9 10  1  0  0  0
  9 27  2  0  0  0
 10 11  2  0  0  0
 10 15  1  0  0  0
 11 12  1  0  0  0
 11 94  1  0  0  0
 12 13  2  0  0  0
 12 95  1  0  0  0
 13 14  1  0  0  0
 13 31  1  0  0  0
 14 15  2  0  0  0
 14 96  1  0  0  0
 15 97  1  0  0  0
 16 17  2  0  0  0
 16 21  1  0  0  0
 16 31  1  0  0  0
 17 18  1  0  0  0
 17 98  1  0  0  0
 18 19  2  0  0  0
 18 99  1  0  0  0
 19 20  1  0  0  0
 19 24  1  0  0  0
 20 21  2  0  0  0
 20100  1  0  0  0
 21 23  1  0  0  0
 22 28  1  0  0  0
 22 32  2  0  0  0
 26 27  1  0  0  0
 28101  1  0  0  0
 28102  1  0  0  0
 29103  1  0  0  0
 29104  1  0  0  0
 33 34  1  0  0  0
 33 66  1  0  0  0
 33 70  2  0  0  0
 34 36  1  0  0  0
 34 59  1  0  0  0
 34105  1  0  0  0
 35 44  2  0  0  0
 35 45  1  0  0  0
 35 68  1  0  0  0
 36 56  1  0  0  0
 36106  1  0  0  0
 37 39  1  0  0  0
 37 47  1  0  0  0
 37 66  1  0  0  0
 37107  1  0  0  0
 38 43  2  0  0  0
 38 46  1  0  0  0
 38 47  1  0  0  0
 39 64  1  0  0  0
 39 67  2  0  0  0
 40 52  1  0  0  0
 40 53  2  0  0  0
 40 58  1  0  0  0
 41108  1  0  0  0
 41109  1  0  0  0
 41110  1  0  0  0
 41 48  1  0  0  0
 42 43  1  0  0  0
 42 66  1  0  0  0
 42111  1  0  0  0
 42112  1  0  0  0
 43 44  1  0  0  0
 44113  1  0  0  0
 45 46  2  0  0  0
 45114  1  0  0  0
 46115  1  0  0  0
 47116  1  0  0  0
 47117  1  0  0  0
 48 56  1  0  0  0
 48 65  1  0  0  0
 48118  1  0  0  0
 49 50  1  0  0  0
 49 53  1  0  0  0
 49 64  1  0  0  0
 49119  1  0  0  0
 50 51  1  0  0  0
 50120  1  0  0  0
 50121  1  0  0  0
 51 52  1  0  0  0
 51122  1  0  0  0
 51123  1  0  0  0
 52124  1  0  0  0
 52125  1  0  0  0
 53 54  1  0  0  0
 54 55  2  0  0  0
 54126  1  0  0  0
 55 57  1  0  0  0
 55127  1  0  0  0
 56 69  2  0  0  0
 57 58  2  0  0  0
 57128  1  0  0  0
 58129  1  0  0  0
 59 60  1  0  0  0
 59 61  1  0  0  0
 59 62  1  0  0  0
 60130  1  0  0  0
 60131  1  0  0  0
 60132  1  0  0  0
 61133  1  0  0  0
 61134  1  0  0  0
 61135  1  0  0  0
 62136  1  0  0  0
 62137  1  0  0  0
 62138  1  0  0  0
 63 65  1  0  0  0
 63139  1  0  0  0
 63140  1  0  0  0
 63141  1  0  0  0
 64142  1  0  0  0
 65143  1  0  0  0
 68 75  1  0  0  0
 71 73  2  0  0  0
 71 74  1  0  0  0
 71144  1  0  0  0
 72 74  2  0  0  0
 72 82  1  0  0  0
 72145  1  0  0  0
 73 75  1  0  0  0
 73 81  1  0  0  0
 74 83  1  0  0  0
 75 82  2  0  0  0
 76146  1  0  0  0
 76147  1  0  0  0
 76148  1  0  0  0
 76 81  1  0  0  0
 77 81  1  0  0  0
 77149  1  0  0  0
 77150  1  0  0  0
 77151  1  0  0  0
 78 79  1  0  0  0
 78 80  1  0  0  0
 78152  1  0  0  0
 78153  1  0  0  0
 79 83  1  0  0  0
 79154  1  0  0  0
 79155  1  0  0  0
 80 84  1  0  0  0
 80156  1  0  0  0
 80157  1  0  0  0
 81158  1  0  0  0
 83159  1  0  0  0
 84160  1  0  0  0
M  ISO  4   1 100  68 101  75 101  84 100
M  END
> <chiral flag>
0

> <version>
0

> <s_m_source_file>
/data/baiqing/PycharmProjects/Reinvent-master-3.2/result/LINK_invent/BTK/process_docking_weight1_custom_sum_contain_oxygen_bond_distance_aromatic_linkinvent_7_9_3/rearranged_h_0136.sdf

> <i_m_source_file_index>
96

> <r_mmod_Potential_Energy-OPLS-2005>
94.7936706542969

> <r_mmod_Stretch_Energy-OPLS-2005>
84.1567153930664

> <r_mmod_Bend_Energy-OPLS-2005>
232.972839355469

> <r_mmod_Torsional_Energy-OPLS-2005>
219.514205932617

> <r_mmod_Improper_Torsional_Energy-OPLS-2005>
6.66169118881226

> <r_mmod_Van_der_Waal_Energy-OPLS-2005>
142.175506591797

> <r_mmod_Electrostatic_Energy-OPLS-2005>
-417.257934570312

> <r_mmod_Solvation_Energy-OPLS-2005>
-230.412445068359

> <b_mmod_Minimization_Converged-OPLS-2005>
0

> <r_mmod_RMS_Derivative-OPLS-2005>
9.47128868103027

$$$$
