0
                    3D
 Structure written by MMmdl.
162170  0  0  1  0            999 V2000
  -30.7516  -14.3578   20.7090 C   0  0  0  0  0  0
  -30.4197  -12.2980   19.3872 C   0  0  0  0  0  0
  -29.4807  -12.5247   18.1884 C   0  0  0  0  0  0
  -28.0052  -12.3814   18.6076 C   0  0  0  0  0  0
  -27.6644  -13.1989   19.8808 C   0  0  2  0  0  0
  -28.6985  -12.9239   20.9920 C   0  0  0  0  0  0
  -25.2597  -13.8161   20.5663 C   0  0  0  0  0  0
  -24.1834  -13.0447   20.9167 C   0  0  0  0  0  0
  -24.6372  -11.6912   20.8729 C   0  0  0  0  0  0
  -23.9037  -10.4301   21.0401 C   0  0  0  0  0  0
  -24.3591   -9.4225   21.9191 C   0  0  0  0  0  0
  -23.6274   -8.2256   22.0763 C   0  0  0  0  0  0
  -22.4260   -8.0282   21.3542 C   0  0  0  0  0  0
  -21.9898   -9.0249   20.4640 C   0  0  0  0  0  0
  -22.7219  -10.2138   20.3050 C   0  0  0  0  0  0
  -21.6848   -6.0736   22.5276 C   0  0  0  0  0  0
  -21.3992   -6.5635   23.8207 C   0  0  0  0  0  0
  -21.3639   -5.6792   24.9168 C   0  0  0  0  0  0
  -21.6040   -4.3059   24.7224 C   0  0  0  0  0  0
  -21.8827   -3.8153   23.4345 C   0  0  0  0  0  0
  -21.9194   -4.6967   22.3396 C   0  0  0  0  0  0
  -22.7867  -13.5264   21.1832 C   0  0  0  0  0  0
  -22.1669   -4.2153   21.0980 F   0  0  0  0  0  0
  -21.5628   -3.4542   25.7739 F   0  0  0  0  0  0
  -30.0396  -13.2301   20.4580 N   0  0  0  0  0  0
  -26.3021  -12.9308   20.3373 N   0  0  0  0  0  0
  -25.9287  -11.6474   20.5746 N   0  0  0  0  0  0
  -22.0495  -12.8265   22.0391 N   0  0  0  0  0  0
  -25.4346  -15.1869   20.4069 N   0  0  0  0  0  0
  -31.7774  -14.6667   20.0929 O   0  0  0  0  0  0
  -21.6630   -6.8874   21.4237 O   0  0  0  0  0  0
  -22.3566  -14.5576   20.6687 O   0  0  0  0  0  0
  -24.6137  -31.8672   23.2120 C   0  0  0  0  0  0
  -25.9050  -32.4799   23.8404 C   0  0  1  0  0  0
  -27.2415  -27.4533   20.0787 C   0  0  0  0  0  0
  -25.5928  -33.8600   24.2333 N   0  0  0  0  0  0
  -23.3995  -30.4912   21.5501 C   0  0  2  0  0  0
  -24.8452  -28.9579   20.1164 C   0  0  0  0  0  0
  -22.7393  -29.4649   22.4988 C   0  0  0  0  0  0
  -18.0250  -28.1380   22.8479 C   0  0  0  0  0  0
  -24.1455  -36.7261   23.2659 C   0  0  0  0  0  0
  -25.9267  -30.8369   21.3633 C   0  0  0  0  0  0
  -26.0025  -29.4716   20.7122 C   0  0  0  0  0  0
  -27.1990  -28.7237   20.6957 C   0  0  0  0  0  0
  -26.0577  -26.9400   19.5006 C   0  0  0  0  0  0
  -24.8658  -27.6878   19.5138 C   0  0  0  0  0  0
  -23.6074  -29.8240   20.1643 C   0  0  0  0  0  0
  -25.4085  -36.3069   24.0354 C   0  0  1  0  0  0
  -20.5842  -28.3645   23.1311 C   0  0  2  0  0  0
  -20.6700  -26.9368   22.5449 C   0  0  0  0  0  0
  -19.5705  -26.6368   21.5206 C   0  0  0  0  0  0
  -18.1865  -26.7941   22.1570 C   0  0  0  0  0  0
  -19.1506  -28.8830   23.2885 C   0  0  0  0  0  0
  -18.9452  -30.1438   23.8896 C   0  0  0  0  0  0
  -17.6463  -30.6578   24.0581 C   0  0  0  0  0  0
  -25.9043  -34.9456   23.5130 C   0  0  0  0  0  0
  -16.5346  -29.9091   23.6346 C   0  0  0  0  0  0
  -16.7250  -28.6514   23.0352 C   0  0  0  0  0  0
  -26.4496  -31.6592   25.0734 C   0  0  0  0  0  0
  -25.3770  -31.3637   26.1464 C   0  0  0  0  0  0
  -27.0388  -30.3058   24.6118 C   0  0  0  0  0  0
  -27.6009  -32.4374   25.7533 C   0  0  0  0  0  0
  -27.5559  -37.1768   24.8472 C   0  0  0  0  0  0
  -21.4125  -29.3010   22.3725 N   0  0  0  0  0  0
  -26.4244  -37.3784   23.9461 N   0  0  0  0  0  0
  -24.6644  -31.0799   22.1001 N   0  0  0  0  0  0
  -23.4172  -28.8202   23.3033 O   0  0  0  0  0  0
  -28.4463  -26.7838   20.0598 O   0  0  0  0  0  0
  -26.5594  -34.8919   22.4683 O   0  0  0  0  0  0
  -23.5341  -32.1431   23.7528 O   0  0  0  0  0  0
  -28.6496  -22.6344   21.6185 C   0  0  0  0  0  0
  -27.3295  -22.0376   19.6714 C   0  0  0  0  0  0
  -27.9078  -21.6766   20.9027 C   0  0  0  0  0  0
  -28.8605  -23.9278   21.0943 C   0  0  0  0  0  0
  -28.2958  -24.2917   19.8396 C   0  0  0  0  0  0
  -27.5220  -23.3279   19.1364 C   0  0  0  0  0  0
  -29.7371  -24.8833   21.8875 C   0  0  0  0  0  0
  -27.8133  -20.2496   21.4216 C   0  0  0  0  0  0
  -28.6237  -25.6507   19.2034 C   0  0  0  0  0  0
  -29.1270  -19.4956   21.1478 C   0  0  0  0  0  0
  -29.2369  -18.0902   21.7672 C   0  0  0  0  0  0
  -30.6779  -17.5625   21.6314 C   0  0  0  0  0  0
  -30.9628  -16.2318   22.3470 C   0  0  0  0  0  0
  -30.2894  -15.0933   21.7293 N   0  0  0  0  0  0
  -26.8257  -23.6592   17.5876 Cl  0  0  0  0  0  0
  -31.4591  -12.4225   19.0777 H   0  0  0  0  0  0
  -30.3405  -11.2711   19.7472 H   0  0  0  0  0  0
  -29.7110  -11.8145   17.3934 H   0  0  0  0  0  0
  -29.6503  -13.5179   17.7700 H   0  0  0  0  0  0
  -27.8102  -11.3234   18.7855 H   0  0  0  0  0  0
  -27.3501  -12.6758   17.7865 H   0  0  0  0  0  0
  -27.7286  -14.2556   19.6188 H   0  0  0  0  0  0
  -28.6641  -11.8739   21.2869 H   0  0  0  0  0  0
  -28.4374  -13.4798   21.8926 H   0  0  0  0  0  0
  -25.2729   -9.5716   22.4775 H   0  0  0  0  0  0
  -23.9983   -7.4659   22.7489 H   0  0  0  0  0  0
  -21.0839   -8.8753   19.8937 H   0  0  0  0  0  0
  -22.3670  -10.9668   19.6152 H   0  0  0  0  0  0
  -21.1968   -7.6145   23.9704 H   0  0  0  0  0  0
  -21.1439   -6.0520   25.9067 H   0  0  0  0  0  0
  -22.0619   -2.7615   23.2843 H   0  0  0  0  0  0
  -22.4081  -11.9918   22.4785 H   0  0  0  0  0  0
  -21.1119  -13.1316   22.2584 H   0  0  0  0  0  0
  -24.6732  -15.8479   20.5162 H   0  0  0  0  0  0
  -26.2973  -15.6222   20.1032 H   0  0  0  0  0  0
  -26.7130  -32.5513   23.1180 H   0  0  0  0  0  0
  -25.0111  -33.9763   25.0501 H   0  0  0  0  0  0
  -22.6858  -31.3056   21.4102 H   0  0  0  0  0  0
  -23.3752  -35.9552   23.3268 H   0  0  0  0  0  0
  -24.3533  -36.8947   22.2082 H   0  0  0  0  0  0
  -23.7167  -37.6423   23.6731 H   0  0  0  0  0  0
  -26.0409  -31.6056   20.5974 H   0  0  0  0  0  0
  -26.8137  -30.8857   21.9834 H   0  0  0  0  0  0
  -28.0964  -29.1286   21.1429 H   0  0  0  0  0  0
  -26.0366  -25.9662   19.0365 H   0  0  0  0  0  0
  -23.9746  -27.2796   19.0572 H   0  0  0  0  0  0
  -23.7178  -30.5975   19.4033 H   0  0  0  0  0  0
  -22.7322  -29.2430   19.8663 H   0  0  0  0  0  0
  -25.1258  -36.1896   25.0847 H   0  0  0  0  0  0
  -20.9924  -28.3219   24.1434 H   0  0  0  0  0  0
  -20.5483  -26.2283   23.3651 H   0  0  0  0  0  0
  -21.6584  -26.7314   22.1326 H   0  0  0  0  0  0
  -19.6830  -25.6273   21.1245 H   0  0  0  0  0  0
  -19.6676  -27.3164   20.6732 H   0  0  0  0  0  0
  -17.4168  -26.6779   21.3926 H   0  0  0  0  0  0
  -18.0165  -26.0051   22.8909 H   0  0  0  0  0  0
  -19.7936  -30.7239   24.2256 H   0  0  0  0  0  0
  -17.5032  -31.6240   24.5215 H   0  0  0  0  0  0
  -15.5353  -30.3001   23.7692 H   0  0  0  0  0  0
  -15.8639  -28.0859   22.7062 H   0  0  0  0  0  0
  -24.6095  -30.6784   25.7846 H   0  0  0  0  0  0
  -24.8765  -32.2733   26.4785 H   0  0  0  0  0  0
  -25.8186  -30.8993   27.0292 H   0  0  0  0  0  0
  -26.2943  -29.6758   24.1232 H   0  0  0  0  0  0
  -27.4237  -29.7350   25.4583 H   0  0  0  0  0  0
  -27.8729  -30.4399   23.9227 H   0  0  0  0  0  0
  -27.2519  -33.3593   26.2203 H   0  0  0  0  0  0
  -28.3775  -32.7099   25.0376 H   0  0  0  0  0  0
  -28.0750  -31.8488   26.5399 H   0  0  0  0  0  0
  -28.2560  -38.0086   24.7576 H   0  0  0  0  0  0
  -28.1077  -36.2622   24.6221 H   0  0  0  0  0  0
  -27.2289  -37.1336   25.8879 H   0  0  0  0  0  0
  -20.9285  -29.8794   21.7000 H   0  0  0  0  0  0
  -26.0106  -38.2828   24.1568 H   0  0  0  0  0  0
  -29.1004  -22.3516   22.5606 H   0  0  0  0  0  0
  -26.7632  -21.3103   19.1066 H   0  0  0  0  0  0
  -30.2645  -24.3644   22.6888 H   0  0  0  0  0  0
  -29.1323  -25.6683   22.3416 H   0  0  0  0  0  0
  -30.4913  -25.3481   21.2519 H   0  0  0  0  0  0
  -26.9725  -19.7335   20.9565 H   0  0  0  0  0  0
  -27.6071  -20.2755   22.4929 H   0  0  0  0  0  0
  -28.1308  -25.8150   18.2464 H   0  0  0  0  0  0
  -29.6829  -25.6181   18.9465 H   0  0  0  0  0  0
  -29.9464  -20.1007   21.5384 H   0  0  0  0  0  0
  -29.2885  -19.4311   20.0708 H   0  0  0  0  0  0
  -28.5330  -17.4073   21.2880 H   0  0  0  0  0  0
  -28.9636  -18.1313   22.8227 H   0  0  0  0  0  0
  -31.3574  -18.3073   22.0491 H   0  0  0  0  0  0
  -30.9416  -17.4814   20.5759 H   0  0  0  0  0  0
  -30.6579  -16.2958   23.3927 H   0  0  0  0  0  0
  -32.0397  -16.0506   22.3623 H   0  0  0  0  0  0
  -29.4468  -14.7591   22.1747 H   0  0  0  0  0  0
  1 25  1  0  0  0
  1 30  2  0  0  0
  1 84  1  0  0  0
  2  3  1  0  0  0
  2 25  1  0  0  0
  2 86  1  0  0  0
  2 87  1  0  0  0
  3  4  1  0  0  0
  3 88  1  0  0  0
  3 89  1  0  0  0
  4  5  1  0  0  0
  4 90  1  0  0  0
  4 91  1  0  0  0
  5  6  1  0  0  0
  5 26  1  0  0  0
  5 92  1  0  0  0
  6 25  1  0  0  0
  6 93  1  0  0  0
  6 94  1  0  0  0
  7  8  2  0  0  0
  7 26  1  0  0  0
  7 29  1  0  0  0
  8  9  1  0  0  0
  8 22  1  0  0  0
  9 10  1  0  0  0
  9 27  2  0  0  0
 10 11  2  0  0  0
 10 15  1  0  0  0
 11 12  1  0  0  0
 11 95  1  0  0  0
 12 13  2  0  0  0
 12 96  1  0  0  0
 13 14  1  0  0  0
 13 31  1  0  0  0
 14 15  2  0  0  0
 14 97  1  0  0  0
 15 98  1  0  0  0
 16 17  2  0  0  0
 16 21  1  0  0  0
 16 31  1  0  0  0
 17 18  1  0  0  0
 17 99  1  0  0  0
 18 19  2  0  0  0
 18100  1  0  0  0
 19 20  1  0  0  0
 19 24  1  0  0  0
 20 21  2  0  0  0
 20101  1  0  0  0
 21 23  1  0  0  0
 22 28  1  0  0  0
 22 32  2  0  0  0
 26 27  1  0  0  0
 28102  1  0  0  0
 28103  1  0  0  0
 29104  1  0  0  0
 29105  1  0  0  0
 33 34  1  0  0  0
 33 66  1  0  0  0
 33 70  2  0  0  0
 34 36  1  0  0  0
 34 59  1  0  0  0
 34106  1  0  0  0
 35 44  2  0  0  0
 35 45  1  0  0  0
 35 68  1  0  0  0
 36 56  1  0  0  0
 36107  1  0  0  0
 37 39  1  0  0  0
 37 47  1  0  0  0
 37 66  1  0  0  0
 37108  1  0  0  0
 38 43  2  0  0  0
 38 46  1  0  0  0
 38 47  1  0  0  0
 39 64  1  0  0  0
 39 67  2  0  0  0
 40 52  1  0  0  0
 40 53  2  0  0  0
 40 58  1  0  0  0
 41109  1  0  0  0
 41110  1  0  0  0
 41111  1  0  0  0
 41 48  1  0  0  0
 42 43  1  0  0  0
 42 66  1  0  0  0
 42112  1  0  0  0
 42113  1  0  0  0
 43 44  1  0  0  0
 44114  1  0  0  0
 45 46  2  0  0  0
 45115  1  0  0  0
 46116  1  0  0  0
 47117  1  0  0  0
 47118  1  0  0  0
 48 56  1  0  0  0
 48 65  1  0  0  0
 48119  1  0  0  0
 49 50  1  0  0  0
 49 53  1  0  0  0
 49 64  1  0  0  0
 49120  1  0  0  0
 50 51  1  0  0  0
 50121  1  0  0  0
 50122  1  0  0  0
 51 52  1  0  0  0
 51123  1  0  0  0
 51124  1  0  0  0
 52125  1  0  0  0
 52126  1  0  0  0
 53 54  1  0  0  0
 54 55  2  0  0  0
 54127  1  0  0  0
 55 57  1  0  0  0
 55128  1  0  0  0
 56 69  2  0  0  0
 57 58  2  0  0  0
 57129  1  0  0  0
 58130  1  0  0  0
 59 60  1  0  0  0
 59 61  1  0  0  0
 59 62  1  0  0  0
 60131  1  0  0  0
 60132  1  0  0  0
 60133  1  0  0  0
 61134  1  0  0  0
 61135  1  0  0  0
 61136  1  0  0  0
 62137  1  0  0  0
 62138  1  0  0  0
 62139  1  0  0  0
 63 65  1  0  0  0
 63140  1  0  0  0
 63141  1  0  0  0
 63142  1  0  0  0
 64143  1  0  0  0
 65144  1  0  0  0
 68 79  1  0  0  0
 71 73  2  0  0  0
 71 74  1  0  0  0
 71145  1  0  0  0
 72 73  1  0  0  0
 72 76  2  0  0  0
 72146  1  0  0  0
 73 78  1  0  0  0
 74 75  2  0  0  0
 74 77  1  0  0  0
 75 76  1  0  0  0
 75 79  1  0  0  0
 76 85  1  0  0  0
 77147  1  0  0  0
 77148  1  0  0  0
 77149  1  0  0  0
 78 80  1  0  0  0
 78150  1  0  0  0
 78151  1  0  0  0
 79152  1  0  0  0
 79153  1  0  0  0
 80 81  1  0  0  0
 80154  1  0  0  0
 80155  1  0  0  0
 81 82  1  0  0  0
 81156  1  0  0  0
 81157  1  0  0  0
 82 83  1  0  0  0
 82158  1  0  0  0
 82159  1  0  0  0
 83 84  1  0  0  0
 83160  1  0  0  0
 83161  1  0  0  0
 84162  1  0  0  0
M  ISO  4   1 100  68 101  79 101  84 100
M  END
> <chiral flag>
0

> <version>
0

> <s_m_source_file>
/data/baiqing/PycharmProjects/Reinvent-master-3.2/result/LINK_invent/BTK/process_docking_weight1_custom_sum_contain_oxygen_bond_distance_aromatic_linkinvent_7_9_3/rearranged_h_0036.sdf

> <i_m_source_file_index>
1

> <r_mmod_Potential_Energy-OPLS-2005>
-48.1359939575195

> <r_mmod_Stretch_Energy-OPLS-2005>
33.983959197998

> <r_mmod_Bend_Energy-OPLS-2005>
98.0617752075195

> <r_mmod_Torsional_Energy-OPLS-2005>
199.515380859375

> <r_mmod_Improper_Torsional_Energy-OPLS-2005>
2.52898693084717

> <r_mmod_Van_der_Waal_Energy-OPLS-2005>
153.028121948242

> <r_mmod_Electrostatic_Energy-OPLS-2005>
-347.092071533203

> <r_mmod_Solvation_Energy-OPLS-2005>
-196.136947631836

> <b_mmod_Minimization_Converged-OPLS-2005>
0

> <r_mmod_RMS_Derivative-OPLS-2005>
1.69682264328003

$$$$
1
                    3D
 Structure written by MMmdl.
169177  0  0  1  0            999 V2000
  -30.7658  -14.3903   20.6749 C   0  0  0  0  0  0
  -30.4176  -12.2994   19.4075 C   0  0  0  0  0  0
  -29.4886  -12.5215   18.1996 C   0  0  0  0  0  0
  -28.0138  -12.3734   18.6165 C   0  0  0  0  0  0
  -27.6662  -13.2062   19.8786 C   0  0  2  0  0  0
  -28.7025  -12.9686   20.9996 C   0  0  0  0  0  0
  -25.2609  -13.8167   20.5678 C   0  0  0  0  0  0
  -24.1854  -13.0442   20.9165 C   0  0  0  0  0  0
  -24.6408  -11.6912   20.8739 C   0  0  0  0  0  0
  -23.9076  -10.4297   21.0414 C   0  0  0  0  0  0
  -24.3626   -9.4208   21.9187 C   0  0  0  0  0  0
  -23.6296   -8.2249   22.0759 C   0  0  0  0  0  0
  -22.4278   -8.0288   21.3551 C   0  0  0  0  0  0
  -21.9919   -9.0264   20.4654 C   0  0  0  0  0  0
  -22.7254  -10.2138   20.3059 C   0  0  0  0  0  0
  -21.6851   -6.0744   22.5283 C   0  0  0  0  0  0
  -21.4015   -6.5644   23.8216 C   0  0  0  0  0  0
  -21.3655   -5.6796   24.9175 C   0  0  0  0  0  0
  -21.6047   -4.3063   24.7226 C   0  0  0  0  0  0
  -21.8815   -3.8153   23.4349 C   0  0  0  0  0  0
  -21.9193   -4.6972   22.3406 C   0  0  0  0  0  0
  -22.7882  -13.5250   21.1838 C   0  0  0  0  0  0
  -22.1661   -4.2158   21.0985 F   0  0  0  0  0  0
  -21.5626   -3.4543   25.7737 F   0  0  0  0  0  0
  -30.0448  -13.2576   20.4611 N   0  0  0  0  0  0
  -26.3048  -12.9343   20.3370 N   0  0  0  0  0  0
  -25.9332  -11.6504   20.5760 N   0  0  0  0  0  0
  -22.0515  -12.8241   22.0389 N   0  0  0  0  0  0
  -25.4342  -15.1879   20.4092 N   0  0  0  0  0  0
  -31.7971  -14.6567   20.0508 O   0  0  0  0  0  0
  -21.6639   -6.8886   21.4246 O   0  0  0  0  0  0
  -22.3573  -14.5559   20.6689 O   0  0  0  0  0  0
  -24.6113  -31.8699   23.2123 C   0  0  0  0  0  0
  -25.9027  -32.4831   23.8388 C   0  0  1  0  0  0
  -27.2313  -27.4534   20.0964 C   0  0  0  0  0  0
  -25.5910  -33.8626   24.2330 N   0  0  0  0  0  0
  -23.3990  -30.4908   21.5545 C   0  0  2  0  0  0
  -24.8410  -28.9532   20.1239 C   0  0  0  0  0  0
  -22.7393  -29.4661   22.5037 C   0  0  0  0  0  0
  -18.0259  -28.1358   22.8479 C   0  0  0  0  0  0
  -24.1498  -36.7322   23.2637 C   0  0  0  0  0  0
  -25.9234  -30.8366   21.3655 C   0  0  0  0  0  0
  -26.0003  -29.4705   20.7182 C   0  0  0  0  0  0
  -27.1990  -28.7254   20.7049 C   0  0  0  0  0  0
  -26.0609  -26.9468   19.4946 C   0  0  0  0  0  0
  -24.8638  -27.6869   19.5149 C   0  0  0  0  0  0
  -23.6025  -29.8187   20.1706 C   0  0  0  0  0  0
  -25.4121  -36.3113   24.0338 C   0  0  1  0  0  0
  -20.5852  -28.3642   23.1331 C   0  0  2  0  0  0
  -20.6758  -26.9384   22.5424 C   0  0  0  0  0  0
  -19.5739  -26.6373   21.5216 C   0  0  0  0  0  0
  -18.1903  -26.7907   22.1619 C   0  0  0  0  0  0
  -19.1506  -28.8814   23.2894 C   0  0  0  0  0  0
  -18.9457  -30.1429   23.8896 C   0  0  0  0  0  0
  -17.6462  -30.6574   24.0553 C   0  0  0  0  0  0
  -25.9043  -34.9480   23.5125 C   0  0  0  0  0  0
  -16.5340  -29.9080   23.6334 C   0  0  0  0  0  0
  -16.7252  -28.6499   23.0343 C   0  0  0  0  0  0
  -26.4462  -31.6594   25.0697 C   0  0  0  0  0  0
  -25.3730  -31.3681   26.1438 C   0  0  0  0  0  0
  -27.0308  -30.3045   24.6071 C   0  0  0  0  0  0
  -27.6055  -32.4286   25.7465 C   0  0  0  0  0  0
  -27.5589  -37.1812   24.8461 C   0  0  0  0  0  0
  -21.4130  -29.3015   22.3764 N   0  0  0  0  0  0
  -26.4309  -37.3803   23.9399 N   0  0  0  0  0  0
  -24.6622  -31.0799   22.1027 N   0  0  0  0  0  0
  -23.4165  -28.8228   23.3094 O   0  0  0  0  0  0
  -28.4147  -26.7639   20.0095 O   0  0  0  0  0  0
  -26.5611  -34.8936   22.4687 O   0  0  0  0  0  0
  -23.5315  -32.1454   23.7536 O   0  0  0  0  0  0
  -29.3159  -22.9991   22.0605 C   0  0  0  0  0  0
  -28.0431  -20.6100   21.3587 C   0  0  0  0  0  0
  -28.3493  -23.0250   21.0291 C   0  0  0  0  0  0
  -29.6448  -21.8054   22.7367 C   0  0  0  0  0  0
  -27.7062  -21.8052   20.6878 C   0  0  0  0  0  0
  -29.0083  -20.5897   22.3915 C   0  0  0  0  0  0
  -32.1080  -22.1170   23.2834 C   0  0  0  0  0  0
  -25.2172  -21.9000   20.2728 C   0  0  0  0  0  0
  -28.0043  -24.3269   20.2902 C   0  0  0  0  0  0
  -30.6977  -21.8645   23.8363 C   0  0  0  0  0  0
  -26.6035  -21.7352   19.6398 C   0  0  0  0  0  0
  -30.3497  -17.7320   21.7304 C   0  0  0  0  0  0
  -31.0009  -16.3939   22.1526 C   0  0  0  0  0  0
  -28.5731  -25.6408   20.8766 C   0  0  0  0  0  0
  -29.1303  -18.1506   22.5770 C   0  0  0  0  0  0
  -30.3093  -15.2022   21.6425 N   0  0  0  0  0  0
  -29.3246  -19.4597   23.1207 O   0  0  0  0  0  0
  -31.4616  -12.3963   19.1028 H   0  0  0  0  0  0
  -30.3164  -11.2800   19.7835 H   0  0  0  0  0  0
  -29.7255  -11.8098   17.4078 H   0  0  0  0  0  0
  -29.6581  -13.5151   17.7812 H   0  0  0  0  0  0
  -27.8284  -11.3159   18.8090 H   0  0  0  0  0  0
  -27.3592  -12.6508   17.7895 H   0  0  0  0  0  0
  -27.7200  -14.2576   19.5950 H   0  0  0  0  0  0
  -28.6663  -11.9309   21.3350 H   0  0  0  0  0  0
  -28.4474  -13.5624   21.8775 H   0  0  0  0  0  0
  -25.2769   -9.5676   22.4763 H   0  0  0  0  0  0
  -24.0002   -7.4640   22.7477 H   0  0  0  0  0  0
  -21.0850   -8.8798   19.8957 H   0  0  0  0  0  0
  -22.3727  -10.9684   19.6169 H   0  0  0  0  0  0
  -21.2007   -7.6148   23.9722 H   0  0  0  0  0  0
  -21.1479   -6.0524   25.9077 H   0  0  0  0  0  0
  -22.0598   -2.7617   23.2846 H   0  0  0  0  0  0
  -22.4123  -11.9892   22.4767 H   0  0  0  0  0  0
  -21.1135  -13.1284   22.2593 H   0  0  0  0  0  0
  -24.6714  -15.8467   20.5200 H   0  0  0  0  0  0
  -26.2932  -15.6256   20.1001 H   0  0  0  0  0  0
  -26.7097  -32.5566   23.1164 H   0  0  0  0  0  0
  -25.0048  -33.9772   25.0468 H   0  0  0  0  0  0
  -22.6884  -31.3079   21.4164 H   0  0  0  0  0  0
  -23.3755  -35.9659   23.3306 H   0  0  0  0  0  0
  -24.3590  -36.8927   22.2045 H   0  0  0  0  0  0
  -23.7247  -37.6536   23.6647 H   0  0  0  0  0  0
  -26.0337  -31.6050   20.5977 H   0  0  0  0  0  0
  -26.8116  -30.8883   21.9843 H   0  0  0  0  0  0
  -28.0995  -29.1262   21.1504 H   0  0  0  0  0  0
  -26.0748  -25.9938   18.9861 H   0  0  0  0  0  0
  -23.9762  -27.2830   19.0474 H   0  0  0  0  0  0
  -23.7072  -30.5900   19.4061 H   0  0  0  0  0  0
  -22.7257  -29.2353   19.8826 H   0  0  0  0  0  0
  -25.1289  -36.1991   25.0836 H   0  0  0  0  0  0
  -20.9913  -28.3185   24.1470 H   0  0  0  0  0  0
  -20.5678  -26.2245   23.3605 H   0  0  0  0  0  0
  -21.6630  -26.7450   22.1211 H   0  0  0  0  0  0
  -19.6924  -25.6295   21.1228 H   0  0  0  0  0  0
  -19.6680  -27.3203   20.6750 H   0  0  0  0  0  0
  -17.4191  -26.6653   21.3993 H   0  0  0  0  0  0
  -18.0282  -26.0050   22.9011 H   0  0  0  0  0  0
  -19.7945  -30.7215   24.2278 H   0  0  0  0  0  0
  -17.5034  -31.6266   24.5132 H   0  0  0  0  0  0
  -15.5346  -30.2971   23.7685 H   0  0  0  0  0  0
  -15.8648  -28.0822   22.7048 H   0  0  0  0  0  0
  -24.5950  -30.6975   25.7773 H   0  0  0  0  0  0
  -24.8848  -32.2808   26.4856 H   0  0  0  0  0  0
  -25.8070  -30.8886   27.0220 H   0  0  0  0  0  0
  -26.2849  -29.6776   24.1171 H   0  0  0  0  0  0
  -27.4135  -29.7304   25.4523 H   0  0  0  0  0  0
  -27.8662  -30.4370   23.9189 H   0  0  0  0  0  0
  -27.2717  -33.3603   26.2060 H   0  0  0  0  0  0
  -28.3875  -32.6807   25.0281 H   0  0  0  0  0  0
  -28.0723  -31.8383   26.5366 H   0  0  0  0  0  0
  -28.2611  -38.0108   24.7525 H   0  0  0  0  0  0
  -28.1080  -36.2639   24.6278 H   0  0  0  0  0  0
  -27.2296  -37.1451   25.8862 H   0  0  0  0  0  0
  -20.9311  -29.8744   21.6982 H   0  0  0  0  0  0
  -26.0199  -38.2887   24.1402 H   0  0  0  0  0  0
  -29.8303  -23.8971   22.3639 H   0  0  0  0  0  0
  -27.5088  -19.7158   21.0821 H   0  0  0  0  0  0
  -32.8416  -22.1445   24.0894 H   0  0  0  0  0  0
  -32.1670  -23.0683   22.7542 H   0  0  0  0  0  0
  -32.4077  -21.3311   22.5898 H   0  0  0  0  0  0
  -24.4331  -21.7832   19.5246 H   0  0  0  0  0  0
  -25.1041  -22.8827   20.7295 H   0  0  0  0  0  0
  -25.0494  -21.1560   21.0533 H   0  0  0  0  0  0
  -26.9196  -24.4066   20.2532 H   0  0  0  0  0  0
  -28.3464  -24.2267   19.2598 H   0  0  0  0  0  0
  -30.6995  -20.9481   24.4266 H   0  0  0  0  0  0
  -30.4278  -22.6620   24.5294 H   0  0  0  0  0  0
  -26.6557  -20.7696   19.1368 H   0  0  0  0  0  0
  -26.7542  -22.4739   18.8538 H   0  0  0  0  0  0
  -30.0897  -17.7218   20.6709 H   0  0  0  0  0  0
  -31.1095  -18.5096   21.8303 H   0  0  0  0  0  0
  -31.0519  -16.3287   23.2407 H   0  0  0  0  0  0
  -32.0433  -16.3957   21.8281 H   0  0  0  0  0  0
  -29.6512  -25.5482   21.0015 H   0  0  0  0  0  0
  -28.1553  -25.8445   21.8645 H   0  0  0  0  0  0
  -29.0364  -17.4835   23.4336 H   0  0  0  0  0  0
  -28.1986  -18.0180   22.0309 H   0  0  0  0  0  0
  -29.4672  -14.9107   22.1170 H   0  0  0  0  0  0
  1 25  1  0  0  0
  1 30  2  0  0  0
  1 86  1  0  0  0
  2  3  1  0  0  0
  2 25  1  0  0  0
  2 88  1  0  0  0
  2 89  1  0  0  0
  3  4  1  0  0  0
  3 90  1  0  0  0
  3 91  1  0  0  0
  4  5  1  0  0  0
  4 92  1  0  0  0
  4 93  1  0  0  0
  5  6  1  0  0  0
  5 26  1  0  0  0
  5 94  1  0  0  0
  6 25  1  0  0  0
  6 95  1  0  0  0
  6 96  1  0  0  0
  7  8  2  0  0  0
  7 26  1  0  0  0
  7 29  1  0  0  0
  8  9  1  0  0  0
  8 22  1  0  0  0
  9 10  1  0  0  0
  9 27  2  0  0  0
 10 11  2  0  0  0
 10 15  1  0  0  0
 11 12  1  0  0  0
 11 97  1  0  0  0
 12 13  2  0  0  0
 12 98  1  0  0  0
 13 14  1  0  0  0
 13 31  1  0  0  0
 14 15  2  0  0  0
 14 99  1  0  0  0
 15100  1  0  0  0
 16 17  2  0  0  0
 16 21  1  0  0  0
 16 31  1  0  0  0
 17 18  1  0  0  0
 17101  1  0  0  0
 18 19  2  0  0  0
 18102  1  0  0  0
 19 20  1  0  0  0
 19 24  1  0  0  0
 20 21  2  0  0  0
 20103  1  0  0  0
 21 23  1  0  0  0
 22 28  1  0  0  0
 22 32  2  0  0  0
 26 27  1  0  0  0
 28104  1  0  0  0
 28105  1  0  0  0
 29106  1  0  0  0
 29107  1  0  0  0
 33 34  1  0  0  0
 33 66  1  0  0  0
 33 70  2  0  0  0
 34 36  1  0  0  0
 34 59  1  0  0  0
 34108  1  0  0  0
 35 44  2  0  0  0
 35 45  1  0  0  0
 35 68  1  0  0  0
 36 56  1  0  0  0
 36109  1  0  0  0
 37 39  1  0  0  0
 37 47  1  0  0  0
 37 66  1  0  0  0
 37110  1  0  0  0
 38 43  2  0  0  0
 38 46  1  0  0  0
 38 47  1  0  0  0
 39 64  1  0  0  0
 39 67  2  0  0  0
 40 52  1  0  0  0
 40 53  2  0  0  0
 40 58  1  0  0  0
 41111  1  0  0  0
 41112  1  0  0  0
 41113  1  0  0  0
 41 48  1  0  0  0
 42 43  1  0  0  0
 42 66  1  0  0  0
 42114  1  0  0  0
 42115  1  0  0  0
 43 44  1  0  0  0
 44116  1  0  0  0
 45 46  2  0  0  0
 45117  1  0  0  0
 46118  1  0  0  0
 47119  1  0  0  0
 47120  1  0  0  0
 48 56  1  0  0  0
 48 65  1  0  0  0
 48121  1  0  0  0
 49 50  1  0  0  0
 49 53  1  0  0  0
 49 64  1  0  0  0
 49122  1  0  0  0
 50 51  1  0  0  0
 50123  1  0  0  0
 50124  1  0  0  0
 51 52  1  0  0  0
 51125  1  0  0  0
 51126  1  0  0  0
 52127  1  0  0  0
 52128  1  0  0  0
 53 54  1  0  0  0
 54 55  2  0  0  0
 54129  1  0  0  0
 55 57  1  0  0  0
 55130  1  0  0  0
 56 69  2  0  0  0
 57 58  2  0  0  0
 57131  1  0  0  0
 58132  1  0  0  0
 59 60  1  0  0  0
 59 61  1  0  0  0
 59 62  1  0  0  0
 60133  1  0  0  0
 60134  1  0  0  0
 60135  1  0  0  0
 61136  1  0  0  0
 61137  1  0  0  0
 61138  1  0  0  0
 62139  1  0  0  0
 62140  1  0  0  0
 62141  1  0  0  0
 63 65  1  0  0  0
 63142  1  0  0  0
 63143  1  0  0  0
 63144  1  0  0  0
 64145  1  0  0  0
 65146  1  0  0  0
 68 84  1  0  0  0
 71 73  2  0  0  0
 71 74  1  0  0  0
 71147  1  0  0  0
 72 75  2  0  0  0
 72 76  1  0  0  0
 72148  1  0  0  0
 73 75  1  0  0  0
 73 79  1  0  0  0
 74 76  2  0  0  0
 74 80  1  0  0  0
 75 81  1  0  0  0
 76 87  1  0  0  0
 77 80  1  0  0  0
 77149  1  0  0  0
 77150  1  0  0  0
 77151  1  0  0  0
 78 81  1  0  0  0
 78152  1  0  0  0
 78153  1  0  0  0
 78154  1  0  0  0
 79 84  1  0  0  0
 79155  1  0  0  0
 79156  1  0  0  0
 80157  1  0  0  0
 80158  1  0  0  0
 81159  1  0  0  0
 81160  1  0  0  0
 82 83  1  0  0  0
 82 85  1  0  0  0
 82161  1  0  0  0
 82162  1  0  0  0
 83 86  1  0  0  0
 83163  1  0  0  0
 83164  1  0  0  0
 84165  1  0  0  0
 84166  1  0  0  0
 85 87  1  0  0  0
 85167  1  0  0  0
 85168  1  0  0  0
 86169  1  0  0  0
M  ISO  4   1 100  68 101  84 101  86 100
M  END
> <chiral flag>
0

> <version>
0

> <s_m_source_file>
/data/baiqing/PycharmProjects/Reinvent-master-3.2/result/LINK_invent/BTK/process_docking_weight1_custom_sum_contain_oxygen_bond_distance_aromatic_linkinvent_7_9_3/rearranged_h_0036.sdf

> <i_m_source_file_index>
2

> <r_mmod_Potential_Energy-OPLS-2005>
-42.6022262573242

> <r_mmod_Stretch_Energy-OPLS-2005>
35.3901977539062

> <r_mmod_Bend_Energy-OPLS-2005>
107.741027832031

> <r_mmod_Torsional_Energy-OPLS-2005>
234.422744750977

> <r_mmod_Improper_Torsional_Energy-OPLS-2005>
2.17143774032593

> <r_mmod_Van_der_Waal_Energy-OPLS-2005>
157.836196899414

> <r_mmod_Electrostatic_Energy-OPLS-2005>
-381.379974365234

> <r_mmod_Solvation_Energy-OPLS-2005>
-205.815170288086

> <b_mmod_Minimization_Converged-OPLS-2005>
0

> <r_mmod_RMS_Derivative-OPLS-2005>
2.26431202888489

$$$$
2
                    3D
 Structure written by MMmdl.
168176  0  0  1  0            999 V2000
  -30.7208  -14.4021   20.6142 C   0  0  0  0  0  0
  -30.4132  -12.2823   19.4015 C   0  0  0  0  0  0
  -29.4825  -12.5067   18.1947 C   0  0  0  0  0  0
  -28.0054  -12.3739   18.6138 C   0  0  0  0  0  0
  -27.6622  -13.2004   19.8827 C   0  0  2  0  0  0
  -28.7020  -12.9429   20.9949 C   0  0  0  0  0  0
  -25.2576  -13.8169   20.5673 C   0  0  0  0  0  0
  -24.1813  -13.0452   20.9183 C   0  0  0  0  0  0
  -24.6353  -11.6916   20.8757 C   0  0  0  0  0  0
  -23.9034  -10.4301   21.0418 C   0  0  0  0  0  0
  -24.3593   -9.4226   21.9195 C   0  0  0  0  0  0
  -23.6283   -8.2252   22.0750 C   0  0  0  0  0  0
  -22.4269   -8.0279   21.3543 C   0  0  0  0  0  0
  -21.9907   -9.0255   20.4649 C   0  0  0  0  0  0
  -22.7212  -10.2145   20.3064 C   0  0  0  0  0  0
  -21.6855   -6.0722   22.5280 C   0  0  0  0  0  0
  -21.4011   -6.5624   23.8209 C   0  0  0  0  0  0
  -21.3661   -5.6778   24.9168 C   0  0  0  0  0  0
  -21.6048   -4.3044   24.7230 C   0  0  0  0  0  0
  -21.8821   -3.8129   23.4353 C   0  0  0  0  0  0
  -21.9193   -4.6947   22.3399 C   0  0  0  0  0  0
  -22.7838  -13.5269   21.1850 C   0  0  0  0  0  0
  -22.1646   -4.2115   21.0978 F   0  0  0  0  0  0
  -21.5647   -3.4534   25.7751 F   0  0  0  0  0  0
  -30.0365  -13.2442   20.4451 N   0  0  0  0  0  0
  -26.3009  -12.9321   20.3421 N   0  0  0  0  0  0
  -25.9282  -11.6487   20.5800 N   0  0  0  0  0  0
  -22.0472  -12.8286   22.0425 N   0  0  0  0  0  0
  -25.4325  -15.1871   20.4013 N   0  0  0  0  0  0
  -31.8110  -14.6329   20.0816 O   0  0  0  0  0  0
  -21.6644   -6.8871   21.4233 O   0  0  0  0  0  0
  -22.3541  -14.5559   20.6680 O   0  0  0  0  0  0
  -24.6111  -31.8694   23.2100 C   0  0  0  0  0  0
  -25.9034  -32.4814   23.8386 C   0  0  1  0  0  0
  -27.2300  -27.4625   20.0890 C   0  0  0  0  0  0
  -25.5918  -33.8619   24.2335 N   0  0  0  0  0  0
  -23.3941  -30.4932   21.5509 C   0  0  2  0  0  0
  -24.8373  -28.9622   20.1100 C   0  0  0  0  0  0
  -22.7382  -29.4682   22.5017 C   0  0  0  0  0  0
  -18.0260  -28.1370   22.8481 C   0  0  0  0  0  0
  -24.1490  -36.7319   23.2636 C   0  0  0  0  0  0
  -25.9203  -30.8440   21.3563 C   0  0  0  0  0  0
  -25.9957  -29.4814   20.7024 C   0  0  0  0  0  0
  -27.1928  -28.7385   20.6882 C   0  0  0  0  0  0
  -26.0569  -26.9516   19.4881 C   0  0  0  0  0  0
  -24.8634  -27.6961   19.4997 C   0  0  0  0  0  0
  -23.5954  -29.8214   20.1657 C   0  0  0  0  0  0
  -25.4112  -36.3109   24.0330 C   0  0  1  0  0  0
  -20.5847  -28.3660   23.1343 C   0  0  2  0  0  0
  -20.6765  -26.9406   22.5434 C   0  0  0  0  0  0
  -19.5751  -26.6403   21.5216 C   0  0  0  0  0  0
  -18.1927  -26.7910   22.1630 C   0  0  0  0  0  0
  -19.1506  -28.8831   23.2900 C   0  0  0  0  0  0
  -18.9433  -30.1441   23.8901 C   0  0  0  0  0  0
  -17.6434  -30.6576   24.0563 C   0  0  0  0  0  0
  -25.9037  -34.9473   23.5124 C   0  0  0  0  0  0
  -16.5328  -29.9075   23.6326 C   0  0  0  0  0  0
  -16.7248  -28.6496   23.0340 C   0  0  0  0  0  0
  -26.4469  -31.6575   25.0698 C   0  0  0  0  0  0
  -25.3751  -31.3705   26.1460 C   0  0  0  0  0  0
  -27.0278  -30.3008   24.6066 C   0  0  0  0  0  0
  -27.6037  -32.4292   25.7464 C   0  0  0  0  0  0
  -27.5578  -37.1816   24.8458 C   0  0  0  0  0  0
  -21.4117  -29.3027   22.3752 N   0  0  0  0  0  0
  -26.4295  -37.3799   23.9401 N   0  0  0  0  0  0
  -24.6602  -31.0827   22.0980 N   0  0  0  0  0  0
  -23.4174  -28.8251   23.3067 O   0  0  0  0  0  0
  -28.4160  -26.7637   20.1432 O   0  0  0  0  0  0
  -26.5592  -34.8904   22.4680 O   0  0  0  0  0  0
  -23.5317  -32.1452   23.7518 O   0  0  0  0  0  0
  -26.5387  -23.4568   23.6184 C   0  0  0  0  0  0
  -26.9448  -22.6670   22.5300 C   0  0  0  0  0  0
  -27.3552  -25.4330   22.4621 C   0  0  0  0  0  0
  -26.7555  -24.8436   23.5926 C   0  0  0  0  0  0
  -27.5388  -23.2454   21.3831 C   0  0  0  0  0  0
  -27.7259  -24.6573   21.3353 C   0  0  0  0  0  0
  -26.3526  -25.6960   24.7803 C   0  0  0  0  0  0
  -28.0688  -22.3162   20.2870 C   0  0  0  0  0  0
  -28.3798  -25.3348   20.1207 C   0  0  0  0  0  0
  -28.6521  -18.0864   20.6388 C   0  0  0  0  0  0
  -30.1358  -17.6961   20.5461 C   0  0  0  0  0  0
  -28.3085  -19.2486   19.6876 C   0  0  0  0  0  0
  -30.5846  -16.6768   21.6093 C   0  0  0  0  0  0
  -27.0361  -20.0291   20.1004 C   0  0  0  0  0  0
  -30.0894  -15.3293   21.3435 N   0  0  0  0  0  0
  -27.0415  -21.4476   19.6632 N   0  3  0  0  0  0
  -31.4580  -12.3754   19.0979 H   0  0  0  0  0  0
  -30.3053  -11.2661   19.7833 H   0  0  0  0  0  0
  -29.7088  -11.7879   17.4064 H   0  0  0  0  0  0
  -29.6606  -13.4954   17.7677 H   0  0  0  0  0  0
  -27.8134  -11.3174   18.8022 H   0  0  0  0  0  0
  -27.3519  -12.6573   17.7879 H   0  0  0  0  0  0
  -27.7221  -14.2556   19.6128 H   0  0  0  0  0  0
  -28.6702  -11.8984   21.3106 H   0  0  0  0  0  0
  -28.4597  -13.5154   21.8916 H   0  0  0  0  0  0
  -25.2723   -9.5701   22.4791 H   0  0  0  0  0  0
  -23.9978   -7.4643   22.7479 H   0  0  0  0  0  0
  -21.0838   -8.8783   19.8966 H   0  0  0  0  0  0
  -22.3667  -10.9690   19.6178 H   0  0  0  0  0  0
  -21.1990   -7.6124   23.9706 H   0  0  0  0  0  0
  -21.1484   -6.0500   25.9071 H   0  0  0  0  0  0
  -22.0606   -2.7590   23.2861 H   0  0  0  0  0  0
  -22.4060  -11.9899   22.4735 H   0  0  0  0  0  0
  -21.1092  -13.1342   22.2640 H   0  0  0  0  0  0
  -24.6645  -15.8437   20.4825 H   0  0  0  0  0  0
  -26.2786  -15.6118   20.0463 H   0  0  0  0  0  0
  -26.7115  -32.5534   23.1163 H   0  0  0  0  0  0
  -25.0095  -33.9790   25.0496 H   0  0  0  0  0  0
  -22.6802  -31.3079   21.4153 H   0  0  0  0  0  0
  -23.3729  -35.9673   23.3300 H   0  0  0  0  0  0
  -24.3596  -36.8940   22.2052 H   0  0  0  0  0  0
  -23.7259  -37.6536   23.6645 H   0  0  0  0  0  0
  -26.0260  -31.6090   20.5837 H   0  0  0  0  0  0
  -26.8131  -30.8998   21.9686 H   0  0  0  0  0  0
  -28.0830  -29.1334   21.1572 H   0  0  0  0  0  0
  -26.0422  -25.9833   19.0091 H   0  0  0  0  0  0
  -23.9753  -27.2890   19.0369 H   0  0  0  0  0  0
  -23.6905  -30.5940   19.4025 H   0  0  0  0  0  0
  -22.7201  -29.2332   19.8803 H   0  0  0  0  0  0
  -25.1287  -36.1979   25.0823 H   0  0  0  0  0  0
  -20.9910  -28.3216   24.1473 H   0  0  0  0  0  0
  -20.5680  -26.2260   23.3613 H   0  0  0  0  0  0
  -21.6646  -26.7467   22.1240 H   0  0  0  0  0  0
  -19.6915  -25.6326   21.1221 H   0  0  0  0  0  0
  -19.6686  -27.3239   20.6760 H   0  0  0  0  0  0
  -17.4206  -26.6633   21.4028 H   0  0  0  0  0  0
  -18.0327  -26.0065   22.9035 H   0  0  0  0  0  0
  -19.7917  -30.7259   24.2265 H   0  0  0  0  0  0
  -17.4992  -31.6251   24.5173 H   0  0  0  0  0  0
  -15.5331  -30.2980   23.7643 H   0  0  0  0  0  0
  -15.8646  -28.0826   22.7037 H   0  0  0  0  0  0
  -24.5880  -30.7088   25.7828 H   0  0  0  0  0  0
  -24.8973  -32.2868   26.4935 H   0  0  0  0  0  0
  -25.8101  -30.8866   27.0209 H   0  0  0  0  0  0
  -26.2812  -29.6779   24.1119 H   0  0  0  0  0  0
  -27.4051  -29.7230   25.4517 H   0  0  0  0  0  0
  -27.8638  -30.4321   23.9192 H   0  0  0  0  0  0
  -27.2647  -33.3580   26.2065 H   0  0  0  0  0  0
  -28.3825  -32.6884   25.0281 H   0  0  0  0  0  0
  -28.0720  -31.8405   26.5369 H   0  0  0  0  0  0
  -28.2607  -38.0105   24.7497 H   0  0  0  0  0  0
  -28.1069  -36.2636   24.6286 H   0  0  0  0  0  0
  -27.2293  -37.1460   25.8864 H   0  0  0  0  0  0
  -20.9264  -29.8726   21.6960 H   0  0  0  0  0  0
  -26.0176  -38.2882   24.1380 H   0  0  0  0  0  0
  -26.0833  -22.9893   24.4821 H   0  0  0  0  0  0
  -26.8129  -21.5984   22.6072 H   0  0  0  0  0  0
  -27.5385  -26.4975   22.4749 H   0  0  0  0  0  0
  -25.2672  -25.7580   24.8521 H   0  0  0  0  0  0
  -26.7447  -26.7099   24.6957 H   0  0  0  0  0  0
  -26.7349  -25.2652   25.7073 H   0  0  0  0  0  0
  -28.8756  -21.7377   20.7332 H   0  0  0  0  0  0
  -28.5422  -22.8663   19.4762 H   0  0  0  0  0  0
  -27.9364  -24.9895   19.1868 H   0  0  0  0  0  0
  -29.4162  -25.0022   20.0918 H   0  0  0  0  0  0
  -28.4470  -18.3831   21.6692 H   0  0  0  0  0  0
  -28.0117  -17.2277   20.4322 H   0  0  0  0  0  0
  -30.7375  -18.5971   20.6841 H   0  0  0  0  0  0
  -30.3678  -17.3338   19.5428 H   0  0  0  0  0  0
  -28.2105  -18.8829   18.6657 H   0  0  0  0  0  0
  -29.1656  -19.9164   19.6591 H   0  0  0  0  0  0
  -30.2401  -16.9884   22.5974 H   0  0  0  0  0  0
  -31.6751  -16.6698   21.6598 H   0  0  0  0  0  0
  -26.8911  -19.9909   21.1779 H   0  0  0  0  0  0
  -26.1637  -19.5319   19.6730 H   0  0  0  0  0  0
  -29.1907  -15.0750   21.7263 H   0  0  0  0  0  0
  -27.1871  -21.4686   18.6666 H   0  0  0  0  0  0
  -26.1353  -21.8521   19.8322 H   0  0  0  0  0  0
  1 25  1  0  0  0
  1 30  2  0  0  0
  1 85  1  0  0  0
  2  3  1  0  0  0
  2 25  1  0  0  0
  2 87  1  0  0  0
  2 88  1  0  0  0
  3  4  1  0  0  0
  3 89  1  0  0  0
  3 90  1  0  0  0
  4  5  1  0  0  0
  4 91  1  0  0  0
  4 92  1  0  0  0
  5  6  1  0  0  0
  5 26  1  0  0  0
  5 93  1  0  0  0
  6 25  1  0  0  0
  6 94  1  0  0  0
  6 95  1  0  0  0
  7  8  2  0  0  0
  7 26  1  0  0  0
  7 29  1  0  0  0
  8  9  1  0  0  0
  8 22  1  0  0  0
  9 10  1  0  0  0
  9 27  2  0  0  0
 10 11  2  0  0  0
 10 15  1  0  0  0
 11 12  1  0  0  0
 11 96  1  0  0  0
 12 13  2  0  0  0
 12 97  1  0  0  0
 13 14  1  0  0  0
 13 31  1  0  0  0
 14 15  2  0  0  0
 14 98  1  0  0  0
 15 99  1  0  0  0
 16 17  2  0  0  0
 16 21  1  0  0  0
 16 31  1  0  0  0
 17 18  1  0  0  0
 17100  1  0  0  0
 18 19  2  0  0  0
 18101  1  0  0  0
 19 20  1  0  0  0
 19 24  1  0  0  0
 20 21  2  0  0  0
 20102  1  0  0  0
 21 23  1  0  0  0
 22 28  1  0  0  0
 22 32  2  0  0  0
 26 27  1  0  0  0
 28103  1  0  0  0
 28104  1  0  0  0
 29105  1  0  0  0
 29106  1  0  0  0
 33 34  1  0  0  0
 33 66  1  0  0  0
 33 70  2  0  0  0
 34 36  1  0  0  0
 34 59  1  0  0  0
 34107  1  0  0  0
 35 44  2  0  0  0
 35 45  1  0  0  0
 35 68  1  0  0  0
 36 56  1  0  0  0
 36108  1  0  0  0
 37 39  1  0  0  0
 37 47  1  0  0  0
 37 66  1  0  0  0
 37109  1  0  0  0
 38 43  2  0  0  0
 38 46  1  0  0  0
 38 47  1  0  0  0
 39 64  1  0  0  0
 39 67  2  0  0  0
 40 52  1  0  0  0
 40 53  2  0  0  0
 40 58  1  0  0  0
 41110  1  0  0  0
 41111  1  0  0  0
 41112  1  0  0  0
 41 48  1  0  0  0
 42 43  1  0  0  0
 42 66  1  0  0  0
 42113  1  0  0  0
 42114  1  0  0  0
 43 44  1  0  0  0
 44115  1  0  0  0
 45 46  2  0  0  0
 45116  1  0  0  0
 46117  1  0  0  0
 47118  1  0  0  0
 47119  1  0  0  0
 48 56  1  0  0  0
 48 65  1  0  0  0
 48120  1  0  0  0
 49 50  1  0  0  0
 49 53  1  0  0  0
 49 64  1  0  0  0
 49121  1  0  0  0
 50 51  1  0  0  0
 50122  1  0  0  0
 50123  1  0  0  0
 51 52  1  0  0  0
 51124  1  0  0  0
 51125  1  0  0  0
 52126  1  0  0  0
 52127  1  0  0  0
 53 54  1  0  0  0
 54 55  2  0  0  0
 54128  1  0  0  0
 55 57  1  0  0  0
 55129  1  0  0  0
 56 69  2  0  0  0
 57 58  2  0  0  0
 57130  1  0  0  0
 58131  1  0  0  0
 59 60  1  0  0  0
 59 61  1  0  0  0
 59 62  1  0  0  0
 60132  1  0  0  0
 60133  1  0  0  0
 60134  1  0  0  0
 61135  1  0  0  0
 61136  1  0  0  0
 61137  1  0  0  0
 62138  1  0  0  0
 62139  1  0  0  0
 62140  1  0  0  0
 63 65  1  0  0  0
 63141  1  0  0  0
 63142  1  0  0  0
 63143  1  0  0  0
 64144  1  0  0  0
 65145  1  0  0  0
 68 79  1  0  0  0
 71 72  2  0  0  0
 71 74  1  0  0  0
 71146  1  0  0  0
 72 75  1  0  0  0
 72147  1  0  0  0
 73 74  2  0  0  0
 73 76  1  0  0  0
 73148  1  0  0  0
 74 77  1  0  0  0
 75 76  2  0  0  0
 75 78  1  0  0  0
 76 79  1  0  0  0
 77149  1  0  0  0
 77150  1  0  0  0
 77151  1  0  0  0
 78 86  1  0  0  0
 78152  1  0  0  0
 78153  1  0  0  0
 79154  1  0  0  0
 79155  1  0  0  0
 80 81  1  0  0  0
 80 82  1  0  0  0
 80156  1  0  0  0
 80157  1  0  0  0
 81 83  1  0  0  0
 81158  1  0  0  0
 81159  1  0  0  0
 82 84  1  0  0  0
 82160  1  0  0  0
 82161  1  0  0  0
 83 85  1  0  0  0
 83162  1  0  0  0
 83163  1  0  0  0
 84 86  1  0  0  0
 84164  1  0  0  0
 84165  1  0  0  0
 85166  1  0  0  0
 86167  1  0  0  0
 86168  1  0  0  0
M  CHG  1  86   1
M  ISO  4   1 100  68 101  79 101  85 100
M  END
> <chiral flag>
0

> <version>
0

> <s_m_source_file>
/data/baiqing/PycharmProjects/Reinvent-master-3.2/result/LINK_invent/BTK/process_docking_weight1_custom_sum_contain_oxygen_bond_distance_aromatic_linkinvent_7_9_3/rearranged_h_0036.sdf

> <i_m_source_file_index>
3

> <r_mmod_Potential_Energy-OPLS-2005>
-245.030426025391

> <r_mmod_Stretch_Energy-OPLS-2005>
34.5731658935547

> <r_mmod_Bend_Energy-OPLS-2005>
98.3455657958984

> <r_mmod_Torsional_Energy-OPLS-2005>
214.193481445312

> <r_mmod_Improper_Torsional_Energy-OPLS-2005>
2.82024788856506

> <r_mmod_Van_der_Waal_Energy-OPLS-2005>
156.547088623047

> <r_mmod_Electrostatic_Energy-OPLS-2005>
-285.853546142578

> <r_mmod_Solvation_Energy-OPLS-2005>
-475.22021484375

> <b_mmod_Minimization_Converged-OPLS-2005>
0

> <r_mmod_RMS_Derivative-OPLS-2005>
2.95408153533936

$$$$
3
                    3D
 Structure written by MMmdl.
162170  0  0  1  0            999 V2000
  -30.6951  -14.4491   20.5870 C   0  0  0  0  0  0
  -30.4279  -12.2975   19.4137 C   0  0  0  0  0  0
  -29.4946  -12.5100   18.2030 C   0  0  0  0  0  0
  -28.0152  -12.3709   18.6151 C   0  0  0  0  0  0
  -27.6657  -13.2005   19.8793 C   0  0  2  0  0  0
  -28.7066  -12.9556   20.9958 C   0  0  0  0  0  0
  -25.2607  -13.8146   20.5671 C   0  0  0  0  0  0
  -24.1848  -13.0435   20.9164 C   0  0  0  0  0  0
  -24.6393  -11.6899   20.8726 C   0  0  0  0  0  0
  -23.9054  -10.4293   21.0404 C   0  0  0  0  0  0
  -24.3608   -9.4209   21.9181 C   0  0  0  0  0  0
  -23.6287   -8.2244   22.0753 C   0  0  0  0  0  0
  -22.4269   -8.0281   21.3543 C   0  0  0  0  0  0
  -21.9901   -9.0252   20.4647 C   0  0  0  0  0  0
  -22.7226  -10.2134   20.3054 C   0  0  0  0  0  0
  -21.6853   -6.0733   22.5280 C   0  0  0  0  0  0
  -21.4013   -6.5638   23.8212 C   0  0  0  0  0  0
  -21.3660   -5.6793   24.9175 C   0  0  0  0  0  0
  -21.6044   -4.3054   24.7227 C   0  0  0  0  0  0
  -21.8819   -3.8145   23.4348 C   0  0  0  0  0  0
  -21.9193   -4.6961   22.3404 C   0  0  0  0  0  0
  -22.7872  -13.5241   21.1833 C   0  0  0  0  0  0
  -22.1661   -4.2146   21.0981 F   0  0  0  0  0  0
  -21.5631   -3.4538   25.7741 F   0  0  0  0  0  0
  -30.0407  -13.2654   20.4498 N   0  0  0  0  0  0
  -26.3044  -12.9306   20.3380 N   0  0  0  0  0  0
  -25.9318  -11.6469   20.5758 N   0  0  0  0  0  0
  -22.0513  -12.8238   22.0397 N   0  0  0  0  0  0
  -25.4346  -15.1861   20.4079 N   0  0  0  0  0  0
  -31.8055  -14.6728   20.0963 O   0  0  0  0  0  0
  -21.6636   -6.8875   21.4241 O   0  0  0  0  0  0
  -22.3560  -14.5552   20.6689 O   0  0  0  0  0  0
  -24.6136  -31.8687   23.2108 C   0  0  0  0  0  0
  -25.9032  -32.4827   23.8402 C   0  0  1  0  0  0
  -27.2354  -27.4446   20.1000 C   0  0  0  0  0  0
  -25.5892  -33.8626   24.2333 N   0  0  0  0  0  0
  -23.4012  -30.4919   21.5510 C   0  0  2  0  0  0
  -24.8486  -28.9581   20.1167 C   0  0  0  0  0  0
  -22.7402  -29.4662   22.4996 C   0  0  0  0  0  0
  -18.0271  -28.1376   22.8494 C   0  0  0  0  0  0
  -24.1487  -36.7321   23.2639 C   0  0  0  0  0  0
  -25.9288  -30.8381   21.3620 C   0  0  0  0  0  0
  -26.0081  -29.4725   20.7113 C   0  0  0  0  0  0
  -27.2070  -28.7244   20.6971 C   0  0  0  0  0  0
  -26.0621  -26.9453   19.4934 C   0  0  0  0  0  0
  -24.8697  -27.6927   19.5047 C   0  0  0  0  0  0
  -23.6097  -29.8231   20.1660 C   0  0  0  0  0  0
  -25.4106  -36.3117   24.0339 C   0  0  1  0  0  0
  -20.5859  -28.3661   23.1322 C   0  0  2  0  0  0
  -20.6761  -26.9399   22.5418 C   0  0  0  0  0  0
  -19.5741  -26.6386   21.5213 C   0  0  0  0  0  0
  -18.1920  -26.7924   22.1625 C   0  0  0  0  0  0
  -19.1519  -28.8834   23.2907 C   0  0  0  0  0  0
  -18.9449  -30.1441   23.8916 C   0  0  0  0  0  0
  -17.6451  -30.6583   24.0566 C   0  0  0  0  0  0
  -25.9029  -34.9480   23.5134 C   0  0  0  0  0  0
  -16.5342  -29.9087   23.6325 C   0  0  0  0  0  0
  -16.7259  -28.6503   23.0346 C   0  0  0  0  0  0
  -26.4468  -31.6601   25.0722 C   0  0  0  0  0  0
  -25.3742  -31.3699   26.1474 C   0  0  0  0  0  0
  -27.0296  -30.3048   24.6081 C   0  0  0  0  0  0
  -27.6049  -32.4316   25.7481 C   0  0  0  0  0  0
  -27.5581  -37.1815   24.8465 C   0  0  0  0  0  0
  -21.4132  -29.3032   22.3732 N   0  0  0  0  0  0
  -26.4296  -37.3797   23.9406 N   0  0  0  0  0  0
  -24.6660  -31.0801   22.1002 N   0  0  0  0  0  0
  -23.4179  -28.8204   23.3035 O   0  0  0  0  0  0
  -28.3996  -26.7100   20.0794 O   0  0  0  0  0  0
  -26.5591  -34.8928   22.4695 O   0  0  0  0  0  0
  -23.5331  -32.1432   23.7510 O   0  0  0  0  0  0
  -30.6218  -24.6634   19.9037 C   0  0  0  0  0  0
  -28.7481  -23.1663   19.5150 C   0  0  0  0  0  0
  -29.2468  -24.3908   20.0112 C   0  0  0  0  0  0
  -31.4831  -23.7459   19.2666 C   0  0  0  0  0  0
  -29.5905  -22.2312   18.8643 C   0  0  0  0  0  0
  -30.9708  -22.5408   18.7240 C   0  0  0  0  0  0
  -32.9585  -24.0851   19.1438 C   0  0  0  0  0  0
  -28.9182  -21.0134   18.2126 C   0  0  0  0  0  0
  -28.3136  -25.4027   20.6668 C   0  0  0  0  0  0
  -29.5017  -19.5873   18.3905 C   0  0  0  0  0  0
  -29.7264  -19.0557   19.8218 C   0  0  0  0  0  0
  -29.8385  -17.5115   19.8175 C   0  0  0  0  0  0
  -30.2447  -16.8637   21.1600 C   0  0  0  0  0  0
  -29.9727  -15.4216   21.1664 N   0  0  0  0  0  0
  -32.0464  -21.5072   17.8463 Cl  0  0  0  0  0  0
  -31.4716  -12.4054   19.1123 H   0  0  0  0  0  0
  -30.3341  -11.2806   19.7983 H   0  0  0  0  0  0
  -29.7309  -11.7933   17.4155 H   0  0  0  0  0  0
  -29.6641  -13.5000   17.7765 H   0  0  0  0  0  0
  -27.8209  -11.3138   18.8006 H   0  0  0  0  0  0
  -27.3658  -12.6568   17.7870 H   0  0  0  0  0  0
  -27.7174  -14.2520   19.5950 H   0  0  0  0  0  0
  -28.6793  -11.9125   21.3140 H   0  0  0  0  0  0
  -28.4666  -13.5325   21.8900 H   0  0  0  0  0  0
  -25.2756   -9.5686   22.4749 H   0  0  0  0  0  0
  -23.9999   -7.4635   22.7472 H   0  0  0  0  0  0
  -21.0831   -8.8769   19.8952 H   0  0  0  0  0  0
  -22.3684  -10.9670   19.6160 H   0  0  0  0  0  0
  -21.2003   -7.6147   23.9713 H   0  0  0  0  0  0
  -21.1483   -6.0525   25.9078 H   0  0  0  0  0  0
  -22.0598   -2.7607   23.2851 H   0  0  0  0  0  0
  -22.4125  -11.9893   22.4777 H   0  0  0  0  0  0
  -21.1135  -13.1271   22.2607 H   0  0  0  0  0  0
  -24.6715  -15.8452   20.5172 H   0  0  0  0  0  0
  -26.2926  -15.6229   20.0954 H   0  0  0  0  0  0
  -26.7105  -32.5550   23.1172 H   0  0  0  0  0  0
  -25.0051  -33.9792   25.0484 H   0  0  0  0  0  0
  -22.6895  -31.3083   21.4117 H   0  0  0  0  0  0
  -23.3741  -35.9662   23.3316 H   0  0  0  0  0  0
  -24.3582  -36.8918   22.2050 H   0  0  0  0  0  0
  -23.7247  -37.6536   23.6640 H   0  0  0  0  0  0
  -26.0374  -31.6035   20.5924 H   0  0  0  0  0  0
  -26.8181  -30.8939   21.9780 H   0  0  0  0  0  0
  -28.1046  -29.1193   21.1529 H   0  0  0  0  0  0
  -26.0696  -25.9814   19.0041 H   0  0  0  0  0  0
  -23.9804  -27.2927   19.0377 H   0  0  0  0  0  0
  -23.7166  -30.5972   19.4053 H   0  0  0  0  0  0
  -22.7345  -29.2413   19.8715 H   0  0  0  0  0  0
  -25.1283  -36.1989   25.0833 H   0  0  0  0  0  0
  -20.9953  -28.3224   24.1442 H   0  0  0  0  0  0
  -20.5667  -26.2266   23.3602 H   0  0  0  0  0  0
  -21.6633  -26.7446   22.1209 H   0  0  0  0  0  0
  -19.6903  -25.6302   21.1230 H   0  0  0  0  0  0
  -19.6683  -27.3208   20.6753 H   0  0  0  0  0  0
  -17.4190  -26.6672   21.4026 H   0  0  0  0  0  0
  -18.0322  -26.0061   22.9017 H   0  0  0  0  0  0
  -19.7924  -30.7251   24.2294 H   0  0  0  0  0  0
  -17.5007  -31.6266   24.5163 H   0  0  0  0  0  0
  -15.5344  -30.2996   23.7638 H   0  0  0  0  0  0
  -15.8659  -28.0831   22.7049 H   0  0  0  0  0  0
  -24.5910  -30.7052   25.7812 H   0  0  0  0  0  0
  -24.8938  -32.2852   26.4944 H   0  0  0  0  0  0
  -25.8102  -30.8853   27.0218 H   0  0  0  0  0  0
  -26.2833  -29.6813   24.1143 H   0  0  0  0  0  0
  -27.4085  -29.7280   25.4529 H   0  0  0  0  0  0
  -27.8660  -30.4377   23.9214 H   0  0  0  0  0  0
  -27.2671  -33.3601   26.2097 H   0  0  0  0  0  0
  -28.3837  -32.6899   25.0293 H   0  0  0  0  0  0
  -28.0740  -31.8414   26.5364 H   0  0  0  0  0  0
  -28.2610  -38.0101   24.7502 H   0  0  0  0  0  0
  -28.1065  -36.2633   24.6304 H   0  0  0  0  0  0
  -27.2298  -37.1483   25.8869 H   0  0  0  0  0  0
  -20.9287  -29.8759   21.6963 H   0  0  0  0  0  0
  -26.0190  -38.2880   24.1397 H   0  0  0  0  0  0
  -31.0085  -25.5934   20.2972 H   0  0  0  0  0  0
  -27.6892  -22.9647   19.5968 H   0  0  0  0  0  0
  -33.2007  -25.0189   19.6518 H   0  0  0  0  0  0
  -33.2400  -24.1917   18.0959 H   0  0  0  0  0  0
  -33.5693  -23.2980   19.5867 H   0  0  0  0  0  0
  -28.8618  -21.2249   17.1439 H   0  0  0  0  0  0
  -27.8801  -20.9785   18.5450 H   0  0  0  0  0  0
  -28.5973  -25.4898   21.7163 H   0  0  0  0  0  0
  -27.3003  -25.0000   20.6714 H   0  0  0  0  0  0
  -30.4213  -19.4686   17.8213 H   0  0  0  0  0  0
  -28.7993  -18.9188   17.8907 H   0  0  0  0  0  0
  -28.8967  -19.3539   20.4641 H   0  0  0  0  0  0
  -30.6267  -19.5055   20.2428 H   0  0  0  0  0  0
  -30.5554  -17.2049   19.0537 H   0  0  0  0  0  0
  -28.8759  -17.1052   19.5024 H   0  0  0  0  0  0
  -29.6731  -17.3111   21.9740 H   0  0  0  0  0  0
  -31.2971  -17.0555   21.3766 H   0  0  0  0  0  0
  -29.0828  -15.1337   21.5461 H   0  0  0  0  0  0
  1 25  1  0  0  0
  1 30  2  0  0  0
  1 84  1  0  0  0
  2  3  1  0  0  0
  2 25  1  0  0  0
  2 86  1  0  0  0
  2 87  1  0  0  0
  3  4  1  0  0  0
  3 88  1  0  0  0
  3 89  1  0  0  0
  4  5  1  0  0  0
  4 90  1  0  0  0
  4 91  1  0  0  0
  5  6  1  0  0  0
  5 26  1  0  0  0
  5 92  1  0  0  0
  6 25  1  0  0  0
  6 93  1  0  0  0
  6 94  1  0  0  0
  7  8  2  0  0  0
  7 26  1  0  0  0
  7 29  1  0  0  0
  8  9  1  0  0  0
  8 22  1  0  0  0
  9 10  1  0  0  0
  9 27  2  0  0  0
 10 11  2  0  0  0
 10 15  1  0  0  0
 11 12  1  0  0  0
 11 95  1  0  0  0
 12 13  2  0  0  0
 12 96  1  0  0  0
 13 14  1  0  0  0
 13 31  1  0  0  0
 14 15  2  0  0  0
 14 97  1  0  0  0
 15 98  1  0  0  0
 16 17  2  0  0  0
 16 21  1  0  0  0
 16 31  1  0  0  0
 17 18  1  0  0  0
 17 99  1  0  0  0
 18 19  2  0  0  0
 18100  1  0  0  0
 19 20  1  0  0  0
 19 24  1  0  0  0
 20 21  2  0  0  0
 20101  1  0  0  0
 21 23  1  0  0  0
 22 28  1  0  0  0
 22 32  2  0  0  0
 26 27  1  0  0  0
 28102  1  0  0  0
 28103  1  0  0  0
 29104  1  0  0  0
 29105  1  0  0  0
 33 34  1  0  0  0
 33 66  1  0  0  0
 33 70  2  0  0  0
 34 36  1  0  0  0
 34 59  1  0  0  0
 34106  1  0  0  0
 35 44  2  0  0  0
 35 45  1  0  0  0
 35 68  1  0  0  0
 36 56  1  0  0  0
 36107  1  0  0  0
 37 39  1  0  0  0
 37 47  1  0  0  0
 37 66  1  0  0  0
 37108  1  0  0  0
 38 43  2  0  0  0
 38 46  1  0  0  0
 38 47  1  0  0  0
 39 64  1  0  0  0
 39 67  2  0  0  0
 40 52  1  0  0  0
 40 53  2  0  0  0
 40 58  1  0  0  0
 41109  1  0  0  0
 41110  1  0  0  0
 41111  1  0  0  0
 41 48  1  0  0  0
 42 43  1  0  0  0
 42 66  1  0  0  0
 42112  1  0  0  0
 42113  1  0  0  0
 43 44  1  0  0  0
 44114  1  0  0  0
 45 46  2  0  0  0
 45115  1  0  0  0
 46116  1  0  0  0
 47117  1  0  0  0
 47118  1  0  0  0
 48 56  1  0  0  0
 48 65  1  0  0  0
 48119  1  0  0  0
 49 50  1  0  0  0
 49 53  1  0  0  0
 49 64  1  0  0  0
 49120  1  0  0  0
 50 51  1  0  0  0
 50121  1  0  0  0
 50122  1  0  0  0
 51 52  1  0  0  0
 51123  1  0  0  0
 51124  1  0  0  0
 52125  1  0  0  0
 52126  1  0  0  0
 53 54  1  0  0  0
 54 55  2  0  0  0
 54127  1  0  0  0
 55 57  1  0  0  0
 55128  1  0  0  0
 56 69  2  0  0  0
 57 58  2  0  0  0
 57129  1  0  0  0
 58130  1  0  0  0
 59 60  1  0  0  0
 59 61  1  0  0  0
 59 62  1  0  0  0
 60131  1  0  0  0
 60132  1  0  0  0
 60133  1  0  0  0
 61134  1  0  0  0
 61135  1  0  0  0
 61136  1  0  0  0
 62137  1  0  0  0
 62138  1  0  0  0
 62139  1  0  0  0
 63 65  1  0  0  0
 63140  1  0  0  0
 63141  1  0  0  0
 63142  1  0  0  0
 64143  1  0  0  0
 65144  1  0  0  0
 68 79  1  0  0  0
 71 73  2  0  0  0
 71 74  1  0  0  0
 71145  1  0  0  0
 72 73  1  0  0  0
 72 75  2  0  0  0
 72146  1  0  0  0
 73 79  1  0  0  0
 74 76  2  0  0  0
 74 77  1  0  0  0
 75 76  1  0  0  0
 75 78  1  0  0  0
 76 85  1  0  0  0
 77147  1  0  0  0
 77148  1  0  0  0
 77149  1  0  0  0
 78 80  1  0  0  0
 78150  1  0  0  0
 78151  1  0  0  0
 79152  1  0  0  0
 79153  1  0  0  0
 80 81  1  0  0  0
 80154  1  0  0  0
 80155  1  0  0  0
 81 82  1  0  0  0
 81156  1  0  0  0
 81157  1  0  0  0
 82 83  1  0  0  0
 82158  1  0  0  0
 82159  1  0  0  0
 83 84  1  0  0  0
 83160  1  0  0  0
 83161  1  0  0  0
 84162  1  0  0  0
M  ISO  4   1 100  68 101  79 101  84 100
M  END
> <chiral flag>
0

> <version>
0

> <s_m_source_file>
/data/baiqing/PycharmProjects/Reinvent-master-3.2/result/LINK_invent/BTK/process_docking_weight1_custom_sum_contain_oxygen_bond_distance_aromatic_linkinvent_7_9_3/rearranged_h_0036.sdf

> <i_m_source_file_index>
4

> <r_mmod_Potential_Energy-OPLS-2005>
-26.1920356750488

> <r_mmod_Stretch_Energy-OPLS-2005>
36.1167526245117

> <r_mmod_Bend_Energy-OPLS-2005>
101.150680541992

> <r_mmod_Torsional_Energy-OPLS-2005>
227.31494140625

> <r_mmod_Improper_Torsional_Energy-OPLS-2005>
4.2626895904541

> <r_mmod_Van_der_Waal_Energy-OPLS-2005>
151.602066040039

> <r_mmod_Electrostatic_Energy-OPLS-2005>
-354.031555175781

> <r_mmod_Solvation_Energy-OPLS-2005>
-202.531539916992

> <b_mmod_Minimization_Converged-OPLS-2005>
0

> <r_mmod_RMS_Derivative-OPLS-2005>
0.438309848308563

$$$$
4
                    3D
 Structure written by MMmdl.
173181  0  0  1  0            999 V2000
  -30.5913  -15.0170   20.3117 C   0  0  0  0  0  0
  -30.4329  -12.6293   19.4858 C   0  0  0  0  0  0
  -29.5198  -12.5589   18.2422 C   0  0  0  0  0  0
  -28.0484  -12.3586   18.6531 C   0  0  0  0  0  0
  -27.6261  -13.2812   19.8266 C   0  0  2  0  0  0
  -28.6839  -13.3655   20.9495 C   0  0  0  0  0  0
  -25.2418  -13.8270   20.5737 C   0  0  0  0  0  0
  -24.1777  -13.0432   20.9247 C   0  0  0  0  0  0
  -24.6459  -11.6939   20.8755 C   0  0  0  0  0  0
  -23.9153  -10.4291   21.0390 C   0  0  0  0  0  0
  -24.3685   -9.4205   21.9172 C   0  0  0  0  0  0
  -23.6340   -8.2250   22.0744 C   0  0  0  0  0  0
  -22.4310   -8.0296   21.3546 C   0  0  0  0  0  0
  -21.9969   -9.0271   20.4637 C   0  0  0  0  0  0
  -22.7319  -10.2138   20.3039 C   0  0  0  0  0  0
  -21.6859   -6.0752   22.5281 C   0  0  0  0  0  0
  -21.4025   -6.5652   23.8216 C   0  0  0  0  0  0
  -21.3668   -5.6802   24.9175 C   0  0  0  0  0  0
  -21.6040   -4.3061   24.7221 C   0  0  0  0  0  0
  -21.8814   -3.8158   23.4338 C   0  0  0  0  0  0
  -21.9191   -4.6979   22.3399 C   0  0  0  0  0  0
  -22.7784  -13.5161   21.1906 C   0  0  0  0  0  0
  -22.1658   -4.2164   21.0978 F   0  0  0  0  0  0
  -21.5628   -3.4540   25.7735 F   0  0  0  0  0  0
  -29.9532  -13.7674   20.3197 N   0  0  0  0  0  0
  -26.2908  -12.9588   20.3250 N   0  0  0  0  0  0
  -25.9409  -11.6681   20.5739 N   0  0  0  0  0  0
  -22.0460  -12.8116   22.0451 N   0  0  0  0  0  0
  -25.3959  -15.2022   20.4169 N   0  0  0  0  0  0
  -31.8096  -15.0013   20.1071 O   0  0  0  0  0  0
  -21.6646   -6.8904   21.4248 O   0  0  0  0  0  0
  -22.3438  -14.5441   20.6726 O   0  0  0  0  0  0
  -24.6557  -31.8379   23.1683 C   0  0  0  0  0  0
  -25.9208  -32.4740   23.8338 C   0  0  1  0  0  0
  -27.9390  -27.1522   20.2909 C   0  0  0  0  0  0
  -25.5958  -33.8535   24.2347 N   0  0  0  0  0  0
  -23.4785  -30.4361   21.5156 C   0  0  2  0  0  0
  -24.9253  -28.8055   20.1311 C   0  0  0  0  0  0
  -22.7594  -29.4787   22.4973 C   0  0  0  0  0  0
  -18.0333  -28.1358   22.8468 C   0  0  0  0  0  0
  -24.1447  -36.7187   23.2745 C   0  0  0  0  0  0
  -26.0037  -30.9033   21.2334 C   0  0  0  0  0  0
  -26.2699  -29.5431   20.5830 C   0  0  0  0  0  0
  -27.7767  -28.8600   20.6416 C   0  0  0  0  0  0
  -26.0565  -26.2114   19.7130 C   0  0  0  0  0  0
  -24.7666  -27.2657   19.7052 C   0  0  0  0  0  0
  -23.6953  -29.7107   20.1610 C   0  0  0  0  0  0
  -25.4096  -36.3035   24.0395 C   0  0  1  0  0  0
  -20.5944  -28.3798   23.1171 C   0  0  2  0  0  0
  -20.6817  -26.9478   22.5393 C   0  0  0  0  0  0
  -19.5833  -26.6385   21.5187 C   0  0  0  0  0  0
  -18.1994  -26.7921   22.1561 C   0  0  0  0  0  0
  -19.1558  -28.8894   23.2833 C   0  0  0  0  0  0
  -18.9455  -30.1445   23.8945 C   0  0  0  0  0  0
  -17.6439  -30.6559   24.0566 C   0  0  0  0  0  0
  -25.8989  -34.9406   23.5146 C   0  0  0  0  0  0
  -16.5357  -29.9022   23.6293 C   0  0  0  0  0  0
  -16.7297  -28.6409   23.0364 C   0  0  0  0  0  0
  -26.4479  -31.6485   25.0708 C   0  0  0  0  0  0
  -25.3856  -31.3705   26.1598 C   0  0  0  0  0  0
  -27.0064  -30.2929   24.5861 C   0  0  0  0  0  0
  -27.6225  -32.3908   25.7491 C   0  0  0  0  0  0
  -27.5583  -37.1756   24.8444 C   0  0  0  0  0  0
  -21.4305  -29.3094   22.3521 N   0  0  0  0  0  0
  -26.4243  -37.3761   23.9448 N   0  0  0  0  0  0
  -24.7439  -31.0482   22.0489 N   0  0  0  0  0  0
  -23.3979  -28.8774   23.3643 O   0  0  0  0  0  0
  -26.9383  -25.7771   20.1669 O   0  0  0  0  0  0
  -26.5506  -34.8909   22.4695 O   0  0  0  0  0  0
  -23.5589  -32.1049   23.6930 O   0  0  0  0  0  0
  -26.7987  -27.9707   18.7196 C   0  0  0  0  0  0
  -28.0429  -26.4995   18.1580 C   0  0  0  0  0  0
  -26.3014  -27.3585   21.6105 C   0  0  0  0  0  0
  -28.9430  -25.2623   19.3864 C   0  0  0  0  0  0
  -27.7214  -26.2126   22.2936 C   0  0  0  0  0  0
  -30.0394  -28.5198   23.7041 C   0  0  0  0  0  0
  -25.1402  -26.5819   22.3276 C   0  0  0  0  0  0
  -29.6055  -23.7988   18.9738 C   0  0  0  0  0  0
  -28.3992  -26.4684   23.6343 C   0  0  0  0  0  0
  -29.8625  -27.0168   23.4609 C   0  0  0  0  0  0
  -25.3129  -24.9961   22.1823 C   0  0  0  0  0  0
  -29.1763  -22.2655   19.6155 C   0  0  0  0  0  0
  -29.9778  -20.7610   19.4324 C   0  0  0  0  0  0
  -29.4995  -19.2189   20.0034 C   0  0  0  0  0  0
  -30.3699  -17.7487   19.8861 C   0  0  0  0  0  0
  -26.3669  -24.4568   21.1096 C   0  0  0  0  0  0
  -28.8604  -25.2765   21.2037 N   0  0  0  0  0  0
  -29.8946  -16.2684   20.2797 N   0  0  0  0  0  0
  -31.4703  -12.7579   19.1722 H   0  0  0  0  0  0
  -30.4079  -11.6941   20.0483 H   0  0  0  0  0  0
  -29.8403  -11.7615   17.5709 H   0  0  0  0  0  0
  -29.6167  -13.4899   17.6796 H   0  0  0  0  0  0
  -27.9202  -11.3134   18.9348 H   0  0  0  0  0  0
  -27.3971  -12.5246   17.7934 H   0  0  0  0  0  0
  -27.5644  -14.2786   19.3904 H   0  0  0  0  0  0
  -28.7846  -12.4137   21.4721 H   0  0  0  0  0  0
  -28.3861  -14.1016   21.6962 H   0  0  0  0  0  0
  -25.2834   -9.5643   22.4747 H   0  0  0  0  0  0
  -24.0027   -7.4625   22.7461 H   0  0  0  0  0  0
  -21.0898   -8.8805   19.8940 H   0  0  0  0  0  0
  -22.3802  -10.9673   19.6132 H   0  0  0  0  0  0
  -21.2027   -7.6159   23.9727 H   0  0  0  0  0  0
  -21.1500   -6.0529   25.9081 H   0  0  0  0  0  0
  -22.0585   -2.7619   23.2833 H   0  0  0  0  0  0
  -22.4134  -11.9805   22.4847 H   0  0  0  0  0  0
  -21.1058  -13.1072   22.2647 H   0  0  0  0  0  0
  -24.6088  -15.8373   20.5073 H   0  0  0  0  0  0
  -26.2313  -15.6558   20.0720 H   0  0  0  0  0  0
  -26.7605  -32.5596   23.1464 H   0  0  0  0  0  0
  -25.0425  -33.9715   25.0704 H   0  0  0  0  0  0
  -22.7926  -31.2660   21.3368 H   0  0  0  0  0  0
  -23.3751  -35.9457   23.3306 H   0  0  0  0  0  0
  -24.3519  -36.8898   22.2180 H   0  0  0  0  0  0
  -23.7158  -37.6336   23.6831 H   0  0  0  0  0  0
  -25.9999  -31.6628   20.4510 H   0  0  0  0  0  0
  -26.9027  -31.0667   21.8091 H   0  0  0  0  0  0
  -28.6394  -29.4477   20.9139 H   0  0  0  0  0  0
  -25.6604  -25.4300   18.9352 H   0  0  0  0  0  0
  -23.8048  -26.9129   19.3424 H   0  0  0  0  0  0
  -23.8113  -30.4526   19.3720 H   0  0  0  0  0  0
  -22.8054  -29.1307   19.9016 H   0  0  0  0  0  0
  -25.1297  -36.1869   25.0884 H   0  0  0  0  0  0
  -21.0034  -28.3338   24.1287 H   0  0  0  0  0  0
  -20.5642  -26.2434   23.3621 H   0  0  0  0  0  0
  -21.6698  -26.7433   22.1263 H   0  0  0  0  0  0
  -19.6994  -25.6280   21.1256 H   0  0  0  0  0  0
  -19.6784  -27.3147   20.6679 H   0  0  0  0  0  0
  -17.4314  -26.6706   21.3899 H   0  0  0  0  0  0
  -18.0332  -26.0051   22.8934 H   0  0  0  0  0  0
  -19.7933  -30.7212   24.2382 H   0  0  0  0  0  0
  -17.4986  -31.6254   24.5134 H   0  0  0  0  0  0
  -15.5351  -30.2933   23.7589 H   0  0  0  0  0  0
  -15.8720  -28.0709   22.7040 H   0  0  0  0  0  0
  -24.5433  -30.7885   25.7937 H   0  0  0  0  0  0
  -24.9843  -32.2893   26.5843 H   0  0  0  0  0  0
  -25.8122  -30.8054   26.9907 H   0  0  0  0  0  0
  -26.2545  -29.6935   24.0708 H   0  0  0  0  0  0
  -27.3671  -29.6847   25.4191 H   0  0  0  0  0  0
  -27.8404  -30.4438   23.9008 H   0  0  0  0  0  0
  -27.3137  -33.3142   26.2385 H   0  0  0  0  0  0
  -28.4009  -32.6469   25.0309 H   0  0  0  0  0  0
  -28.0921  -31.7731   26.5164 H   0  0  0  0  0  0
  -28.2481  -38.0174   24.7625 H   0  0  0  0  0  0
  -28.1223  -36.2746   24.6008 H   0  0  0  0  0  0
  -27.2390  -37.1025   25.8869 H   0  0  0  0  0  0
  -20.9545  -29.8750   21.6621 H   0  0  0  0  0  0
  -26.0059  -38.2760   24.1644 H   0  0  0  0  0  0
  -26.2221  -28.5435   18.0110 H   0  0  0  0  0  0
  -28.1639  -26.3278   17.0945 H   0  0  0  0  0  0
  -31.0849  -28.8194   23.5972 H   0  0  0  0  0  0
  -29.7112  -28.7999   24.7023 H   0  0  0  0  0  0
  -29.4638  -29.0936   22.9797 H   0  0  0  0  0  0
  -24.1463  -26.8858   22.0312 H   0  0  0  0  0  0
  -25.1854  -26.8133   23.3927 H   0  0  0  0  0  0
  -30.6721  -23.9190   19.1769 H   0  0  0  0  0  0
  -29.5255  -23.7427   17.8850 H   0  0  0  0  0  0
  -28.4248  -25.5329   24.1941 H   0  0  0  0  0  0
  -27.8017  -27.1669   24.2192 H   0  0  0  0  0  0
  -30.5403  -26.4860   24.1337 H   0  0  0  0  0  0
  -30.2765  -26.8116   22.4729 H   0  0  0  0  0  0
  -25.6202  -24.5797   23.1438 H   0  0  0  0  0  0
  -24.3420  -24.5338   22.0074 H   0  0  0  0  0  0
  -28.1419  -22.1021   19.3131 H   0  0  0  0  0  0
  -29.1195  -22.4153   20.6935 H   0  0  0  0  0  0
  -30.9815  -20.9223   19.8269 H   0  0  0  0  0  0
  -30.1307  -20.6341   18.3604 H   0  0  0  0  0  0
  -28.5174  -19.0328   19.5703 H   0  0  0  0  0  0
  -29.3031  -19.3586   21.0652 H   0  0  0  0  0  0
  -31.3016  -17.9050   20.4316 H   0  0  0  0  0  0
  -30.6889  -17.6638   18.8461 H   0  0  0  0  0  0
  -25.8459  -23.7754   20.4389 H   0  0  0  0  0  0
  -27.0829  -23.7671   21.5603 H   0  0  0  0  0  0
  -28.9017  -16.1839   20.4524 H   0  0  0  0  0  0
  1 25  1  0  0  0
  1 30  2  0  0  0
  1 88  1  0  0  0
  2  3  1  0  0  0
  2 25  1  0  0  0
  2 89  1  0  0  0
  2 90  1  0  0  0
  3  4  1  0  0  0
  3 91  1  0  0  0
  3 92  1  0  0  0
  4  5  1  0  0  0
  4 93  1  0  0  0
  4 94  1  0  0  0
  5  6  1  0  0  0
  5 26  1  0  0  0
  5 95  1  0  0  0
  6 25  1  0  0  0
  6 96  1  0  0  0
  6 97  1  0  0  0
  7  8  2  0  0  0
  7 26  1  0  0  0
  7 29  1  0  0  0
  8  9  1  0  0  0
  8 22  1  0  0  0
  9 10  1  0  0  0
  9 27  2  0  0  0
 10 11  2  0  0  0
 10 15  1  0  0  0
 11 12  1  0  0  0
 11 98  1  0  0  0
 12 13  2  0  0  0
 12 99  1  0  0  0
 13 14  1  0  0  0
 13 31  1  0  0  0
 14 15  2  0  0  0
 14100  1  0  0  0
 15101  1  0  0  0
 16 17  2  0  0  0
 16 21  1  0  0  0
 16 31  1  0  0  0
 17 18  1  0  0  0
 17102  1  0  0  0
 18 19  2  0  0  0
 18103  1  0  0  0
 19 20  1  0  0  0
 19 24  1  0  0  0
 20 21  2  0  0  0
 20104  1  0  0  0
 21 23  1  0  0  0
 22 28  1  0  0  0
 22 32  2  0  0  0
 26 27  1  0  0  0
 28105  1  0  0  0
 28106  1  0  0  0
 29107  1  0  0  0
 29108  1  0  0  0
 33 34  1  0  0  0
 33 66  1  0  0  0
 33 70  2  0  0  0
 34 36  1  0  0  0
 34 59  1  0  0  0
 34109  1  0  0  0
 35 44  2  0  0  0
 35 45  1  0  0  0
 35 68  1  0  0  0
 36 56  1  0  0  0
 36110  1  0  0  0
 37 39  1  0  0  0
 37 47  1  0  0  0
 37 66  1  0  0  0
 37111  1  0  0  0
 38 43  2  0  0  0
 38 46  1  0  0  0
 38 47  1  0  0  0
 39 64  1  0  0  0
 39 67  2  0  0  0
 40 52  1  0  0  0
 40 53  2  0  0  0
 40 58  1  0  0  0
 41112  1  0  0  0
 41113  1  0  0  0
 41114  1  0  0  0
 41 48  1  0  0  0
 42 43  1  0  0  0
 42 66  1  0  0  0
 42115  1  0  0  0
 42116  1  0  0  0
 43 44  1  0  0  0
 44117  1  0  0  0
 45 46  2  0  0  0
 45118  1  0  0  0
 46119  1  0  0  0
 47120  1  0  0  0
 47121  1  0  0  0
 48 56  1  0  0  0
 48 65  1  0  0  0
 48122  1  0  0  0
 49 50  1  0  0  0
 49 53  1  0  0  0
 49 64  1  0  0  0
 49123  1  0  0  0
 50 51  1  0  0  0
 50124  1  0  0  0
 50125  1  0  0  0
 51 52  1  0  0  0
 51126  1  0  0  0
 51127  1  0  0  0
 52128  1  0  0  0
 52129  1  0  0  0
 53 54  1  0  0  0
 54 55  2  0  0  0
 54130  1  0  0  0
 55 57  1  0  0  0
 55131  1  0  0  0
 56 69  2  0  0  0
 57 58  2  0  0  0
 57132  1  0  0  0
 58133  1  0  0  0
 59 60  1  0  0  0
 59 61  1  0  0  0
 59 62  1  0  0  0
 60134  1  0  0  0
 60135  1  0  0  0
 60136  1  0  0  0
 61137  1  0  0  0
 61138  1  0  0  0
 61139  1  0  0  0
 62140  1  0  0  0
 62141  1  0  0  0
 62142  1  0  0  0
 63 65  1  0  0  0
 63143  1  0  0  0
 63144  1  0  0  0
 63145  1  0  0  0
 64146  1  0  0  0
 65147  1  0  0  0
 68 86  1  0  0  0
 71 72  2  0  0  0
 71 73  1  0  0  0
 71148  1  0  0  0
 72 74  1  0  0  0
 72149  1  0  0  0
 73 75  2  0  0  0
 73 77  1  0  0  0
 74 78  1  0  0  0
 74 87  2  0  0  0
 75 79  1  0  0  0
 75 87  1  0  0  0
 76 80  1  0  0  0
 76150  1  0  0  0
 76151  1  0  0  0
 76152  1  0  0  0
 77 81  1  0  0  0
 77153  1  0  0  0
 77154  1  0  0  0
 78 82  1  0  0  0
 78155  1  0  0  0
 78156  1  0  0  0
 79 80  1  0  0  0
 79157  1  0  0  0
 79158  1  0  0  0
 80159  1  0  0  0
 80160  1  0  0  0
 81 86  1  0  0  0
 81161  1  0  0  0
 81162  1  0  0  0
 82 83  1  0  0  0
 82163  1  0  0  0
 82164  1  0  0  0
 83 84  1  0  0  0
 83165  1  0  0  0
 83166  1  0  0  0
 84 85  1  0  0  0
 84167  1  0  0  0
 84168  1  0  0  0
 85 88  1  0  0  0
 85169  1  0  0  0
 85170  1  0  0  0
 86171  1  0  0  0
 86172  1  0  0  0
 88173  1  0  0  0
M  ISO  4   1 100  68 101  86 101  88 100
M  END
> <chiral flag>
0

> <version>
0

> <s_m_source_file>
/data/baiqing/PycharmProjects/Reinvent-master-3.2/result/LINK_invent/BTK/process_docking_weight1_custom_sum_contain_oxygen_bond_distance_aromatic_linkinvent_7_9_3/rearranged_h_0036.sdf

> <i_m_source_file_index>
5

> <r_mmod_Potential_Energy-OPLS-2005>
16972.142578125

> <r_mmod_Stretch_Energy-OPLS-2005>
10426.828125

> <r_mmod_Bend_Energy-OPLS-2005>
1309.65808105469

> <r_mmod_Torsional_Energy-OPLS-2005>
475.375305175781

> <r_mmod_Improper_Torsional_Energy-OPLS-2005>
56.5762176513672

> <r_mmod_Van_der_Waal_Energy-OPLS-2005>
4674.19677734375

> <r_mmod_Electrostatic_Energy-OPLS-2005>
-414.012847900391

> <r_mmod_Solvation_Energy-OPLS-2005>
-216.482711791992

> <b_mmod_Minimization_Converged-OPLS-2005>
0

> <r_mmod_RMS_Derivative-OPLS-2005>
17.7853183746338

$$$$
5
                    3D
 Structure written by MMmdl.
161169  0  0  1  0            999 V2000
  -30.9517  -14.4254   20.6716 C   0  0  0  0  0  0
  -30.7313  -12.2717   19.3609 C   0  0  0  0  0  0
  -29.8942  -12.5645   18.0802 C   0  0  0  0  0  0
  -28.4125  -12.8224   18.3130 C   0  0  0  0  0  0
  -28.2502  -13.5236   19.6824 C   0  0  2  0  0  0
  -29.0746  -12.8840   20.8265 C   0  0  0  0  0  0
  -24.9942  -14.2971   20.6553 C   0  0  0  0  0  0
  -23.8639  -13.4679   21.1873 C   0  0  0  0  0  0
  -24.3781  -12.2891   21.4045 C   0  0  0  0  0  0
  -23.8298  -10.8051   21.1722 C   0  0  0  0  0  0
  -24.3134   -9.7038   21.9682 C   0  0  0  0  0  0
  -23.6768   -8.4230   22.0511 C   0  0  0  0  0  0
  -22.4911   -8.1573   21.3273 C   0  0  0  0  0  0
  -22.0545   -9.1834   20.4550 C   0  0  0  0  0  0
  -22.7122  -10.4490   20.3632 C   0  0  0  0  0  0
  -21.7424   -6.1341   22.4959 C   0  0  0  0  0  0
  -21.4421   -6.6086   23.7924 C   0  0  0  0  0  0
  -21.3832   -5.7164   24.8862 C   0  0  0  0  0  0
  -21.6041   -4.3391   24.6928 C   0  0  0  0  0  0
  -21.8755   -3.8567   23.4020 C   0  0  0  0  0  0
  -21.9341   -4.7465   22.3099 C   0  0  0  0  0  0
  -22.3804  -13.7665   21.3043 C   0  0  0  0  0  0
  -22.1747   -4.2517   21.0726 F   0  0  0  0  0  0
  -21.5550   -3.4800   25.7394 F   0  0  0  0  0  0
  -30.3887  -13.1999   20.4520 N   0  0  0  0  0  0
  -26.4912  -14.3701   20.1051 N   0  0  0  0  0  0
  -24.8048  -13.6387   20.8112 N   0  0  0  0  0  0
  -21.6922  -12.9374   22.0818 N   0  0  0  0  0  0
  -26.5854  -14.8201   20.0134 N   0  0  0  0  0  0
  -31.9879  -14.7267   20.0928 O   0  0  0  0  0  0
  -21.7662   -6.9674   21.3866 O   0  0  0  0  0  0
  -21.9278  -14.7348   20.7089 O   0  0  0  0  0  0
  -24.7122  -31.7642   23.1404 C   0  0  0  0  0  0
  -25.9611  -32.4248   23.7972 C   0  0  1  0  0  0
  -26.6764  -26.1994   20.3007 C   0  0  0  0  0  0
  -25.6102  -33.8123   24.1799 N   0  0  0  0  0  0
  -23.5226  -30.3951   21.5072 C   0  0  2  0  0  0
  -24.8802  -28.6842   20.0801 C   0  0  0  0  0  0
  -22.7780  -29.4186   22.4604 C   0  0  0  0  0  0
  -18.0331  -28.1433   22.8446 C   0  0  0  0  0  0
  -24.1488  -36.7045   23.2656 C   0  0  0  0  0  0
  -26.1046  -30.3037   21.4818 C   0  0  0  0  0  0
  -26.0534  -28.8410   20.8182 C   0  0  0  0  0  0
  -26.9611  -27.6182   20.8947 C   0  0  0  0  0  0
  -25.6256  -26.4028   19.3949 C   0  0  0  0  0  0
  -24.7496  -27.5185   19.3191 C   0  0  0  0  0  0
  -23.7648  -29.7391   20.1183 C   0  0  0  0  0  0
  -25.4163  -36.2785   24.0253 C   0  0  1  0  0  0
  -20.5964  -28.3784   23.1108 C   0  0  2  0  0  0
  -20.6783  -26.9429   22.5405 C   0  0  0  0  0  0
  -19.5766  -26.6351   21.5220 C   0  0  0  0  0  0
  -18.1948  -26.7956   22.1619 C   0  0  0  0  0  0
  -19.1601  -28.8938   23.2754 C   0  0  0  0  0  0
  -18.9515  -30.1518   23.8802 C   0  0  0  0  0  0
  -17.6506  -30.6608   24.0549 C   0  0  0  0  0  0
  -25.9189  -34.9180   23.4877 C   0  0  0  0  0  0
  -16.5390  -29.9083   23.6362 C   0  0  0  0  0  0
  -16.7312  -28.6513   23.0363 C   0  0  0  0  0  0
  -26.4668  -31.6504   25.0792 C   0  0  0  0  0  0
  -25.3628  -31.3960   26.1344 C   0  0  0  0  0  0
  -27.0684  -30.2795   24.7084 C   0  0  0  0  0  0
  -27.6044  -32.4500   25.7577 C   0  0  0  0  0  0
  -27.5565  -37.1682   24.8464 C   0  0  0  0  0  0
  -21.4419  -29.2995   22.3380 N   0  0  0  0  0  0
  -26.4257  -37.3600   23.9419 N   0  0  0  0  0  0
  -24.8148  -30.8715   22.0883 N   0  0  0  0  0  0
  -23.4139  -28.7743   23.2985 O   0  0  0  0  0  0
  -27.1389  -24.6396   20.4479 O   0  0  0  0  0  0
  -26.5849  -34.8821   22.4511 O   0  0  0  0  0  0
  -23.6122  -32.0991   23.6183 O   0  0  0  0  0  0
  -26.7446  -13.1880   21.9319 C   0  0  0  0  0  0
  -24.8400  -15.5535   18.7850 C   0  0  0  0  0  0
  -26.3056  -15.3473   22.2138 C   0  0  0  0  0  0
  -25.4309  -16.6433   20.6309 C   0  0  0  0  0  0
  -26.2459  -12.2095   19.8748 C   0  0  0  0  0  0
  -26.4103  -10.6972   19.6165 C   0  0  0  0  0  0
  -27.1256  -16.0174   23.2912 C   0  0  0  0  0  0
  -25.4645  -18.7160   20.6515 C   0  0  0  0  0  0
  -28.4612  -16.5827   22.7087 C   0  0  0  0  0  0
  -26.4463  -20.6616   20.5454 C   0  0  0  0  0  0
  -29.6878  -15.6068   22.6210 C   0  0  0  0  0  0
  -26.3522  -22.8399   20.3603 C   0  0  0  0  0  0
  -25.2617  -13.4885   18.4654 N   0  0  0  0  0  0
  -30.2174  -15.4261   21.2452 N   0  0  0  0  0  0
  -31.7948  -12.3476   19.1336 H   0  0  0  0  0  0
  -30.5779  -11.2399   19.6738 H   0  0  0  0  0  0
  -30.0197  -11.7750   17.3396 H   0  0  0  0  0  0
  -30.3356  -13.4467   17.6146 H   0  0  0  0  0  0
  -27.8602  -11.9356   18.0699 H   0  0  0  0  0  0
  -28.0639  -13.5310   17.5601 H   0  0  0  0  0  0
  -28.7914  -14.4327   19.3851 H   0  0  0  0  0  0
  -28.8952  -11.8150   20.9432 H   0  0  0  0  0  0
  -29.0209  -13.2936   21.8155 H   0  0  0  0  0  0
  -25.1625   -9.8774   22.6136 H   0  0  0  0  0  0
  -24.0729   -7.6761   22.7240 H   0  0  0  0  0  0
  -21.1480   -9.0338   19.8831 H   0  0  0  0  0  0
  -22.2739  -11.2131   19.7400 H   0  0  0  0  0  0
  -21.2618   -7.6624   23.9494 H   0  0  0  0  0  0
  -21.1676   -6.0905   25.8742 H   0  0  0  0  0  0
  -22.0327   -2.8027   23.2416 H   0  0  0  0  0  0
  -22.1424  -12.1789   22.5714 H   0  0  0  0  0  0
  -20.6986  -13.0622   22.2021 H   0  0  0  0  0  0
  -27.2910  -14.5561   20.7228 H   0  0  0  0  0  0
  -26.3236  -15.8044   20.2071 H   0  0  0  0  0  0
  -26.7683  -32.4500   23.0642 H   0  0  0  0  0  0
  -25.0127  -33.9114   24.9876 H   0  0  0  0  0  0
  -22.8700  -31.2544   21.3431 H   0  0  0  0  0  0
  -23.3820  -35.9305   23.3226 H   0  0  0  0  0  0
  -24.3538  -36.8826   22.2093 H   0  0  0  0  0  0
  -23.7172  -37.6148   23.6824 H   0  0  0  0  0  0
  -26.4052  -30.9930   20.6920 H   0  0  0  0  0  0
  -26.9377  -30.3111   22.1701 H   0  0  0  0  0  0
  -27.8084  -27.6896   21.5617 H   0  0  0  0  0  0
  -25.3299  -25.5491   18.8013 H   0  0  0  0  0  0
  -23.8905  -27.4320   18.6635 H   0  0  0  0  0  0
  -24.0261  -30.5183   19.4011 H   0  0  0  0  0  0
  -22.8374  -29.2992   19.7477 H   0  0  0  0  0  0
  -25.1382  -36.1503   25.0744 H   0  0  0  0  0  0
  -21.0048  -28.3431   24.1238 H   0  0  0  0  0  0
  -20.5644  -26.2412   23.3678 H   0  0  0  0  0  0
  -21.6637  -26.7345   22.1228 H   0  0  0  0  0  0
  -19.6900  -25.6230   21.1315 H   0  0  0  0  0  0
  -19.6714  -27.3108   20.6709 H   0  0  0  0  0  0
  -17.4217  -26.6711   21.4018 H   0  0  0  0  0  0
  -18.0317  -26.0120   22.9038 H   0  0  0  0  0  0
  -19.7988  -30.7357   24.2129 H   0  0  0  0  0  0
  -17.5054  -31.6281   24.5169 H   0  0  0  0  0  0
  -15.5387  -30.2955   23.7744 H   0  0  0  0  0  0
  -15.8716  -28.0803   22.7119 H   0  0  0  0  0  0
  -24.5827  -30.7299   25.7647 H   0  0  0  0  0  0
  -24.8811  -32.3230   26.4465 H   0  0  0  0  0  0
  -25.7709  -30.9312   27.0329 H   0  0  0  0  0  0
  -26.3427  -29.6180   24.2360 H   0  0  0  0  0  0
  -27.4162  -29.7548   25.5997 H   0  0  0  0  0  0
  -27.9406  -30.3827   24.0629 H   0  0  0  0  0  0
  -27.2518  -33.3900   26.1837 H   0  0  0  0  0  0
  -28.3971  -32.6931   25.0487 H   0  0  0  0  0  0
  -28.0605  -31.8891   26.5750 H   0  0  0  0  0  0
  -28.2511  -38.0048   24.7593 H   0  0  0  0  0  0
  -28.1139  -36.2584   24.6198 H   0  0  0  0  0  0
  -27.2298  -37.1191   25.8865 H   0  0  0  0  0  0
  -20.9738  -29.8686   21.6461 H   0  0  0  0  0  0
  -26.0054  -38.2624   24.1478 H   0  0  0  0  0  0
  -27.1883  -12.6166   22.7317 H   0  0  0  0  0  0
  -24.3764  -16.0746   17.9592 H   0  0  0  0  0  0
  -26.4483  -10.1588   20.5580 H   0  0  0  0  0  0
  -27.3420  -10.3782   19.1578 H   0  0  0  0  0  0
  -25.5809  -10.3059   19.0231 H   0  0  0  0  0  0
  -27.3154  -15.2994   24.0914 H   0  0  0  0  0  0
  -26.5201  -16.8194   23.7180 H   0  0  0  0  0  0
  -25.0178  -18.8317   21.6399 H   0  0  0  0  0  0
  -24.6159  -18.8924   19.9905 H   0  0  0  0  0  0
  -28.7423  -17.3873   23.3889 H   0  0  0  0  0  0
  -28.2795  -17.0838   21.7542 H   0  0  0  0  0  0
  -27.1576  -20.4453   19.7472 H   0  0  0  0  0  0
  -27.0497  -20.5944   21.4505 H   0  0  0  0  0  0
  -29.4895  -14.6861   23.1614 H   0  0  0  0  0  0
  -30.5170  -16.0459   23.1831 H   0  0  0  0  0  0
  -25.4167  -23.0428   20.8804 H   0  0  0  0  0  0
  -26.0563  -22.8910   19.3132 H   0  0  0  0  0  0
  -30.5324  -16.3153   20.8826 H   0  0  0  0  0  0
  1 25  1  0  0  0
  1 30  2  0  0  0
  1 84  1  0  0  0
  2  3  1  0  0  0
  2 25  1  0  0  0
  2 85  1  0  0  0
  2 86  1  0  0  0
  3  4  1  0  0  0
  3 87  1  0  0  0
  3 88  1  0  0  0
  4  5  1  0  0  0
  4 89  1  0  0  0
  4 90  1  0  0  0
  5  6  1  0  0  0
  5 26  1  0  0  0
  5 91  1  0  0  0
  6 25  1  0  0  0
  6 92  1  0  0  0
  6 93  1  0  0  0
  7  8  2  0  0  0
  7 26  1  0  0  0
  7 29  1  0  0  0
  8  9  1  0  0  0
  8 22  1  0  0  0
  9 10  1  0  0  0
  9 27  2  0  0  0
 10 11  2  0  0  0
 10 15  1  0  0  0
 11 12  1  0  0  0
 11 94  1  0  0  0
 12 13  2  0  0  0
 12 95  1  0  0  0
 13 14  1  0  0  0
 13 31  1  0  0  0
 14 15  2  0  0  0
 14 96  1  0  0  0
 15 97  1  0  0  0
 16 17  2  0  0  0
 16 21  1  0  0  0
 16 31  1  0  0  0
 17 18  1  0  0  0
 17 98  1  0  0  0
 18 19  2  0  0  0
 18 99  1  0  0  0
 19 20  1  0  0  0
 19 24  1  0  0  0
 20 21  2  0  0  0
 20100  1  0  0  0
 21 23  1  0  0  0
 22 28  1  0  0  0
 22 32  2  0  0  0
 26 27  1  0  0  0
 28101  1  0  0  0
 28102  1  0  0  0
 29103  1  0  0  0
 29104  1  0  0  0
 33 34  1  0  0  0
 33 66  1  0  0  0
 33 70  2  0  0  0
 34 36  1  0  0  0
 34 59  1  0  0  0
 34105  1  0  0  0
 35 44  2  0  0  0
 35 45  1  0  0  0
 35 68  1  0  0  0
 36 56  1  0  0  0
 36106  1  0  0  0
 37 39  1  0  0  0
 37 47  1  0  0  0
 37 66  1  0  0  0
 37107  1  0  0  0
 38 43  2  0  0  0
 38 46  1  0  0  0
 38 47  1  0  0  0
 39 64  1  0  0  0
 39 67  2  0  0  0
 40 52  1  0  0  0
 40 53  2  0  0  0
 40 58  1  0  0  0
 41108  1  0  0  0
 41109  1  0  0  0
 41110  1  0  0  0
 41 48  1  0  0  0
 42 43  1  0  0  0
 42 66  1  0  0  0
 42111  1  0  0  0
 42112  1  0  0  0
 43 44  1  0  0  0
 44113  1  0  0  0
 45 46  2  0  0  0
 45114  1  0  0  0
 46115  1  0  0  0
 47116  1  0  0  0
 47117  1  0  0  0
 48 56  1  0  0  0
 48 65  1  0  0  0
 48118  1  0  0  0
 49 50  1  0  0  0
 49 53  1  0  0  0
 49 64  1  0  0  0
 49119  1  0  0  0
 50 51  1  0  0  0
 50120  1  0  0  0
 50121  1  0  0  0
 51 52  1  0  0  0
 51122  1  0  0  0
 51123  1  0  0  0
 52124  1  0  0  0
 52125  1  0  0  0
 53 54  1  0  0  0
 54 55  2  0  0  0
 54126  1  0  0  0
 55 57  1  0  0  0
 55127  1  0  0  0
 56 69  2  0  0  0
 57 58  2  0  0  0
 57128  1  0  0  0
 58129  1  0  0  0
 59 60  1  0  0  0
 59 61  1  0  0  0
 59 62  1  0  0  0
 60130  1  0  0  0
 60131  1  0  0  0
 60132  1  0  0  0
 61133  1  0  0  0
 61134  1  0  0  0
 61135  1  0  0  0
 62136  1  0  0  0
 62137  1  0  0  0
 62138  1  0  0  0
 63 65  1  0  0  0
 63139  1  0  0  0
 63140  1  0  0  0
 63141  1  0  0  0
 64142  1  0  0  0
 65143  1  0  0  0
 68 82  1  0  0  0
 71 73  2  0  0  0
 71 75  1  0  0  0
 71144  1  0  0  0
 72 74  2  0  0  0
 72 83  1  0  0  0
 72145  1  0  0  0
 73 74  1  0  0  0
 73 77  1  0  0  0
 74 78  1  0  0  0
 75 76  1  0  0  0
 75 83  2  0  0  0
 76146  1  0  0  0
 76147  1  0  0  0
 76148  1  0  0  0
 77 79  1  0  0  0
 77149  1  0  0  0
 77150  1  0  0  0
 78 80  1  0  0  0
 78151  1  0  0  0
 78152  1  0  0  0
 79 81  1  0  0  0
 79153  1  0  0  0
 79154  1  0  0  0
 80 82  1  0  0  0
 80155  1  0  0  0
 80156  1  0  0  0
 81 84  1  0  0  0
 81157  1  0  0  0
 81158  1  0  0  0
 82159  1  0  0  0
 82160  1  0  0  0
 84161  1  0  0  0
M  ISO  4   1 100  68 101  82 101  84 100
M  END
> <chiral flag>
0

> <version>
0

> <s_m_source_file>
/data/baiqing/PycharmProjects/Reinvent-master-3.2/result/LINK_invent/BTK/process_docking_weight1_custom_sum_contain_oxygen_bond_distance_aromatic_linkinvent_7_9_3/rearranged_h_0036.sdf

> <i_m_source_file_index>
6

> <r_mmod_Potential_Energy-OPLS-2005>
22075.62890625

> <r_mmod_Stretch_Energy-OPLS-2005>
11974.5302734375

> <r_mmod_Bend_Energy-OPLS-2005>
3439.58862304688

> <r_mmod_Torsional_Energy-OPLS-2005>
409.468658447266

> <r_mmod_Improper_Torsional_Energy-OPLS-2005>
63.6739120483398

> <r_mmod_Van_der_Waal_Energy-OPLS-2005>
4426.3359375

> <r_mmod_Electrostatic_Energy-OPLS-2005>
-452.283538818359

> <r_mmod_Solvation_Energy-OPLS-2005>
-244.84895324707

> <b_mmod_Minimization_Converged-OPLS-2005>
0

> <r_mmod_RMS_Derivative-OPLS-2005>
10.5585861206055

$$$$
6
                    3D
 Structure written by MMmdl.
161169  0  0  1  0            999 V2000
  -30.7206  -14.3942   20.6244 C   0  0  0  0  0  0
  -30.4188  -12.2738   19.4154 C   0  0  0  0  0  0
  -29.4956  -12.5114   18.2036 C   0  0  0  0  0  0
  -28.0137  -12.3788   18.6107 C   0  0  0  0  0  0
  -27.6659  -13.2005   19.8815 C   0  0  2  0  0  0
  -28.6999  -12.9363   21.0005 C   0  0  0  0  0  0
  -25.2592  -13.8164   20.5666 C   0  0  0  0  0  0
  -24.1834  -13.0439   20.9162 C   0  0  0  0  0  0
  -24.6375  -11.6903   20.8712 C   0  0  0  0  0  0
  -23.9044  -10.4285   21.0387 C   0  0  0  0  0  0
  -24.3609   -9.4204   21.9166 C   0  0  0  0  0  0
  -23.6291   -8.2236   22.0744 C   0  0  0  0  0  0
  -22.4265   -8.0273   21.3537 C   0  0  0  0  0  0
  -21.9894   -9.0240   20.4633 C   0  0  0  0  0  0
  -22.7222  -10.2119   20.3035 C   0  0  0  0  0  0
  -21.6843   -6.0728   22.5276 C   0  0  0  0  0  0
  -21.4013   -6.5631   23.8220 C   0  0  0  0  0  0
  -21.3666   -5.6779   24.9175 C   0  0  0  0  0  0
  -21.6048   -4.3041   24.7221 C   0  0  0  0  0  0
  -21.8821   -3.8136   23.4341 C   0  0  0  0  0  0
  -21.9193   -4.6954   22.3400 C   0  0  0  0  0  0
  -22.7857  -13.5247   21.1830 C   0  0  0  0  0  0
  -22.1656   -4.2146   21.0973 F   0  0  0  0  0  0
  -21.5633   -3.4530   25.7735 F   0  0  0  0  0  0
  -30.0404  -13.2315   20.4657 N   0  0  0  0  0  0
  -26.3032  -12.9318   20.3362 N   0  0  0  0  0  0
  -25.9298  -11.6483   20.5748 N   0  0  0  0  0  0
  -22.0487  -12.8250   22.0379 N   0  0  0  0  0  0
  -25.4342  -15.1887   20.4086 N   0  0  0  0  0  0
  -31.7998  -14.6255   20.0703 O   0  0  0  0  0  0
  -21.6628   -6.8869   21.4241 O   0  0  0  0  0  0
  -22.3551  -14.5549   20.6662 O   0  0  0  0  0  0
  -24.6118  -31.8712   23.2120 C   0  0  0  0  0  0
  -25.9011  -32.4833   23.8427 C   0  0  1  0  0  0
  -27.2313  -27.4648   20.0966 C   0  0  0  0  0  0
  -25.5859  -33.8627   24.2345 N   0  0  0  0  0  0
  -23.3965  -30.4948   21.5561 C   0  0  2  0  0  0
  -24.8395  -28.9563   20.1249 C   0  0  0  0  0  0
  -22.7380  -29.4682   22.5053 C   0  0  0  0  0  0
  -18.0256  -28.1400   22.8509 C   0  0  0  0  0  0
  -24.1464  -36.7334   23.2645 C   0  0  0  0  0  0
  -25.9214  -30.8457   21.3549 C   0  0  0  0  0  0
  -25.9989  -29.4797   20.7115 C   0  0  0  0  0  0
  -27.2018  -28.7401   20.6948 C   0  0  0  0  0  0
  -26.0588  -26.9429   19.5132 C   0  0  0  0  0  0
  -24.8617  -27.6830   19.5271 C   0  0  0  0  0  0
  -23.6003  -29.8201   20.1731 C   0  0  0  0  0  0
  -25.4090  -36.3125   24.0341 C   0  0  1  0  0  0
  -20.5849  -28.3653   23.1352 C   0  0  2  0  0  0
  -20.6756  -26.9402   22.5434 C   0  0  0  0  0  0
  -19.5726  -26.6399   21.5238 C   0  0  0  0  0  0
  -18.1901  -26.7940   22.1646 C   0  0  0  0  0  0
  -19.1509  -28.8843   23.2920 C   0  0  0  0  0  0
  -18.9446  -30.1462   23.8916 C   0  0  0  0  0  0
  -17.6448  -30.6597   24.0590 C   0  0  0  0  0  0
  -25.9014  -34.9482   23.5143 C   0  0  0  0  0  0
  -16.5344  -29.9107   23.6343 C   0  0  0  0  0  0
  -16.7247  -28.6533   23.0346 C   0  0  0  0  0  0
  -26.4441  -31.6594   25.0736 C   0  0  0  0  0  0
  -25.3694  -31.3684   26.1471 C   0  0  0  0  0  0
  -27.0289  -30.3050   24.6081 C   0  0  0  0  0  0
  -27.6045  -32.4300   25.7465 C   0  0  0  0  0  0
  -27.5571  -37.1824   24.8462 C   0  0  0  0  0  0
  -21.4108  -29.3017   22.3761 N   0  0  0  0  0  0
  -26.4288  -37.3799   23.9393 N   0  0  0  0  0  0
  -24.6621  -31.0838   22.1007 N   0  0  0  0  0  0
  -23.4158  -28.8229   23.3090 O   0  0  0  0  0  0
  -28.4077  -26.7661   20.0218 O   0  0  0  0  0  0
  -26.5607  -34.8929   22.4719 O   0  0  0  0  0  0
  -23.5326  -32.1471   23.7530 O   0  0  0  0  0  0
  -31.5106  -21.9234   22.8138 C   0  0  0  0  0  0
  -29.4929  -22.4662   21.5968 C   0  0  0  0  0  0
  -30.2021  -21.5750   22.4273 C   0  0  0  0  0  0
  -32.0536  -23.1386   22.3661 C   0  0  0  0  0  0
  -30.1235  -23.6548   21.1783 C   0  0  0  0  0  0
  -33.4731  -23.5327   22.7171 C   0  0  0  0  0  0
  -29.6178  -20.2261   22.8148 C   0  0  0  0  0  0
  -29.4565  -24.6063   20.1986 C   0  0  0  0  0  0
  -30.1326  -19.1410   21.8570 C   0  0  0  0  0  0
  -29.6975  -17.6968   22.1656 C   0  0  0  0  0  0
  -30.4895  -16.7459   21.2525 C   0  0  0  0  0  0
  -28.4922  -25.6086   20.8509 C   0  0  0  0  0  0
  -31.3726  -23.9915   21.5734 N   0  0  0  0  0  0
  -30.0925  -15.3433   21.3332 N   0  0  0  0  0  0
  -31.4653  -12.3654   19.1184 H   0  0  0  0  0  0
  -30.3044  -11.2541   19.7894 H   0  0  0  0  0  0
  -29.7313  -11.8039   17.4067 H   0  0  0  0  0  0
  -29.6737  -13.5057   17.7884 H   0  0  0  0  0  0
  -27.8130  -11.3227   18.7904 H   0  0  0  0  0  0
  -27.3701  -12.6719   17.7812 H   0  0  0  0  0  0
  -27.7220  -14.2546   19.6095 H   0  0  0  0  0  0
  -28.6621  -11.8890   21.3077 H   0  0  0  0  0  0
  -28.4593  -13.5070   21.8984 H   0  0  0  0  0  0
  -25.2764   -9.5690   22.4721 H   0  0  0  0  0  0
  -24.0006   -7.4637   22.7461 H   0  0  0  0  0  0
  -21.0828   -8.8768   19.8948 H   0  0  0  0  0  0
  -22.3695  -10.9652   19.6136 H   0  0  0  0  0  0
  -21.2000   -7.6138   23.9729 H   0  0  0  0  0  0
  -21.1488   -6.0496   25.9086 H   0  0  0  0  0  0
  -22.0596   -2.7597   23.2833 H   0  0  0  0  0  0
  -22.4110  -11.9942   22.4822 H   0  0  0  0  0  0
  -21.1104  -13.1290   22.2554 H   0  0  0  0  0  0
  -24.6709  -15.8502   20.5158 H   0  0  0  0  0  0
  -26.2956  -15.6225   20.0998 H   0  0  0  0  0  0
  -26.7070  -32.5566   23.1196 H   0  0  0  0  0  0
  -24.9925  -33.9777   25.0447 H   0  0  0  0  0  0
  -22.6842  -31.3119   21.4196 H   0  0  0  0  0  0
  -23.3701  -35.9697   23.3332 H   0  0  0  0  0  0
  -24.3559  -36.8922   22.2055 H   0  0  0  0  0  0
  -23.7240  -37.6557   23.6643 H   0  0  0  0  0  0
  -26.0188  -31.6062   20.5789 H   0  0  0  0  0  0
  -26.8156  -30.9125   21.9617 H   0  0  0  0  0  0
  -28.1019  -29.1459   21.1345 H   0  0  0  0  0  0
  -26.0771  -25.9732   19.0378 H   0  0  0  0  0  0
  -23.9684  -27.2710   19.0772 H   0  0  0  0  0  0
  -23.7003  -30.5926   19.4090 H   0  0  0  0  0  0
  -22.7225  -29.2350   19.8895 H   0  0  0  0  0  0
  -25.1272  -36.2000   25.0843 H   0  0  0  0  0  0
  -20.9965  -28.3221   24.1461 H   0  0  0  0  0  0
  -20.5686  -26.2257   23.3603 H   0  0  0  0  0  0
  -21.6627  -26.7470   22.1222 H   0  0  0  0  0  0
  -19.6871  -25.6311   21.1239 H   0  0  0  0  0  0
  -19.6669  -27.3246   20.6797 H   0  0  0  0  0  0
  -17.4189  -26.6710   21.4030 H   0  0  0  0  0  0
  -18.0283  -26.0091   22.9047 H   0  0  0  0  0  0
  -19.7926  -30.7285   24.2288 H   0  0  0  0  0  0
  -17.5007  -31.6281   24.5195 H   0  0  0  0  0  0
  -15.5345  -30.3017   23.7659 H   0  0  0  0  0  0
  -15.8653  -28.0872   22.7026 H   0  0  0  0  0  0
  -24.5853  -30.7065   25.7762 H   0  0  0  0  0  0
  -24.8900  -32.2826   26.4984 H   0  0  0  0  0  0
  -25.8043  -30.8788   27.0188 H   0  0  0  0  0  0
  -26.2836  -29.6748   24.1204 H   0  0  0  0  0  0
  -27.4149  -29.7321   25.4521 H   0  0  0  0  0  0
  -27.8607  -30.4399   23.9168 H   0  0  0  0  0  0
  -27.2732  -33.3603   26.2096 H   0  0  0  0  0  0
  -28.3821  -32.6853   25.0244 H   0  0  0  0  0  0
  -28.0751  -31.8392   26.5328 H   0  0  0  0  0  0
  -28.2636  -38.0086   24.7505 H   0  0  0  0  0  0
  -28.1030  -36.2622   24.6304 H   0  0  0  0  0  0
  -27.2292  -37.1511   25.8872 H   0  0  0  0  0  0
  -20.9255  -29.8702   21.6963 H   0  0  0  0  0  0
  -26.0163  -38.2875   24.1384 H   0  0  0  0  0  0
  -32.1035  -21.2522   23.4214 H   0  0  0  0  0  0
  -28.4945  -22.2267   21.2557 H   0  0  0  0  0  0
  -34.1706  -23.0771   22.0133 H   0  0  0  0  0  0
  -33.7340  -23.1924   23.7190 H   0  0  0  0  0  0
  -33.6103  -24.6145   22.6778 H   0  0  0  0  0  0
  -28.5287  -20.2722   22.7971 H   0  0  0  0  0  0
  -29.9005  -19.9961   23.8434 H   0  0  0  0  0  0
  -28.9364  -24.0315   19.4325 H   0  0  0  0  0  0
  -30.2408  -25.1496   19.6728 H   0  0  0  0  0  0
  -31.2233  -19.1816   21.8547 H   0  0  0  0  0  0
  -29.8196  -19.3932   20.8423 H   0  0  0  0  0  0
  -28.6232  -17.5885   22.0077 H   0  0  0  0  0  0
  -29.8884  -17.4599   23.2133 H   0  0  0  0  0  0
  -31.5541  -16.8339   21.4775 H   0  0  0  0  0  0
  -30.3632  -17.0630   20.2146 H   0  0  0  0  0  0
  -28.8775  -25.9261   21.8207 H   0  0  0  0  0  0
  -27.5290  -25.1287   21.0283 H   0  0  0  0  0  0
  -29.2201  -15.1004   21.7805 H   0  0  0  0  0  0
  1 25  1  0  0  0
  1 30  2  0  0  0
  1 84  1  0  0  0
  2  3  1  0  0  0
  2 25  1  0  0  0
  2 85  1  0  0  0
  2 86  1  0  0  0
  3  4  1  0  0  0
  3 87  1  0  0  0
  3 88  1  0  0  0
  4  5  1  0  0  0
  4 89  1  0  0  0
  4 90  1  0  0  0
  5  6  1  0  0  0
  5 26  1  0  0  0
  5 91  1  0  0  0
  6 25  1  0  0  0
  6 92  1  0  0  0
  6 93  1  0  0  0
  7  8  2  0  0  0
  7 26  1  0  0  0
  7 29  1  0  0  0
  8  9  1  0  0  0
  8 22  1  0  0  0
  9 10  1  0  0  0
  9 27  2  0  0  0
 10 11  2  0  0  0
 10 15  1  0  0  0
 11 12  1  0  0  0
 11 94  1  0  0  0
 12 13  2  0  0  0
 12 95  1  0  0  0
 13 14  1  0  0  0
 13 31  1  0  0  0
 14 15  2  0  0  0
 14 96  1  0  0  0
 15 97  1  0  0  0
 16 17  2  0  0  0
 16 21  1  0  0  0
 16 31  1  0  0  0
 17 18  1  0  0  0
 17 98  1  0  0  0
 18 19  2  0  0  0
 18 99  1  0  0  0
 19 20  1  0  0  0
 19 24  1  0  0  0
 20 21  2  0  0  0
 20100  1  0  0  0
 21 23  1  0  0  0
 22 28  1  0  0  0
 22 32  2  0  0  0
 26 27  1  0  0  0
 28101  1  0  0  0
 28102  1  0  0  0
 29103  1  0  0  0
 29104  1  0  0  0
 33 34  1  0  0  0
 33 66  1  0  0  0
 33 70  2  0  0  0
 34 36  1  0  0  0
 34 59  1  0  0  0
 34105  1  0  0  0
 35 44  2  0  0  0
 35 45  1  0  0  0
 35 68  1  0  0  0
 36 56  1  0  0  0
 36106  1  0  0  0
 37 39  1  0  0  0
 37 47  1  0  0  0
 37 66  1  0  0  0
 37107  1  0  0  0
 38 43  2  0  0  0
 38 46  1  0  0  0
 38 47  1  0  0  0
 39 64  1  0  0  0
 39 67  2  0  0  0
 40 52  1  0  0  0
 40 53  2  0  0  0
 40 58  1  0  0  0
 41108  1  0  0  0
 41109  1  0  0  0
 41110  1  0  0  0
 41 48  1  0  0  0
 42 43  1  0  0  0
 42 66  1  0  0  0
 42111  1  0  0  0
 42112  1  0  0  0
 43 44  1  0  0  0
 44113  1  0  0  0
 45 46  2  0  0  0
 45114  1  0  0  0
 46115  1  0  0  0
 47116  1  0  0  0
 47117  1  0  0  0
 48 56  1  0  0  0
 48 65  1  0  0  0
 48118  1  0  0  0
 49 50  1  0  0  0
 49 53  1  0  0  0
 49 64  1  0  0  0
 49119  1  0  0  0
 50 51  1  0  0  0
 50120  1  0  0  0
 50121  1  0  0  0
 51 52  1  0  0  0
 51122  1  0  0  0
 51123  1  0  0  0
 52124  1  0  0  0
 52125  1  0  0  0
 53 54  1  0  0  0
 54 55  2  0  0  0
 54126  1  0  0  0
 55 57  1  0  0  0
 55127  1  0  0  0
 56 69  2  0  0  0
 57 58  2  0  0  0
 57128  1  0  0  0
 58129  1  0  0  0
 59 60  1  0  0  0
 59 61  1  0  0  0
 59 62  1  0  0  0
 60130  1  0  0  0
 60131  1  0  0  0
 60132  1  0  0  0
 61133  1  0  0  0
 61134  1  0  0  0
 61135  1  0  0  0
 62136  1  0  0  0
 62137  1  0  0  0
 62138  1  0  0  0
 63 65  1  0  0  0
 63139  1  0  0  0
 63140  1  0  0  0
 63141  1  0  0  0
 64142  1  0  0  0
 65143  1  0  0  0
 68 82  1  0  0  0
 71 73  2  0  0  0
 71 74  1  0  0  0
 71144  1  0  0  0
 72 73  1  0  0  0
 72 75  2  0  0  0
 72145  1  0  0  0
 73 77  1  0  0  0
 74 76  1  0  0  0
 74 83  2  0  0  0
 75 78  1  0  0  0
 75 83  1  0  0  0
 76146  1  0  0  0
 76147  1  0  0  0
 76148  1  0  0  0
 77 79  1  0  0  0
 77149  1  0  0  0
 77150  1  0  0  0
 78 82  1  0  0  0
 78151  1  0  0  0
 78152  1  0  0  0
 79 80  1  0  0  0
 79153  1  0  0  0
 79154  1  0  0  0
 80 81  1  0  0  0
 80155  1  0  0  0
 80156  1  0  0  0
 81 84  1  0  0  0
 81157  1  0  0  0
 81158  1  0  0  0
 82159  1  0  0  0
 82160  1  0  0  0
 84161  1  0  0  0
M  ISO  4   1 100  68 101  82 101  84 100
M  END
> <chiral flag>
0

> <version>
0

> <s_m_source_file>
/data/baiqing/PycharmProjects/Reinvent-master-3.2/result/LINK_invent/BTK/process_docking_weight1_custom_sum_contain_oxygen_bond_distance_aromatic_linkinvent_7_9_3/rearranged_h_0036.sdf

> <i_m_source_file_index>
7

> <r_mmod_Potential_Energy-OPLS-2005>
-234.00260925293

> <r_mmod_Stretch_Energy-OPLS-2005>
30.7384052276611

> <r_mmod_Bend_Energy-OPLS-2005>
88.4124450683594

> <r_mmod_Torsional_Energy-OPLS-2005>
219.271820068359

> <r_mmod_Improper_Torsional_Energy-OPLS-2005>
3.62832832336426

> <r_mmod_Van_der_Waal_Energy-OPLS-2005>
153.128997802734

> <r_mmod_Electrostatic_Energy-OPLS-2005>
-516.784362792969

> <r_mmod_Solvation_Energy-OPLS-2005>
-219.559173583984

> <b_mmod_Minimization_Converged-OPLS-2005>
0

> <r_mmod_RMS_Derivative-OPLS-2005>
3.14037942886353

$$$$
7
                    3D
 Structure written by MMmdl.
163172  0  0  1  0            999 V2000
  -30.7425  -14.3623   20.5490 C   0  0  0  0  0  0
  -30.4297  -12.2309   19.3874 C   0  0  0  0  0  0
  -29.4830  -12.4542   18.1915 C   0  0  0  0  0  0
  -28.0078  -12.3447   18.6247 C   0  0  0  0  0  0
  -27.6837  -13.1828   19.8927 C   0  0  2  0  0  0
  -28.7375  -12.9068   20.9984 C   0  0  0  0  0  0
  -25.2666  -13.8116   20.5773 C   0  0  0  0  0  0
  -24.1870  -13.0489   20.9186 C   0  0  0  0  0  0
  -24.6395  -11.6916   20.8829 C   0  0  0  0  0  0
  -23.9054  -10.4331   21.0425 C   0  0  0  0  0  0
  -24.3614   -9.4257   21.9201 C   0  0  0  0  0  0
  -23.6298   -8.2295   22.0789 C   0  0  0  0  0  0
  -22.4278   -8.0322   21.3574 C   0  0  0  0  0  0
  -21.9906   -9.0296   20.4660 C   0  0  0  0  0  0
  -22.7229  -10.2175   20.3055 C   0  0  0  0  0  0
  -21.6846   -6.0759   22.5278 C   0  0  0  0  0  0
  -21.4014   -6.5650   23.8218 C   0  0  0  0  0  0
  -21.3649   -5.6789   24.9163 C   0  0  0  0  0  0
  -21.6034   -4.3061   24.7198 C   0  0  0  0  0  0
  -21.8822   -3.8170   23.4317 C   0  0  0  0  0  0
  -21.9188   -4.6989   22.3378 C   0  0  0  0  0  0
  -22.7869  -13.5296   21.1872 C   0  0  0  0  0  0
  -22.1655   -4.2183   21.0953 F   0  0  0  0  0  0
  -21.5611   -3.4532   25.7706 F   0  0  0  0  0  0
  -30.0753  -13.1902   20.4386 N   0  0  0  0  0  0
  -26.3161  -12.9280   20.3546 N   0  0  0  0  0  0
  -25.9346  -11.6477   20.5938 N   0  0  0  0  0  0
  -22.0448  -12.8286   22.0341 N   0  0  0  0  0  0
  -25.4379  -15.1869   20.4183 N   0  0  0  0  0  0
  -31.8216  -14.6082   20.0023 O   0  0  0  0  0  0
  -21.6648   -6.8926   21.4256 O   0  0  0  0  0  0
  -22.3578  -14.5611   20.6679 O   0  0  0  0  0  0
  -24.6084  -31.8749   23.2274 C   0  0  0  0  0  0
  -25.9017  -32.4854   23.8521 C   0  0  1  0  0  0
  -27.2082  -27.4555   20.0522 C   0  0  0  0  0  0
  -25.5874  -33.8662   24.2429 N   0  0  0  0  0  0
  -23.3967  -30.5092   21.5762 C   0  0  2  0  0  0
  -24.8338  -29.0158   20.1198 C   0  0  0  0  0  0
  -22.7379  -29.4691   22.5111 C   0  0  0  0  0  0
  -18.0316  -28.1222   22.8421 C   0  0  0  0  0  0
  -24.1488  -36.7325   23.2655 C   0  0  0  0  0  0
  -25.9324  -30.8362   21.4058 C   0  0  0  0  0  0
  -25.9993  -29.4808   20.7399 C   0  0  0  0  0  0
  -27.1771  -28.6921   20.7460 C   0  0  0  0  0  0
  -26.0533  -27.1192   19.3039 C   0  0  0  0  0  0
  -24.8509  -27.8185   19.4129 C   0  0  0  0  0  0
  -23.5964  -29.8702   20.1836 C   0  0  0  0  0  0
  -25.4113  -36.3151   24.0343 C   0  0  1  0  0  0
  -20.5941  -28.3495   23.1380 C   0  0  2  0  0  0
  -20.6821  -26.9285   22.5437 C   0  0  0  0  0  0
  -19.5921  -26.6509   21.5043 C   0  0  0  0  0  0
  -18.2028  -26.7796   22.1407 C   0  0  0  0  0  0
  -19.1562  -28.8701   23.2946 C   0  0  0  0  0  0
  -18.9468  -30.1266   23.9056 C   0  0  0  0  0  0
  -17.6427  -30.6275   24.0715 C   0  0  0  0  0  0
  -25.9011  -34.9485   23.5193 C   0  0  0  0  0  0
  -16.5345  -29.8835   23.6411 C   0  0  0  0  0  0
  -16.7276  -28.6261   23.0320 C   0  0  0  0  0  0
  -26.4428  -31.6592   25.0815 C   0  0  0  0  0  0
  -25.3673  -31.3697   26.1551 C   0  0  0  0  0  0
  -27.0293  -30.3029   24.6223 C   0  0  0  0  0  0
  -27.6034  -32.4334   25.7532 C   0  0  0  0  0  0
  -27.5569  -37.1814   24.8474 C   0  0  0  0  0  0
  -21.4111  -29.2993   22.3848 N   0  0  0  0  0  0
  -26.4310  -37.3820   23.9369 N   0  0  0  0  0  0
  -24.6639  -31.0864   22.1227 N   0  0  0  0  0  0
  -23.4216  -28.8091   23.2963 O   0  0  0  0  0  0
  -28.3685  -26.6884   20.0921 O   0  0  0  0  0  0
  -26.5620  -34.8945   22.4786 O   0  0  0  0  0  0
  -23.5275  -32.1476   23.7681 O   0  0  0  0  0  0
  -29.1798  -19.9349   20.5839 C   0  0  0  0  0  0
  -28.2030  -20.8095   20.1772 C   0  0  0  0  0  0
  -28.4839  -18.7256   20.8738 C   0  0  0  0  0  0
  -29.3976  -23.0088   20.7434 C   0  0  0  0  0  0
  -27.0587  -23.0168   19.8107 C   0  0  0  0  0  0
  -29.1142  -24.5262   21.0065 C   0  0  0  0  0  0
  -27.1412  -24.4894   19.4837 C   0  0  0  0  0  0
  -28.3808  -22.2757   19.8216 C   0  0  2  0  0  0
  -28.4324  -25.2504   19.8317 C   0  0  1  0  0  0
  -25.6085  -20.3984   19.8759 C   0  0  0  0  0  0
  -28.9275  -17.4181   21.4462 C   0  0  0  0  0  0
  -30.0313  -16.7009   20.6674 C   0  0  0  0  0  0
  -27.2038  -18.8166   20.5818 N   0  0  0  0  0  0
  -27.0029  -20.0740   20.1690 N   0  0  0  0  0  0
  -30.0376  -15.3215   21.1327 N   0  0  0  0  0  0
  -31.4727  -12.3193   19.0736 H   0  0  0  0  0  0
  -30.3199  -11.2169   19.7696 H   0  0  0  0  0  0
  -29.6845  -11.7175   17.4120 H   0  0  0  0  0  0
  -29.6671  -13.4355   17.7542 H   0  0  0  0  0  0
  -27.8065  -11.2908   18.8215 H   0  0  0  0  0  0
  -27.3515  -12.6294   17.8005 H   0  0  0  0  0  0
  -27.7466  -14.2319   19.6033 H   0  0  0  0  0  0
  -28.7028  -11.8577   21.3067 H   0  0  0  0  0  0
  -28.5255  -13.4815   21.9012 H   0  0  0  0  0  0
  -25.2780   -9.5713   22.4741 H   0  0  0  0  0  0
  -24.0004   -7.4667   22.7484 H   0  0  0  0  0  0
  -21.0873   -8.8801   19.8936 H   0  0  0  0  0  0
  -22.3730  -10.9699   19.6127 H   0  0  0  0  0  0
  -21.2019   -7.6159   23.9709 H   0  0  0  0  0  0
  -21.1466   -6.0530   25.9062 H   0  0  0  0  0  0
  -22.0619   -2.7635   23.2792 H   0  0  0  0  0  0
  -22.4076  -11.9969   22.4756 H   0  0  0  0  0  0
  -21.1031  -13.1299   22.2501 H   0  0  0  0  0  0
  -24.6778  -15.8405   20.5595 H   0  0  0  0  0  0
  -26.2996  -15.6497   20.1683 H   0  0  0  0  0  0
  -26.7100  -32.5562   23.1310 H   0  0  0  0  0  0
  -24.9855  -33.9822   25.0457 H   0  0  0  0  0  0
  -22.6816  -31.3249   21.4585 H   0  0  0  0  0  0
  -23.3745  -35.9656   23.3328 H   0  0  0  0  0  0
  -24.3563  -36.8930   22.2054 H   0  0  0  0  0  0
  -23.7194  -37.6528   23.6644 H   0  0  0  0  0  0
  -26.0819  -31.6070   20.6540 H   0  0  0  0  0  0
  -26.8090  -30.8562   22.0354 H   0  0  0  0  0  0
  -28.0576  -29.0330   21.2826 H   0  0  0  0  0  0
  -26.0240  -26.3417   18.5642 H   0  0  0  0  0  0
  -23.9811  -27.4908   18.8652 H   0  0  0  0  0  0
  -23.6815  -30.6590   19.4328 H   0  0  0  0  0  0
  -22.7232  -29.2764   19.9016 H   0  0  0  0  0  0
  -25.1278  -36.2074   25.0818 H   0  0  0  0  0  0
  -21.0168  -28.2894   24.1428 H   0  0  0  0  0  0
  -20.5499  -26.2187   23.3677 H   0  0  0  0  0  0
  -21.6766  -26.7208   22.1551 H   0  0  0  0  0  0
  -19.7131  -25.6570   21.0808 H   0  0  0  0  0  0
  -19.6921  -27.3619   20.6791 H   0  0  0  0  0  0
  -17.4341  -26.6538   21.3726 H   0  0  0  0  0  0
  -18.0301  -25.9753   22.8655 H   0  0  0  0  0  0
  -19.7931  -30.7046   24.2579 H   0  0  0  0  0  0
  -17.4953  -31.5791   24.5576 H   0  0  0  0  0  0
  -15.5391  -30.2734   23.7884 H   0  0  0  0  0  0
  -15.8692  -28.0522   22.7067 H   0  0  0  0  0  0
  -24.5845  -30.7076   25.7829 H   0  0  0  0  0  0
  -24.8864  -32.2849   26.5005 H   0  0  0  0  0  0
  -25.7948  -30.8807   27.0312 H   0  0  0  0  0  0
  -26.2864  -29.6761   24.1276 H   0  0  0  0  0  0
  -27.4031  -29.7284   25.4702 H   0  0  0  0  0  0
  -27.8708  -30.4326   23.9427 H   0  0  0  0  0  0
  -27.2668  -33.3652   26.2115 H   0  0  0  0  0  0
  -28.3780  -32.6889   25.0281 H   0  0  0  0  0  0
  -28.0784  -31.8479   26.5416 H   0  0  0  0  0  0
  -28.2683  -38.0054   24.7512 H   0  0  0  0  0  0
  -28.1008  -36.2565   24.6363 H   0  0  0  0  0  0
  -27.2273  -37.1551   25.8905 H   0  0  0  0  0  0
  -20.9142  -29.8761   21.7185 H   0  0  0  0  0  0
  -26.0226  -38.2913   24.1405 H   0  0  0  0  0  0
  -30.2364  -20.1570   20.6919 H   0  0  0  0  0  0
  -29.3744  -22.5161   21.7198 H   0  0  0  0  0  0
  -30.4102  -22.8696   20.3621 H   0  0  0  0  0  0
  -26.4095  -22.5848   19.0547 H   0  0  0  0  0  0
  -26.6065  -22.9063   20.7982 H   0  0  0  0  0  0
  -30.0370  -25.0420   21.2688 H   0  0  0  0  0  0
  -28.4998  -24.6278   21.8997 H   0  0  0  0  0  0
  -26.3196  -24.8811   20.0761 H   0  0  0  0  0  0
  -26.9507  -24.5797   18.4142 H   0  0  0  0  0  0
  -28.7722  -22.3311   18.8075 H   0  0  0  0  0  0
  -29.1034  -25.1479   18.9786 H   0  0  0  0  0  0
  -24.9878  -19.5410   20.1322 H   0  0  0  0  0  0
  -25.4476  -20.6381   18.8176 H   0  0  0  0  0  0
  -25.2583  -21.2301   20.4875 H   0  0  0  0  0  0
  -28.0627  -16.7426   21.4550 H   0  0  0  0  0  0
  -29.2293  -17.5495   22.4831 H   0  0  0  0  0  0
  -31.0152  -17.1618   20.7896 H   0  0  0  0  0  0
  -29.7846  -16.7176   19.5992 H   0  0  0  0  0  0
  -29.2116  -14.9968   21.6173 H   0  0  0  0  0  0
  1 25  1  0  0  0
  1 30  2  0  0  0
  1 85  1  0  0  0
  2  3  1  0  0  0
  2 25  1  0  0  0
  2 86  1  0  0  0
  2 87  1  0  0  0
  3  4  1  0  0  0
  3 88  1  0  0  0
  3 89  1  0  0  0
  4  5  1  0  0  0
  4 90  1  0  0  0
  4 91  1  0  0  0
  5  6  1  0  0  0
  5 26  1  0  0  0
  5 92  1  0  0  0
  6 25  1  0  0  0
  6 93  1  0  0  0
  6 94  1  0  0  0
  7  8  2  0  0  0
  7 26  1  0  0  0
  7 29  1  0  0  0
  8  9  1  0  0  0
  8 22  1  0  0  0
  9 10  1  0  0  0
  9 27  2  0  0  0
 10 11  2  0  0  0
 10 15  1  0  0  0
 11 12  1  0  0  0
 11 95  1  0  0  0
 12 13  2  0  0  0
 12 96  1  0  0  0
 13 14  1  0  0  0
 13 31  1  0  0  0
 14 15  2  0  0  0
 14 97  1  0  0  0
 15 98  1  0  0  0
 16 17  2  0  0  0
 16 21  1  0  0  0
 16 31  1  0  0  0
 17 18  1  0  0  0
 17 99  1  0  0  0
 18 19  2  0  0  0
 18100  1  0  0  0
 19 20  1  0  0  0
 19 24  1  0  0  0
 20 21  2  0  0  0
 20101  1  0  0  0
 21 23  1  0  0  0
 22 28  1  0  0  0
 22 32  2  0  0  0
 26 27  1  0  0  0
 28102  1  0  0  0
 28103  1  0  0  0
 29104  1  0  0  0
 29105  1  0  0  0
 33 34  1  0  0  0
 33 66  1  0  0  0
 33 70  2  0  0  0
 34 36  1  0  0  0
 34 59  1  0  0  0
 34106  1  0  0  0
 35 44  2  0  0  0
 35 45  1  0  0  0
 35 68  1  0  0  0
 36 56  1  0  0  0
 36107  1  0  0  0
 37 39  1  0  0  0
 37 47  1  0  0  0
 37 66  1  0  0  0
 37108  1  0  0  0
 38 43  2  0  0  0
 38 46  1  0  0  0
 38 47  1  0  0  0
 39 64  1  0  0  0
 39 67  2  0  0  0
 40 52  1  0  0  0
 40 53  2  0  0  0
 40 58  1  0  0  0
 41109  1  0  0  0
 41110  1  0  0  0
 41111  1  0  0  0
 41 48  1  0  0  0
 42 43  1  0  0  0
 42 66  1  0  0  0
 42112  1  0  0  0
 42113  1  0  0  0
 43 44  1  0  0  0
 44114  1  0  0  0
 45 46  2  0  0  0
 45115  1  0  0  0
 46116  1  0  0  0
 47117  1  0  0  0
 47118  1  0  0  0
 48 56  1  0  0  0
 48 65  1  0  0  0
 48119  1  0  0  0
 49 50  1  0  0  0
 49 53  1  0  0  0
 49 64  1  0  0  0
 49120  1  0  0  0
 50 51  1  0  0  0
 50121  1  0  0  0
 50122  1  0  0  0
 51 52  1  0  0  0
 51123  1  0  0  0
 51124  1  0  0  0
 52125  1  0  0  0
 52126  1  0  0  0
 53 54  1  0  0  0
 54 55  2  0  0  0
 54127  1  0  0  0
 55 57  1  0  0  0
 55128  1  0  0  0
 56 69  2  0  0  0
 57 58  2  0  0  0
 57129  1  0  0  0
 58130  1  0  0  0
 59 60  1  0  0  0
 59 61  1  0  0  0
 59 62  1  0  0  0
 60131  1  0  0  0
 60132  1  0  0  0
 60133  1  0  0  0
 61134  1  0  0  0
 61135  1  0  0  0
 61136  1  0  0  0
 62137  1  0  0  0
 62138  1  0  0  0
 62139  1  0  0  0
 63 65  1  0  0  0
 63140  1  0  0  0
 63141  1  0  0  0
 63142  1  0  0  0
 64143  1  0  0  0
 65144  1  0  0  0
 68 79  1  0  0  0
 71 72  2  0  0  0
 71 73  1  0  0  0
 71145  1  0  0  0
 72 84  1  0  0  0
 72 78  1  0  0  0
 73 81  1  0  0  0
 73 83  2  0  0  0
 74 76  1  0  0  0
 74 78  1  0  0  0
 74146  1  0  0  0
 74147  1  0  0  0
 75 77  1  0  0  0
 75 78  1  0  0  0
 75148  1  0  0  0
 75149  1  0  0  0
 76 79  1  0  0  0
 76150  1  0  0  0
 76151  1  0  0  0
 77 79  1  0  0  0
 77152  1  0  0  0
 77153  1  0  0  0
 78154  1  0  0  0
 79155  1  0  0  0
 80 84  1  0  0  0
 80156  1  0  0  0
 80157  1  0  0  0
 80158  1  0  0  0
 81 82  1  0  0  0
 81159  1  0  0  0
 81160  1  0  0  0
 82 85  1  0  0  0
 82161  1  0  0  0
 82162  1  0  0  0
 83 84  1  0  0  0
 85163  1  0  0  0
M  ISO  4   1 100  68 101  79 101  85 100
M  END
> <chiral flag>
0

> <version>
0

> <s_m_source_file>
/data/baiqing/PycharmProjects/Reinvent-master-3.2/result/LINK_invent/BTK/process_docking_weight1_custom_sum_contain_oxygen_bond_distance_aromatic_linkinvent_7_9_3/rearranged_h_0036.sdf

> <i_m_source_file_index>
8

> <r_mmod_Potential_Energy-OPLS-2005>
67.03369140625

> <r_mmod_Stretch_Energy-OPLS-2005>
41.9553260803223

> <r_mmod_Bend_Energy-OPLS-2005>
148.618850708008

> <r_mmod_Torsional_Energy-OPLS-2005>
274.446899414062

> <r_mmod_Improper_Torsional_Energy-OPLS-2005>
6.70108127593994

> <r_mmod_Van_der_Waal_Energy-OPLS-2005>
183.288330078125

> <r_mmod_Electrostatic_Energy-OPLS-2005>
-399.110290527344

> <r_mmod_Solvation_Energy-OPLS-2005>
-212.274932861328

> <b_mmod_Minimization_Converged-OPLS-2005>
0

> <r_mmod_RMS_Derivative-OPLS-2005>
12.2746486663818

$$$$
8
                    3D
 Structure written by MMmdl.
168176  0  0  1  0            999 V2000
  -30.8178  -14.3000   20.7709 C   0  0  0  0  0  0
  -30.4174  -12.3009   19.3802 C   0  0  0  0  0  0
  -29.4786  -12.5435   18.1866 C   0  0  0  0  0  0
  -28.0092  -12.3777   18.6099 C   0  0  0  0  0  0
  -27.6679  -13.2001   19.8781 C   0  0  2  0  0  0
  -28.7039  -12.9454   20.9955 C   0  0  0  0  0  0
  -25.2613  -13.8143   20.5639 C   0  0  0  0  0  0
  -24.1857  -13.0438   20.9137 C   0  0  0  0  0  0
  -24.6398  -11.6898   20.8711 C   0  0  0  0  0  0
  -23.9073  -10.4289   21.0398 C   0  0  0  0  0  0
  -24.3613   -9.4204   21.9189 C   0  0  0  0  0  0
  -23.6280   -8.2243   22.0761 C   0  0  0  0  0  0
  -22.4267   -8.0279   21.3543 C   0  0  0  0  0  0
  -21.9910   -9.0253   20.4643 C   0  0  0  0  0  0
  -22.7238  -10.2134   20.3049 C   0  0  0  0  0  0
  -21.6855   -6.0739   22.5274 C   0  0  0  0  0  0
  -21.4019   -6.5645   23.8211 C   0  0  0  0  0  0
  -21.3661   -5.6788   24.9171 C   0  0  0  0  0  0
  -21.6033   -4.3046   24.7217 C   0  0  0  0  0  0
  -21.8829   -3.8151   23.4336 C   0  0  0  0  0  0
  -21.9192   -4.6967   22.3390 C   0  0  0  0  0  0
  -22.7882  -13.5242   21.1802 C   0  0  0  0  0  0
  -22.1662   -4.2149   21.0968 F   0  0  0  0  0  0
  -21.5627   -3.4535   25.7740 F   0  0  0  0  0  0
  -30.0557  -13.2204   20.4680 N   0  0  0  0  0  0
  -26.3056  -12.9307   20.3356 N   0  0  0  0  0  0
  -25.9323  -11.6471   20.5744 N   0  0  0  0  0  0
  -22.0525  -12.8239   22.0354 N   0  0  0  0  0  0
  -25.4369  -15.1863   20.4061 N   0  0  0  0  0  0
  -31.7706  -14.6777   20.0819 O   0  0  0  0  0  0
  -21.6638   -6.8877   21.4234 O   0  0  0  0  0  0
  -22.3569  -14.5554   20.6651 O   0  0  0  0  0  0
  -24.6126  -31.8692   23.2136 C   0  0  0  0  0  0
  -25.9042  -32.4833   23.8389 C   0  0  1  0  0  0
  -27.2272  -27.4439   20.0931 C   0  0  0  0  0  0
  -25.5906  -33.8631   24.2324 N   0  0  0  0  0  0
  -23.3991  -30.4927   21.5554 C   0  0  2  0  0  0
  -24.8455  -28.9721   20.1082 C   0  0  0  0  0  0
  -22.7418  -29.4610   22.4997 C   0  0  0  0  0  0
  -18.0248  -28.1339   22.8468 C   0  0  0  0  0  0
  -24.1492  -36.7299   23.2635 C   0  0  0  0  0  0
  -25.9274  -30.8394   21.3672 C   0  0  0  0  0  0
  -26.0069  -29.4787   20.7069 C   0  0  0  0  0  0
  -27.1990  -28.7217   20.6974 C   0  0  0  0  0  0
  -26.0528  -26.9709   19.4568 C   0  0  0  0  0  0
  -24.8639  -27.7174   19.4789 C   0  0  0  0  0  0
  -23.6072  -29.8357   20.1660 C   0  0  0  0  0  0
  -25.4123  -36.3126   24.0326 C   0  0  1  0  0  0
  -20.5836  -28.3632   23.1304 C   0  0  2  0  0  0
  -20.6756  -26.9373   22.5412 C   0  0  0  0  0  0
  -19.5741  -26.6357   21.5197 C   0  0  0  0  0  0
  -18.1912  -26.7885   22.1592 C   0  0  0  0  0  0
  -19.1495  -28.8799   23.2877 C   0  0  0  0  0  0
  -18.9444  -30.1403   23.8897 C   0  0  0  0  0  0
  -17.6455  -30.6576   24.0523 C   0  0  0  0  0  0
  -25.9042  -34.9486   23.5123 C   0  0  0  0  0  0
  -16.5350  -29.9069   23.6314 C   0  0  0  0  0  0
  -16.7235  -28.6471   23.0344 C   0  0  0  0  0  0
  -26.4484  -31.6603   25.0706 C   0  0  0  0  0  0
  -25.3738  -31.3706   26.1449 C   0  0  0  0  0  0
  -27.0303  -30.3043   24.6052 C   0  0  0  0  0  0
  -27.6053  -32.4338   25.7489 C   0  0  0  0  0  0
  -27.5596  -37.1812   24.8471 C   0  0  0  0  0  0
  -21.4140  -29.3000   22.3737 N   0  0  0  0  0  0
  -26.4319  -37.3804   23.9399 N   0  0  0  0  0  0
  -24.6638  -31.0789   22.1045 N   0  0  0  0  0  0
  -23.4212  -28.8122   23.3007 O   0  0  0  0  0  0
  -28.3852  -26.6917   20.1508 O   0  0  0  0  0  0
  -26.5612  -34.8939   22.4696 O   0  0  0  0  0  0
  -23.5319  -32.1427   23.7536 O   0  0  0  0  0  0
  -29.9342  -17.6627   21.6764 C   0  0  0  0  0  0
  -30.3840  -19.3875   23.8300 C   0  0  0  0  0  0
  -29.3255  -18.9333   21.6850 C   0  0  0  0  0  0
  -31.0247  -18.1278   23.8041 C   0  0  0  0  0  0
  -30.7590  -17.2285   22.7363 C   0  0  0  0  0  0
  -29.5102  -19.7935   22.7970 C   0  0  0  0  0  0
  -28.4669  -19.3126   20.4877 C   0  0  0  0  0  0
  -33.4567  -17.9877   24.5007 C   0  0  0  0  0  0
  -31.9973  -17.7951   24.9307 C   0  0  0  0  0  0
  -31.3577  -15.8159   22.6967 C   0  0  0  0  0  0
  -28.7361  -21.1056   22.9452 C   0  0  0  0  0  0
  -29.1061  -24.5595   21.2299 C   0  0  0  0  0  0
  -28.5148  -23.1738   21.5960 C   0  0  0  0  0  0
  -28.2153  -25.2638   20.1838 C   0  0  0  0  0  0
  -30.5552  -14.8306   21.9724 N   0  0  0  0  0  0
  -29.4241  -22.2753   22.3513 N   0  3  0  0  0  0
  -31.4578  -12.4159   19.0700 H   0  0  0  0  0  0
  -30.3287  -11.2725   19.7324 H   0  0  0  0  0  0
  -29.7150  -11.8547   17.3740 H   0  0  0  0  0  0
  -29.6372  -13.5493   17.7948 H   0  0  0  0  0  0
  -27.8292  -11.3174   18.7915 H   0  0  0  0  0  0
  -27.3485  -12.6610   17.7894 H   0  0  0  0  0  0
  -27.7278  -14.2537   19.6037 H   0  0  0  0  0  0
  -28.6582  -11.9073   21.3278 H   0  0  0  0  0  0
  -28.4403  -13.5442   21.8673 H   0  0  0  0  0  0
  -25.2763   -9.5686   22.4751 H   0  0  0  0  0  0
  -23.9990   -7.4653   22.7492 H   0  0  0  0  0  0
  -21.0842   -8.8762   19.8953 H   0  0  0  0  0  0
  -22.3695  -10.9662   19.6144 H   0  0  0  0  0  0
  -21.2020   -7.6161   23.9709 H   0  0  0  0  0  0
  -21.1471   -6.0528   25.9071 H   0  0  0  0  0  0
  -22.0606   -2.7613   23.2837 H   0  0  0  0  0  0
  -22.4133  -11.9882   22.4718 H   0  0  0  0  0  0
  -21.1140  -13.1260   22.2558 H   0  0  0  0  0  0
  -24.6776  -15.8482   20.5201 H   0  0  0  0  0  0
  -26.3028  -15.6209   20.1102 H   0  0  0  0  0  0
  -26.7116  -32.5532   23.1140 H   0  0  0  0  0  0
  -25.0097  -33.9805   25.0490 H   0  0  0  0  0  0
  -22.6872  -31.3107   21.4236 H   0  0  0  0  0  0
  -23.3773  -35.9620   23.3315 H   0  0  0  0  0  0
  -24.3569  -36.8897   22.2047 H   0  0  0  0  0  0
  -23.7223  -37.6496   23.6640 H   0  0  0  0  0  0
  -26.0423  -31.6125   20.6063 H   0  0  0  0  0  0
  -26.8135  -30.8816   21.9872 H   0  0  0  0  0  0
  -28.0920  -29.0995   21.1774 H   0  0  0  0  0  0
  -26.0365  -26.0241   18.9367 H   0  0  0  0  0  0
  -23.9758  -27.3280   19.0006 H   0  0  0  0  0  0
  -23.7136  -30.6157   19.4123 H   0  0  0  0  0  0
  -22.7333  -29.2549   19.8688 H   0  0  0  0  0  0
  -25.1292  -36.2014   25.0811 H   0  0  0  0  0  0
  -20.9887  -28.3217   24.1431 H   0  0  0  0  0  0
  -20.5660  -26.2233   23.3591 H   0  0  0  0  0  0
  -21.6623  -26.7428   22.1196 H   0  0  0  0  0  0
  -19.6921  -25.6280   21.1196 H   0  0  0  0  0  0
  -19.6698  -27.3193   20.6758 H   0  0  0  0  0  0
  -17.4179  -26.6605   21.3994 H   0  0  0  0  0  0
  -18.0297  -26.0037   22.8986 H   0  0  0  0  0  0
  -19.7946  -30.7167   24.2311 H   0  0  0  0  0  0
  -17.5036  -31.6262   24.5122 H   0  0  0  0  0  0
  -15.5347  -30.2968   23.7665 H   0  0  0  0  0  0
  -15.8620  -28.0803   22.7079 H   0  0  0  0  0  0
  -24.5909  -30.7058   25.7780 H   0  0  0  0  0  0
  -24.8922  -32.2854   26.4902 H   0  0  0  0  0  0
  -25.8059  -30.8869   27.0208 H   0  0  0  0  0  0
  -26.2818  -29.6826   24.1131 H   0  0  0  0  0  0
  -27.4103  -29.7277   25.4496 H   0  0  0  0  0  0
  -27.8643  -30.4352   23.9160 H   0  0  0  0  0  0
  -27.2637  -33.3641   26.2047 H   0  0  0  0  0  0
  -28.3860  -32.6898   25.0307 H   0  0  0  0  0  0
  -28.0696  -31.8461   26.5413 H   0  0  0  0  0  0
  -28.2619  -38.0118   24.7544 H   0  0  0  0  0  0
  -28.1090  -36.2639   24.6273 H   0  0  0  0  0  0
  -27.2295  -37.1434   25.8875 H   0  0  0  0  0  0
  -20.9331  -29.8751   21.6969 H   0  0  0  0  0  0
  -26.0217  -38.2878   24.1429 H   0  0  0  0  0  0
  -29.7522  -17.0085   20.8350 H   0  0  0  0  0  0
  -30.5584  -20.0480   24.6677 H   0  0  0  0  0  0
  -28.8113  -18.7916   19.5932 H   0  0  0  0  0  0
  -28.5130  -20.3768   20.2645 H   0  0  0  0  0  0
  -27.4272  -19.0322   20.6554 H   0  0  0  0  0  0
  -34.1400  -17.7496   25.3158 H   0  0  0  0  0  0
  -33.6387  -19.0193   24.2015 H   0  0  0  0  0  0
  -33.7195  -17.3520   23.6567 H   0  0  0  0  0  0
  -31.8383  -16.7848   25.3052 H   0  0  0  0  0  0
  -31.7990  -18.4398   25.7880 H   0  0  0  0  0  0
  -31.4413  -15.4183   23.7061 H   0  0  0  0  0  0
  -32.3744  -15.8623   22.3063 H   0  0  0  0  0  0
  -28.5492  -21.3056   24.0008 H   0  0  0  0  0  0
  -27.7474  -20.9712   22.5053 H   0  0  0  0  0  0
  -30.1229  -24.4706   20.8474 H   0  0  0  0  0  0
  -29.1624  -25.1679   22.1336 H   0  0  0  0  0  0
  -28.1966  -22.6562   20.6902 H   0  0  0  0  0  0
  -27.6086  -23.3363   22.1813 H   0  0  0  0  0  0
  -27.1924  -24.9883   20.4399 H   0  0  0  0  0  0
  -28.4080  -24.8620   19.1875 H   0  0  0  0  0  0
  -29.7863  -14.4196   22.4802 H   0  0  0  0  0  0
  -30.1449  -21.9356   21.7371 H   0  0  0  0  0  0
  -29.8648  -22.7801   23.1012 H   0  0  0  0  0  0
  1 25  1  0  0  0
  1 30  2  0  0  0
  1 85  1  0  0  0
  2  3  1  0  0  0
  2 25  1  0  0  0
  2 87  1  0  0  0
  2 88  1  0  0  0
  3  4  1  0  0  0
  3 89  1  0  0  0
  3 90  1  0  0  0
  4  5  1  0  0  0
  4 91  1  0  0  0
  4 92  1  0  0  0
  5  6  1  0  0  0
  5 26  1  0  0  0
  5 93  1  0  0  0
  6 25  1  0  0  0
  6 94  1  0  0  0
  6 95  1  0  0  0
  7  8  2  0  0  0
  7 26  1  0  0  0
  7 29  1  0  0  0
  8  9  1  0  0  0
  8 22  1  0  0  0
  9 10  1  0  0  0
  9 27  2  0  0  0
 10 11  2  0  0  0
 10 15  1  0  0  0
 11 12  1  0  0  0
 11 96  1  0  0  0
 12 13  2  0  0  0
 12 97  1  0  0  0
 13 14  1  0  0  0
 13 31  1  0  0  0
 14 15  2  0  0  0
 14 98  1  0  0  0
 15 99  1  0  0  0
 16 17  2  0  0  0
 16 21  1  0  0  0
 16 31  1  0  0  0
 17 18  1  0  0  0
 17100  1  0  0  0
 18 19  2  0  0  0
 18101  1  0  0  0
 19 20  1  0  0  0
 19 24  1  0  0  0
 20 21  2  0  0  0
 20102  1  0  0  0
 21 23  1  0  0  0
 22 28  1  0  0  0
 22 32  2  0  0  0
 26 27  1  0  0  0
 28103  1  0  0  0
 28104  1  0  0  0
 29105  1  0  0  0
 29106  1  0  0  0
 33 34  1  0  0  0
 33 66  1  0  0  0
 33 70  2  0  0  0
 34 36  1  0  0  0
 34 59  1  0  0  0
 34107  1  0  0  0
 35 44  2  0  0  0
 35 45  1  0  0  0
 35 68  1  0  0  0
 36 56  1  0  0  0
 36108  1  0  0  0
 37 39  1  0  0  0
 37 47  1  0  0  0
 37 66  1  0  0  0
 37109  1  0  0  0
 38 43  2  0  0  0
 38 46  1  0  0  0
 38 47  1  0  0  0
 39 64  1  0  0  0
 39 67  2  0  0  0
 40 52  1  0  0  0
 40 53  2  0  0  0
 40 58  1  0  0  0
 41110  1  0  0  0
 41111  1  0  0  0
 41112  1  0  0  0
 41 48  1  0  0  0
 42 43  1  0  0  0
 42 66  1  0  0  0
 42113  1  0  0  0
 42114  1  0  0  0
 43 44  1  0  0  0
 44115  1  0  0  0
 45 46  2  0  0  0
 45116  1  0  0  0
 46117  1  0  0  0
 47118  1  0  0  0
 47119  1  0  0  0
 48 56  1  0  0  0
 48 65  1  0  0  0
 48120  1  0  0  0
 49 50  1  0  0  0
 49 53  1  0  0  0
 49 64  1  0  0  0
 49121  1  0  0  0
 50 51  1  0  0  0
 50122  1  0  0  0
 50123  1  0  0  0
 51 52  1  0  0  0
 51124  1  0  0  0
 51125  1  0  0  0
 52126  1  0  0  0
 52127  1  0  0  0
 53 54  1  0  0  0
 54 55  2  0  0  0
 54128  1  0  0  0
 55 57  1  0  0  0
 55129  1  0  0  0
 56 69  2  0  0  0
 57 58  2  0  0  0
 57130  1  0  0  0
 58131  1  0  0  0
 59 60  1  0  0  0
 59 61  1  0  0  0
 59 62  1  0  0  0
 60132  1  0  0  0
 60133  1  0  0  0
 60134  1  0  0  0
 61135  1  0  0  0
 61136  1  0  0  0
 61137  1  0  0  0
 62138  1  0  0  0
 62139  1  0  0  0
 62140  1  0  0  0
 63 65  1  0  0  0
 63141  1  0  0  0
 63142  1  0  0  0
 63143  1  0  0  0
 64144  1  0  0  0
 65145  1  0  0  0
 68 84  1  0  0  0
 71 73  2  0  0  0
 71 75  1  0  0  0
 71146  1  0  0  0
 72 74  1  0  0  0
 72 76  2  0  0  0
 72147  1  0  0  0
 73 76  1  0  0  0
 73 77  1  0  0  0
 74 75  2  0  0  0
 74 79  1  0  0  0
 75 80  1  0  0  0
 76 81  1  0  0  0
 77148  1  0  0  0
 77149  1  0  0  0
 77150  1  0  0  0
 78 79  1  0  0  0
 78151  1  0  0  0
 78152  1  0  0  0
 78153  1  0  0  0
 79154  1  0  0  0
 79155  1  0  0  0
 80 85  1  0  0  0
 80156  1  0  0  0
 80157  1  0  0  0
 81 86  1  0  0  0
 81158  1  0  0  0
 81159  1  0  0  0
 82 83  1  0  0  0
 82 84  1  0  0  0
 82160  1  0  0  0
 82161  1  0  0  0
 83 86  1  0  0  0
 83162  1  0  0  0
 83163  1  0  0  0
 84164  1  0  0  0
 84165  1  0  0  0
 85166  1  0  0  0
 86167  1  0  0  0
 86168  1  0  0  0
M  CHG  1  86   1
M  ISO  4   1 100  68 101  84 101  85 100
M  END
> <chiral flag>
0

> <version>
0

> <s_m_source_file>
/data/baiqing/PycharmProjects/Reinvent-master-3.2/result/LINK_invent/BTK/process_docking_weight1_custom_sum_contain_oxygen_bond_distance_aromatic_linkinvent_7_9_3/rearranged_h_0036.sdf

> <i_m_source_file_index>
9

> <r_mmod_Potential_Energy-OPLS-2005>
-318.624267578125

> <r_mmod_Stretch_Energy-OPLS-2005>
36.2852478027344

> <r_mmod_Bend_Energy-OPLS-2005>
93.7252731323242

> <r_mmod_Torsional_Energy-OPLS-2005>
203.286911010742

> <r_mmod_Improper_Torsional_Energy-OPLS-2005>
3.29480385780334

> <r_mmod_Van_der_Waal_Energy-OPLS-2005>
161.872314453125

> <r_mmod_Electrostatic_Energy-OPLS-2005>
-367.792572021484

> <r_mmod_Solvation_Energy-OPLS-2005>
-460.702056884766

> <b_mmod_Minimization_Converged-OPLS-2005>
0

> <r_mmod_RMS_Derivative-OPLS-2005>
3.07818984985352

$$$$
9
                    3D
 Structure written by MMmdl.
166175  0  0  1  0            999 V2000
  -30.3211  -14.8891   20.4641 C   0  0  0  0  0  0
  -30.4329  -12.5625   19.4885 C   0  0  0  0  0  0
  -29.5064  -12.4948   18.2481 C   0  0  0  0  0  0
  -28.0333  -12.2696   18.6561 C   0  0  0  0  0  0
  -27.6043  -13.1932   19.8323 C   0  0  2  0  0  0
  -28.6207  -13.1262   20.9784 C   0  0  0  0  0  0
  -25.2395  -13.8118   20.5549 C   0  0  0  0  0  0
  -24.1692  -13.0318   20.9340 C   0  0  0  0  0  0
  -24.6254  -11.6846   20.8806 C   0  0  0  0  0  0
  -23.8958  -10.4211   21.0472 C   0  0  0  0  0  0
  -24.3559   -9.4173   21.9235 C   0  0  0  0  0  0
  -23.6262   -8.2190   22.0763 C   0  0  0  0  0  0
  -22.4255   -8.0250   21.3548 C   0  0  0  0  0  0
  -21.9866   -9.0211   20.4655 C   0  0  0  0  0  0
  -22.7165  -10.2113   20.3101 C   0  0  0  0  0  0
  -21.6819   -6.0722   22.5281 C   0  0  0  0  0  0
  -21.4004   -6.5632   23.8211 C   0  0  0  0  0  0
  -21.3654   -5.6793   24.9168 C   0  0  0  0  0  0
  -21.6048   -4.3057   24.7230 C   0  0  0  0  0  0
  -21.8817   -3.8144   23.4349 C   0  0  0  0  0  0
  -21.9191   -4.6955   22.3401 C   0  0  0  0  0  0
  -22.7794  -13.5289   21.1874 C   0  0  0  0  0  0
  -22.1662   -4.2145   21.0974 F   0  0  0  0  0  0
  -21.5633   -3.4532   25.7736 F   0  0  0  0  0  0
  -29.8700  -13.5941   20.3945 N   0  0  0  0  0  0
  -26.2607  -12.9119   20.3093 N   0  0  0  0  0  0
  -25.9112  -11.6315   20.5738 N   0  0  0  0  0  0
  -22.0407  -12.8220   22.0466 N   0  0  0  0  0  0
  -25.4130  -15.1720   20.3803 N   0  0  0  0  0  0
  -31.5313  -15.1104   20.2446 O   0  0  0  0  0  0
  -21.6617   -6.8859   21.4250 O   0  0  0  0  0  0
  -22.3461  -14.5543   20.6751 O   0  0  0  0  0  0
  -24.6343  -31.8703   23.1906 C   0  0  0  0  0  0
  -25.9265  -32.4838   23.8375 C   0  0  1  0  0  0
  -27.2393  -27.2862   20.1089 C   0  0  0  0  0  0
  -25.6041  -33.8593   24.2226 N   0  0  0  0  0  0
  -23.4326  -30.4722   21.5536 C   0  0  2  0  0  0
  -24.8613  -28.9030   20.1305 C   0  0  0  0  0  0
  -22.7576  -29.4378   22.5167 C   0  0  0  0  0  0
  -18.0384  -28.0335   22.7912 C   0  0  0  0  0  0
  -24.1554  -36.7244   23.2648 C   0  0  0  0  0  0
  -25.9640  -30.7828   21.3640 C   0  0  0  0  0  0
  -26.0440  -29.3977   20.7032 C   0  0  0  0  0  0
  -27.2424  -28.6164   20.6567 C   0  0  0  0  0  0
  -26.0197  -26.8101   19.5809 C   0  0  0  0  0  0
  -24.8556  -27.6090   19.5864 C   0  0  0  0  0  0
  -23.6357  -29.7867   20.1720 C   0  0  0  0  0  0
  -25.4196  -36.3008   24.0294 C   0  0  1  0  0  0
  -20.5838  -28.3201   23.1087 C   0  0  2  0  0  0
  -20.7183  -26.8660   22.6151 C   0  0  0  0  0  0
  -19.6778  -26.4772   21.5442 C   0  0  0  0  0  0
  -18.2722  -26.6731   22.0884 C   0  0  0  0  0  0
  -19.1268  -28.8069   23.2430 C   0  0  0  0  0  0
  -18.8824  -30.0625   23.8342 C   0  0  0  0  0  0
  -17.5801  -30.5463   24.0190 C   0  0  0  0  0  0
  -25.9109  -34.9500   23.5102 C   0  0  0  0  0  0
  -16.4960  -29.7648   23.5813 C   0  0  0  0  0  0
  -16.7002  -28.5017   22.9925 C   0  0  0  0  0  0
  -26.4677  -31.6561   25.0769 C   0  0  0  0  0  0
  -25.3701  -31.3837   26.1260 C   0  0  0  0  0  0
  -27.0448  -30.2990   24.6131 C   0  0  0  0  0  0
  -27.6176  -32.4230   25.7579 C   0  0  0  0  0  0
  -27.5553  -37.1824   24.8451 C   0  0  0  0  0  0
  -21.4132  -29.3136   22.4297 N   0  0  0  0  0  0
  -26.4257  -37.3758   23.9384 N   0  0  0  0  0  0
  -24.7048  -31.0409   22.1004 N   0  0  0  0  0  0
  -23.4571  -28.7591   23.3104 O   0  0  0  0  0  0
  -28.3787  -26.4571   20.0265 O   0  0  0  0  0  0
  -26.5573  -34.8996   22.4593 O   0  0  0  0  0  0
  -23.5390  -32.1278   23.7194 O   0  0  0  0  0  0
  -28.5519  -19.7778   20.1372 C   0  0  0  0  0  0
  -26.7181  -21.1304   21.0913 C   0  0  0  0  0  0
  -26.3965  -20.0356   21.9315 C   0  0  0  0  0  0
  -27.8066  -21.0228   20.1886 C   0  0  0  0  0  0
  -28.2962  -18.6181   20.9733 C   0  0  0  0  0  0
  -27.1322  -18.7964   21.8255 C   0  0  0  0  0  0
  -25.9019  -22.4458   21.1385 C   0  0  0  0  0  0
  -25.2547  -20.1925   22.9725 C   0  0  0  0  0  0
  -24.6915  -22.4383   22.0593 C   0  0  0  0  0  0
  -24.9081  -21.6396   23.3312 C   0  0  0  0  0  0
  -26.5843  -17.6733   22.6964 C   0  0  0  0  0  0
  -27.9791  -22.2053   19.1202 C   0  0  0  0  0  0
  -29.3705  -17.3627   21.1715 C   0  0  0  0  0  0
  -28.5680  -23.7305   19.3078 C   0  0  0  0  0  0
  -28.3771  -24.9747   20.3733 C   0  0  0  0  0  0
  -29.3382  -15.9101   20.6155 N   0  0  0  0  0  0
  -31.4594  -12.8056   19.2010 H   0  0  0  0  0  0
  -30.4796  -11.6034   20.0036 H   0  0  0  0  0  0
  -29.8323  -11.6793   17.5987 H   0  0  0  0  0  0
  -29.5829  -13.4072   17.6532 H   0  0  0  0  0  0
  -27.9391  -11.2303   18.9673 H   0  0  0  0  0  0
  -27.3598  -12.3943   17.8045 H   0  0  0  0  0  0
  -27.5909  -14.2049   19.4278 H   0  0  0  0  0  0
  -28.7090  -12.1087   21.3547 H   0  0  0  0  0  0
  -28.3092  -13.7360   21.8311 H   0  0  0  0  0  0
  -25.2725   -9.5622   22.4784 H   0  0  0  0  0  0
  -23.9976   -7.4567   22.7437 H   0  0  0  0  0  0
  -21.0824   -8.8735   19.8936 H   0  0  0  0  0  0
  -22.3665  -10.9651   19.6198 H   0  0  0  0  0  0
  -21.1992   -7.6136   23.9711 H   0  0  0  0  0  0
  -21.1482   -6.0516   25.9072 H   0  0  0  0  0  0
  -22.0608   -2.7606   23.2837 H   0  0  0  0  0  0
  -22.4030  -11.9902   22.4822 H   0  0  0  0  0  0
  -21.1041  -13.1235   22.2722 H   0  0  0  0  0  0
  -24.5965  -15.7714   20.4170 H   0  0  0  0  0  0
  -26.0888  -15.4997   19.7001 H   0  0  0  0  0  0
  -26.7277  -32.5570   23.1016 H   0  0  0  0  0  0
  -25.0441  -33.9786   25.0515 H   0  0  0  0  0  0
  -22.7288  -31.2856   21.3918 H   0  0  0  0  0  0
  -23.3759  -35.9581   23.3302 H   0  0  0  0  0  0
  -24.3574  -36.8853   22.2005 H   0  0  0  0  0  0
  -23.7288  -37.6500   23.6659 H   0  0  0  0  0  0
  -26.0901  -31.5618   20.5953 H   0  0  0  0  0  0
  -26.8551  -30.8443   21.9849 H   0  0  0  0  0  0
  -28.1803  -29.0220   21.0356 H   0  0  0  0  0  0
  -25.9630  -25.7992   19.1765 H   0  0  0  0  0  0
  -23.9445  -27.1917   19.1987 H   0  0  0  0  0  0
  -23.7795  -30.5547   19.4100 H   0  0  0  0  0  0
  -22.7398  -29.2279   19.8633 H   0  0  0  0  0  0
  -25.1348  -36.1864   25.0725 H   0  0  0  0  0  0
  -20.9422  -28.2522   24.1382 H   0  0  0  0  0  0
  -20.5455  -26.1943   23.4482 H   0  0  0  0  0  0
  -21.7688  -26.6692   22.2853 H   0  0  0  0  0  0
  -19.8151  -25.4463   21.1793 H   0  0  0  0  0  0
  -19.8710  -26.9745   20.6159 H   0  0  0  0  0  0
  -17.5565  -26.4976   21.2864 H   0  0  0  0  0  0
  -18.1376  -25.8771   22.8123 H   0  0  0  0  0  0
  -19.6891  -30.6621   24.2199 H   0  0  0  0  0  0
  -17.3758  -31.5297   24.4470 H   0  0  0  0  0  0
  -15.5001  -30.1464   23.6974 H   0  0  0  0  0  0
  -15.8540  -27.9270   22.6656 H   0  0  0  0  0  0
  -24.5871  -30.7303   25.7417 H   0  0  0  0  0  0
  -24.8993  -32.3130   26.4507 H   0  0  0  0  0  0
  -25.7813  -30.9014   27.0086 H   0  0  0  0  0  0
  -26.3067  -29.6748   24.1111 H   0  0  0  0  0  0
  -27.4063  -29.7291   25.4651 H   0  0  0  0  0  0
  -27.8961  -30.4226   23.9415 H   0  0  0  0  0  0
  -27.2845  -33.3447   26.2262 H   0  0  0  0  0  0
  -28.4107  -32.6778   25.0591 H   0  0  0  0  0  0
  -28.0690  -31.8254   26.5409 H   0  0  0  0  0  0
  -28.2590  -38.0152   24.7480 H   0  0  0  0  0  0
  -28.1111  -36.2633   24.6364 H   0  0  0  0  0  0
  -27.2275  -37.1544   25.8895 H   0  0  0  0  0  0
  -20.8840  -30.0261   21.9021 H   0  0  0  0  0  0
  -26.0132  -38.2803   24.1501 H   0  0  0  0  0  0
  -29.4045  -19.7814   19.4719 H   0  0  0  0  0  0
  -25.5749  -22.8446   20.1715 H   0  0  0  0  0  0
  -26.5708  -23.1920   21.4780 H   0  0  0  0  0  0
  -25.4930  -19.7120   23.9243 H   0  0  0  0  0  0
  -24.3076  -19.7707   22.5992 H   0  0  0  0  0  0
  -23.8735  -22.0041   21.5057 H   0  0  0  0  0  0
  -24.4381  -23.4591   22.3337 H   0  0  0  0  0  0
  -25.7184  -22.1467   23.8503 H   0  0  0  0  0  0
  -24.0317  -21.6526   23.9983 H   0  0  0  0  0  0
  -25.5141  -17.5318   22.5338 H   0  0  0  0  0  0
  -26.7167  -17.9055   23.7445 H   0  0  0  0  0  0
  -27.0456  -16.6966   22.5355 H   0  0  0  0  0  0
  -27.0096  -22.2710   18.6262 H   0  0  0  0  0  0
  -28.5360  -21.7406   18.3015 H   0  0  0  0  0  0
  -29.2417  -17.1401   22.2311 H   0  0  0  0  0  0
  -30.4080  -17.7207   21.1093 H   0  0  0  0  0  0
  -28.4887  -24.1952   18.3225 H   0  0  0  0  0  0
  -29.6212  -23.4863   19.3914 H   0  0  0  0  0  0
  -29.3988  -24.9793   20.7722 H   0  0  0  0  0  0
  -27.8563  -24.7585   21.3016 H   0  0  0  0  0  0
  -28.4038  -15.5517   20.5428 H   0  0  0  0  0  0
  1 25  1  0  0  0
  1 30  2  0  0  0
  1 86  1  0  0  0
  2  3  1  0  0  0
  2 25  1  0  0  0
  2 87  1  0  0  0
  2 88  1  0  0  0
  3  4  1  0  0  0
  3 89  1  0  0  0
  3 90  1  0  0  0
  4  5  1  0  0  0
  4 91  1  0  0  0
  4 92  1  0  0  0
  5  6  1  0  0  0
  5 26  1  0  0  0
  5 93  1  0  0  0
  6 25  1  0  0  0
  6 94  1  0  0  0
  6 95  1  0  0  0
  7  8  2  0  0  0
  7 26  1  0  0  0
  7 29  1  0  0  0
  8  9  1  0  0  0
  8 22  1  0  0  0
  9 10  1  0  0  0
  9 27  2  0  0  0
 10 11  2  0  0  0
 10 15  1  0  0  0
 11 12  1  0  0  0
 11 96  1  0  0  0
 12 13  2  0  0  0
 12 97  1  0  0  0
 13 14  1  0  0  0
 13 31  1  0  0  0
 14 15  2  0  0  0
 14 98  1  0  0  0
 15 99  1  0  0  0
 16 17  2  0  0  0
 16 21  1  0  0  0
 16 31  1  0  0  0
 17 18  1  0  0  0
 17100  1  0  0  0
 18 19  2  0  0  0
 18101  1  0  0  0
 19 20  1  0  0  0
 19 24  1  0  0  0
 20 21  2  0  0  0
 20102  1  0  0  0
 21 23  1  0  0  0
 22 28  1  0  0  0
 22 32  2  0  0  0
 26 27  1  0  0  0
 28103  1  0  0  0
 28104  1  0  0  0
 29105  1  0  0  0
 29106  1  0  0  0
 33 34  1  0  0  0
 33 66  1  0  0  0
 33 70  2  0  0  0
 34 36  1  0  0  0
 34 59  1  0  0  0
 34107  1  0  0  0
 35 44  2  0  0  0
 35 45  1  0  0  0
 35 68  1  0  0  0
 36 56  1  0  0  0
 36108  1  0  0  0
 37 39  1  0  0  0
 37 47  1  0  0  0
 37 66  1  0  0  0
 37109  1  0  0  0
 38 43  2  0  0  0
 38 46  1  0  0  0
 38 47  1  0  0  0
 39 64  1  0  0  0
 39 67  2  0  0  0
 40 52  1  0  0  0
 40 53  2  0  0  0
 40 58  1  0  0  0
 41110  1  0  0  0
 41111  1  0  0  0
 41112  1  0  0  0
 41 48  1  0  0  0
 42 43  1  0  0  0
 42 66  1  0  0  0
 42113  1  0  0  0
 42114  1  0  0  0
 43 44  1  0  0  0
 44115  1  0  0  0
 45 46  2  0  0  0
 45116  1  0  0  0
 46117  1  0  0  0
 47118  1  0  0  0
 47119  1  0  0  0
 48 56  1  0  0  0
 48 65  1  0  0  0
 48120  1  0  0  0
 49 50  1  0  0  0
 49 53  1  0  0  0
 49 64  1  0  0  0
 49121  1  0  0  0
 50 51  1  0  0  0
 50122  1  0  0  0
 50123  1  0  0  0
 51 52  1  0  0  0
 51124  1  0  0  0
 51125  1  0  0  0
 52126  1  0  0  0
 52127  1  0  0  0
 53 54  1  0  0  0
 54 55  2  0  0  0
 54128  1  0  0  0
 55 57  1  0  0  0
 55129  1  0  0  0
 56 69  2  0  0  0
 57 58  2  0  0  0
 57130  1  0  0  0
 58131  1  0  0  0
 59 60  1  0  0  0
 59 61  1  0  0  0
 59 62  1  0  0  0
 60132  1  0  0  0
 60133  1  0  0  0
 60134  1  0  0  0
 61135  1  0  0  0
 61136  1  0  0  0
 61137  1  0  0  0
 62138  1  0  0  0
 62139  1  0  0  0
 62140  1  0  0  0
 63 65  1  0  0  0
 63141  1  0  0  0
 63142  1  0  0  0
 63143  1  0  0  0
 64144  1  0  0  0
 65145  1  0  0  0
 68 85  1  0  0  0
 71 74  2  0  0  0
 71 75  1  0  0  0
 71146  1  0  0  0
 72 73  2  0  0  0
 72 74  1  0  0  0
 72 77  1  0  0  0
 73 76  1  0  0  0
 73 78  1  0  0  0
 74 82  1  0  0  0
 75 76  2  0  0  0
 75 83  1  0  0  0
 76 81  1  0  0  0
 77 79  1  0  0  0
 77147  1  0  0  0
 77148  1  0  0  0
 78 80  1  0  0  0
 78149  1  0  0  0
 78150  1  0  0  0
 79 80  1  0  0  0
 79151  1  0  0  0
 79152  1  0  0  0
 80153  1  0  0  0
 80154  1  0  0  0
 81155  1  0  0  0
 81156  1  0  0  0
 81157  1  0  0  0
 82 84  1  0  0  0
 82158  1  0  0  0
 82159  1  0  0  0
 83 86  1  0  0  0
 83160  1  0  0  0
 83161  1  0  0  0
 84 85  1  0  0  0
 84162  1  0  0  0
 84163  1  0  0  0
 85164  1  0  0  0
 85165  1  0  0  0
 86166  1  0  0  0
M  ISO  4   1 100  68 101  85 101  86 100
M  END
> <chiral flag>
0

> <version>
0

> <s_m_source_file>
/data/baiqing/PycharmProjects/Reinvent-master-3.2/result/LINK_invent/BTK/process_docking_weight1_custom_sum_contain_oxygen_bond_distance_aromatic_linkinvent_7_9_3/rearranged_h_0036.sdf

> <i_m_source_file_index>
10

> <r_mmod_Potential_Energy-OPLS-2005>
502.799255371094

> <r_mmod_Stretch_Energy-OPLS-2005>
207.832321166992

> <r_mmod_Bend_Energy-OPLS-2005>
340.940002441406

> <r_mmod_Torsional_Energy-OPLS-2005>
274.154663085938

> <r_mmod_Improper_Torsional_Energy-OPLS-2005>
10.6198492050171

> <r_mmod_Van_der_Waal_Energy-OPLS-2005>
140.079879760742

> <r_mmod_Electrostatic_Energy-OPLS-2005>
-432.056823730469

> <r_mmod_Solvation_Energy-OPLS-2005>
-205.424789428711

> <b_mmod_Minimization_Converged-OPLS-2005>
0

> <r_mmod_RMS_Derivative-OPLS-2005>
41.5767784118652

$$$$
10
                    3D
 Structure written by MMmdl.
153161  0  0  1  0            999 V2000
  -30.5643  -14.9732   20.4138 C   0  0  0  0  0  0
  -30.4464  -12.6029   19.5100 C   0  0  0  0  0  0
  -29.5357  -12.5579   18.2601 C   0  0  0  0  0  0
  -28.0646  -12.3464   18.6655 C   0  0  0  0  0  0
  -27.6382  -13.2601   19.8458 C   0  0  2  0  0  0
  -28.6824  -13.2964   20.9859 C   0  0  0  0  0  0
  -25.2502  -13.8240   20.5686 C   0  0  0  0  0  0
  -24.1819  -13.0446   20.9203 C   0  0  0  0  0  0
  -24.6467  -11.6944   20.8737 C   0  0  0  0  0  0
  -23.9152  -10.4298   21.0385 C   0  0  0  0  0  0
  -24.3672   -9.4211   21.9159 C   0  0  0  0  0  0
  -23.6309   -8.2269   22.0771 C   0  0  0  0  0  0
  -22.4295   -8.0312   21.3571 C   0  0  0  0  0  0
  -21.9953   -9.0302   20.4669 C   0  0  0  0  0  0
  -22.7317  -10.2149   20.3043 C   0  0  0  0  0  0
  -21.6861   -6.0744   22.5284 C   0  0  0  0  0  0
  -21.4023   -6.5648   23.8221 C   0  0  0  0  0  0
  -21.3656   -5.6799   24.9178 C   0  0  0  0  0  0
  -21.6030   -4.3056   24.7223 C   0  0  0  0  0  0
  -21.8819   -3.8153   23.4344 C   0  0  0  0  0  0
  -21.9211   -4.6978   22.3399 C   0  0  0  0  0  0
  -22.7831  -13.5211   21.1837 C   0  0  0  0  0  0
  -22.1665   -4.2164   21.0978 F   0  0  0  0  0  0
  -21.5640   -3.4542   25.7727 F   0  0  0  0  0  0
  -29.9650  -13.7081   20.3921 N   0  0  0  0  0  0
  -26.2950  -12.9490   20.3262 N   0  0  0  0  0  0
  -25.9401  -11.6613   20.5718 N   0  0  0  0  0  0
  -22.0489  -12.8191   22.0400 N   0  0  0  0  0  0
  -25.4086  -15.1966   20.4059 N   0  0  0  0  0  0
  -31.7541  -15.0322   20.0850 O   0  0  0  0  0  0
  -21.6660   -6.8901   21.4252 O   0  0  0  0  0  0
  -22.3495  -14.5507   20.6705 O   0  0  0  0  0  0
  -24.6420  -31.8428   23.1844 C   0  0  0  0  0  0
  -25.9182  -32.4693   23.8252 C   0  0  1  0  0  0
  -27.2367  -27.1214   20.1628 C   0  0  0  0  0  0
  -25.5934  -33.8499   24.2142 N   0  0  0  0  0  0
  -23.4494  -30.4569   21.5303 C   0  0  2  0  0  0
  -24.9068  -28.8777   20.1128 C   0  0  0  0  0  0
  -22.7562  -29.4509   22.4843 C   0  0  0  0  0  0
  -18.0276  -28.1400   22.8468 C   0  0  0  0  0  0
  -24.1494  -36.7277   23.2647 C   0  0  0  0  0  0
  -26.0064  -30.7086   21.3910 C   0  0  0  0  0  0
  -26.0806  -29.3168   20.7374 C   0  0  0  0  0  0
  -27.2417  -28.4523   20.7505 C   0  0  0  0  0  0
  -26.0451  -26.7961   19.4758 C   0  0  0  0  0  0
  -24.9042  -27.6319   19.4661 C   0  0  0  0  0  0
  -23.6805  -29.7786   20.1539 C   0  0  0  0  0  0
  -25.4131  -36.3028   24.0299 C   0  0  1  0  0  0
  -20.5899  -28.3717   23.1230 C   0  0  2  0  0  0
  -20.6782  -26.9421   22.5418 C   0  0  0  0  0  0
  -19.5760  -26.6369   21.5216 C   0  0  0  0  0  0
  -18.1930  -26.7932   22.1618 C   0  0  0  0  0  0
  -19.1545  -28.8873   23.2836 C   0  0  0  0  0  0
  -18.9479  -30.1474   23.8852 C   0  0  0  0  0  0
  -17.6471  -30.6607   24.0537 C   0  0  0  0  0  0
  -25.9089  -34.9412   23.5033 C   0  0  0  0  0  0
  -16.5362  -29.9111   23.6328 C   0  0  0  0  0  0
  -16.7259  -28.6525   23.0332 C   0  0  0  0  0  0
  -26.4485  -31.6581   25.0712 C   0  0  0  0  0  0
  -25.3625  -31.3818   26.1376 C   0  0  0  0  0  0
  -27.0351  -30.2960   24.6333 C   0  0  0  0  0  0
  -27.6002  -32.4363   25.7504 C   0  0  0  0  0  0
  -27.5572  -37.1800   24.8445 C   0  0  0  0  0  0
  -21.4249  -29.3043   22.3605 N   0  0  0  0  0  0
  -26.4281  -37.3761   23.9388 N   0  0  0  0  0  0
  -24.7178  -31.0257   22.0905 N   0  0  0  0  0  0
  -23.4198  -28.8073   23.3007 O   0  0  0  0  0  0
  -28.2951  -26.1371   20.2693 O   0  0  0  0  0  0
  -26.5682  -34.8917   22.4615 O   0  0  0  0  0  0
  -23.5525  -32.1312   23.7037 O   0  0  0  0  0  0
  -29.8036  -20.8473   22.4191 C   0  0  0  0  0  0
  -30.4317  -18.8043   22.4463 C   0  0  0  0  0  0
  -29.9002  -18.9896   21.1778 C   0  0  0  0  0  0
  -31.0812  -17.5916   23.0481 C   0  0  0  0  0  0
  -29.9425  -17.6995   20.1664 C   0  0  0  0  0  0
  -28.9613  -23.2917   20.6658 C   0  0  0  0  0  0
  -28.9150  -21.6237   20.2421 C   0  0  0  0  0  0
  -28.1293  -24.6032   19.9757 C   0  0  0  0  0  0
  -30.3427  -19.9462   23.2157 N   0  0  0  0  0  0
  -29.5209  -20.4713   21.1586 N   0  0  0  0  0  0
  -29.7982  -16.1625   20.5956 N   0  0  0  0  0  0
  -31.4863  -12.7399   19.2084 H   0  0  0  0  0  0
  -30.4209  -11.6492   20.0377 H   0  0  0  0  0  0
  -29.8603  -11.7709   17.5800 H   0  0  0  0  0  0
  -29.6362  -13.4914   17.7062 H   0  0  0  0  0  0
  -27.9499  -11.2982   18.9432 H   0  0  0  0  0  0
  -27.4127  -12.5085   17.8062 H   0  0  0  0  0  0
  -27.6013  -14.2664   19.4288 H   0  0  0  0  0  0
  -28.7687  -12.3247   21.4732 H   0  0  0  0  0  0
  -28.3756  -14.0026   21.7596 H   0  0  0  0  0  0
  -25.2820   -9.5661   22.4744 H   0  0  0  0  0  0
  -24.0020   -7.4645   22.7467 H   0  0  0  0  0  0
  -21.0914   -8.8811   19.8948 H   0  0  0  0  0  0
  -22.3782  -10.9692   19.6150 H   0  0  0  0  0  0
  -21.2004   -7.6146   23.9719 H   0  0  0  0  0  0
  -21.1478   -6.0520   25.9076 H   0  0  0  0  0  0
  -22.0603   -2.7618   23.2832 H   0  0  0  0  0  0
  -22.4125  -11.9894   22.4850 H   0  0  0  0  0  0
  -21.1094  -13.1184   22.2570 H   0  0  0  0  0  0
  -24.6268  -15.8341   20.5025 H   0  0  0  0  0  0
  -26.2379  -15.6473   20.0445 H   0  0  0  0  0  0
  -26.7243  -32.5276   23.0988 H   0  0  0  0  0  0
  -24.9996  -33.9601   25.0223 H   0  0  0  0  0  0
  -22.7538  -31.2834   21.3675 H   0  0  0  0  0  0
  -23.3751  -35.9615   23.3287 H   0  0  0  0  0  0
  -24.3572  -36.8955   22.2073 H   0  0  0  0  0  0
  -23.7284  -37.6480   23.6705 H   0  0  0  0  0  0
  -26.1605  -31.4565   20.6123 H   0  0  0  0  0  0
  -26.8774  -30.7674   22.0330 H   0  0  0  0  0  0
  -28.1264  -28.7800   21.2776 H   0  0  0  0  0  0
  -25.9647  -25.8508   18.9600 H   0  0  0  0  0  0
  -24.0145  -27.2907   18.9563 H   0  0  0  0  0  0
  -23.8186  -30.5481   19.3945 H   0  0  0  0  0  0
  -22.7987  -29.2192   19.8382 H   0  0  0  0  0  0
  -25.1330  -36.1854   25.0796 H   0  0  0  0  0  0
  -20.9949  -28.3333   24.1363 H   0  0  0  0  0  0
  -20.5678  -26.2345   23.3647 H   0  0  0  0  0  0
  -21.6655  -26.7447   22.1215 H   0  0  0  0  0  0
  -19.6941  -25.6265   21.1290 H   0  0  0  0  0  0
  -19.6708  -27.3146   20.6710 H   0  0  0  0  0  0
  -17.4204  -26.6618   21.4022 H   0  0  0  0  0  0
  -18.0339  -26.0090   22.9034 H   0  0  0  0  0  0
  -19.7965  -30.7274   24.2232 H   0  0  0  0  0  0
  -17.5046  -31.6282   24.5167 H   0  0  0  0  0  0
  -15.5375  -30.2995   23.7703 H   0  0  0  0  0  0
  -15.8641  -28.0847   22.7057 H   0  0  0  0  0  0
  -24.5778  -30.7206   25.7686 H   0  0  0  0  0  0
  -24.8828  -32.3021   26.4710 H   0  0  0  0  0  0
  -25.7846  -30.9037   27.0217 H   0  0  0  0  0  0
  -26.2973  -29.6691   24.1305 H   0  0  0  0  0  0
  -27.3898  -29.7272   25.4942 H   0  0  0  0  0  0
  -27.8906  -30.4186   23.9688 H   0  0  0  0  0  0
  -27.2573  -33.3685   26.2005 H   0  0  0  0  0  0
  -28.3850  -32.6902   25.0366 H   0  0  0  0  0  0
  -28.0603  -31.8534   26.5493 H   0  0  0  0  0  0
  -28.2568  -38.0120   24.7493 H   0  0  0  0  0  0
  -28.1092  -36.2640   24.6258 H   0  0  0  0  0  0
  -27.2263  -37.1434   25.8843 H   0  0  0  0  0  0
  -20.9466  -29.8806   21.6817 H   0  0  0  0  0  0
  -26.0133  -38.2829   24.1395 H   0  0  0  0  0  0
  -29.6307  -21.8437   22.7950 H   0  0  0  0  0  0
  -31.7819  -17.1294   22.3532 H   0  0  0  0  0  0
  -30.3409  -16.8423   23.3262 H   0  0  0  0  0  0
  -31.6468  -17.8391   23.9496 H   0  0  0  0  0  0
  -30.8941  -17.7560   19.6361 H   0  0  0  0  0  0
  -29.1954  -17.8636   19.3889 H   0  0  0  0  0  0
  -30.0155  -23.5665   20.6534 H   0  0  0  0  0  0
  -28.6749  -23.3586   21.7127 H   0  0  0  0  0  0
  -27.8655  -21.3695   20.0855 H   0  0  0  0  0  0
  -29.3724  -21.5142   19.2602 H   0  0  0  0  0  0
  -27.0806  -24.3701   20.1464 H   0  0  0  0  0  0
  -28.2626  -24.5106   18.8986 H   0  0  0  0  0  0
  -28.8547  -15.9413   20.8757 H   0  0  0  0  0  0
  1 25  1  0  0  0
  1 30  2  0  0  0
  1 81  1  0  0  0
  2  3  1  0  0  0
  2 25  1  0  0  0
  2 82  1  0  0  0
  2 83  1  0  0  0
  3  4  1  0  0  0
  3 84  1  0  0  0
  3 85  1  0  0  0
  4  5  1  0  0  0
  4 86  1  0  0  0
  4 87  1  0  0  0
  5  6  1  0  0  0
  5 26  1  0  0  0
  5 88  1  0  0  0
  6 25  1  0  0  0
  6 89  1  0  0  0
  6 90  1  0  0  0
  7  8  2  0  0  0
  7 26  1  0  0  0
  7 29  1  0  0  0
  8  9  1  0  0  0
  8 22  1  0  0  0
  9 10  1  0  0  0
  9 27  2  0  0  0
 10 11  2  0  0  0
 10 15  1  0  0  0
 11 12  1  0  0  0
 11 91  1  0  0  0
 12 13  2  0  0  0
 12 92  1  0  0  0
 13 14  1  0  0  0
 13 31  1  0  0  0
 14 15  2  0  0  0
 14 93  1  0  0  0
 15 94  1  0  0  0
 16 17  2  0  0  0
 16 21  1  0  0  0
 16 31  1  0  0  0
 17 18  1  0  0  0
 17 95  1  0  0  0
 18 19  2  0  0  0
 18 96  1  0  0  0
 19 20  1  0  0  0
 19 24  1  0  0  0
 20 21  2  0  0  0
 20 97  1  0  0  0
 21 23  1  0  0  0
 22 28  1  0  0  0
 22 32  2  0  0  0
 26 27  1  0  0  0
 28 98  1  0  0  0
 28 99  1  0  0  0
 29100  1  0  0  0
 29101  1  0  0  0
 33 34  1  0  0  0
 33 66  1  0  0  0
 33 70  2  0  0  0
 34 36  1  0  0  0
 34 59  1  0  0  0
 34102  1  0  0  0
 35 44  2  0  0  0
 35 45  1  0  0  0
 35 68  1  0  0  0
 36 56  1  0  0  0
 36103  1  0  0  0
 37 39  1  0  0  0
 37 47  1  0  0  0
 37 66  1  0  0  0
 37104  1  0  0  0
 38 43  2  0  0  0
 38 46  1  0  0  0
 38 47  1  0  0  0
 39 64  1  0  0  0
 39 67  2  0  0  0
 40 52  1  0  0  0
 40 53  2  0  0  0
 40 58  1  0  0  0
 41105  1  0  0  0
 41106  1  0  0  0
 41107  1  0  0  0
 41 48  1  0  0  0
 42 43  1  0  0  0
 42 66  1  0  0  0
 42108  1  0  0  0
 42109  1  0  0  0
 43 44  1  0  0  0
 44110  1  0  0  0
 45 46  2  0  0  0
 45111  1  0  0  0
 46112  1  0  0  0
 47113  1  0  0  0
 47114  1  0  0  0
 48 56  1  0  0  0
 48 65  1  0  0  0
 48115  1  0  0  0
 49 50  1  0  0  0
 49 53  1  0  0  0
 49 64  1  0  0  0
 49116  1  0  0  0
 50 51  1  0  0  0
 50117  1  0  0  0
 50118  1  0  0  0
 51 52  1  0  0  0
 51119  1  0  0  0
 51120  1  0  0  0
 52121  1  0  0  0
 52122  1  0  0  0
 53 54  1  0  0  0
 54 55  2  0  0  0
 54123  1  0  0  0
 55 57  1  0  0  0
 55124  1  0  0  0
 56 69  2  0  0  0
 57 58  2  0  0  0
 57125  1  0  0  0
 58126  1  0  0  0
 59 60  1  0  0  0
 59 61  1  0  0  0
 59 62  1  0  0  0
 60127  1  0  0  0
 60128  1  0  0  0
 60129  1  0  0  0
 61130  1  0  0  0
 61131  1  0  0  0
 61132  1  0  0  0
 62133  1  0  0  0
 62134  1  0  0  0
 62135  1  0  0  0
 63 65  1  0  0  0
 63136  1  0  0  0
 63137  1  0  0  0
 63138  1  0  0  0
 64139  1  0  0  0
 65140  1  0  0  0
 68 78  1  0  0  0
 71 79  2  0  0  0
 71 80  1  0  0  0
 71141  1  0  0  0
 72 73  2  0  0  0
 72 74  1  0  0  0
 72 79  1  0  0  0
 73 75  1  0  0  0
 73 80  1  0  0  0
 74142  1  0  0  0
 74143  1  0  0  0
 74144  1  0  0  0
 75 81  1  0  0  0
 75145  1  0  0  0
 75146  1  0  0  0
 76 77  1  0  0  0
 76 78  1  0  0  0
 76147  1  0  0  0
 76148  1  0  0  0
 77 80  1  0  0  0
 77149  1  0  0  0
 77150  1  0  0  0
 78151  1  0  0  0
 78152  1  0  0  0
 81153  1  0  0  0
M  ISO  4   1 100  68 101  78 101  81 100
M  END
> <chiral flag>
0

> <version>
0

> <s_m_source_file>
/data/baiqing/PycharmProjects/Reinvent-master-3.2/result/LINK_invent/BTK/process_docking_weight1_custom_sum_contain_oxygen_bond_distance_aromatic_linkinvent_7_9_3/rearranged_h_0036.sdf

> <i_m_source_file_index>
11

> <r_mmod_Potential_Energy-OPLS-2005>
562.679565429688

> <r_mmod_Stretch_Energy-OPLS-2005>
325.212188720703

> <r_mmod_Bend_Energy-OPLS-2005>
319.888610839844

> <r_mmod_Torsional_Energy-OPLS-2005>
214.843536376953

> <r_mmod_Improper_Torsional_Energy-OPLS-2005>
5.66239738464355

> <r_mmod_Van_der_Waal_Energy-OPLS-2005>
112.531913757324

> <r_mmod_Electrostatic_Energy-OPLS-2005>
-389.275695800781

> <r_mmod_Solvation_Energy-OPLS-2005>
-232.819549560547

> <b_mmod_Minimization_Converged-OPLS-2005>
0

> <r_mmod_RMS_Derivative-OPLS-2005>
3.91890597343445

$$$$
11
                    3D
 Structure written by MMmdl.
172181  0  0  1  0            999 V2000
  -30.6256  -14.6080   20.5553 C   0  0  0  0  0  0
  -30.4399  -12.3820   19.4459 C   0  0  0  0  0  0
  -29.5063  -12.5131   18.2221 C   0  0  0  0  0  0
  -28.0286  -12.3471   18.6319 C   0  0  0  0  0  0
  -27.6539  -13.2118   19.8636 C   0  0  2  0  0  0
  -28.6978  -13.0500   20.9911 C   0  0  0  0  0  0
  -25.2569  -13.8146   20.5701 C   0  0  0  0  0  0
  -24.1836  -13.0414   20.9200 C   0  0  0  0  0  0
  -24.6401  -11.6885   20.8747 C   0  0  0  0  0  0
  -23.9063  -10.4273   21.0412 C   0  0  0  0  0  0
  -24.3607   -9.4185   21.9194 C   0  0  0  0  0  0
  -23.6283   -8.2222   22.0754 C   0  0  0  0  0  0
  -22.4263   -8.0267   21.3544 C   0  0  0  0  0  0
  -21.9903   -9.0241   20.4646 C   0  0  0  0  0  0
  -22.7235  -10.2121   20.3061 C   0  0  0  0  0  0
  -21.6836   -6.0729   22.5277 C   0  0  0  0  0  0
  -21.3999   -6.5638   23.8209 C   0  0  0  0  0  0
  -21.3665   -5.6797   24.9174 C   0  0  0  0  0  0
  -21.6049   -4.3059   24.7230 C   0  0  0  0  0  0
  -21.8815   -3.8147   23.4351 C   0  0  0  0  0  0
  -21.9189   -4.6959   22.3404 C   0  0  0  0  0  0
  -22.7865  -13.5213   21.1878 C   0  0  0  0  0  0
  -22.1661   -4.2144   21.0981 F   0  0  0  0  0  0
  -21.5631   -3.4549   25.7750 F   0  0  0  0  0  0
  -30.0182  -13.3863   20.4393 N   0  0  0  0  0  0
  -26.2990  -12.9320   20.3325 N   0  0  0  0  0  0
  -25.9324  -11.6476   20.5761 N   0  0  0  0  0  0
  -22.0514  -12.8186   22.0426 N   0  0  0  0  0  0
  -25.4281  -15.1868   20.4129 N   0  0  0  0  0  0
  -31.7593  -14.7975   20.1039 O   0  0  0  0  0  0
  -21.6620   -6.8871   21.4239 O   0  0  0  0  0  0
  -22.3556  -14.5531   20.6746 O   0  0  0  0  0  0
  -24.6215  -31.8598   23.2024 C   0  0  0  0  0  0
  -25.9071  -32.4763   23.8335 C   0  0  1  0  0  0
  -27.2211  -27.3335   20.1122 C   0  0  0  0  0  0
  -25.5899  -33.8570   24.2258 N   0  0  0  0  0  0
  -23.4135  -30.4854   21.5438 C   0  0  2  0  0  0
  -24.8578  -28.9406   20.1127 C   0  0  0  0  0  0
  -22.7448  -29.4619   22.4917 C   0  0  0  0  0  0
  -18.0277  -28.1376   22.8477 C   0  0  0  0  0  0
  -24.1493  -36.7308   23.2636 C   0  0  0  0  0  0
  -25.9528  -30.7947   21.3726 C   0  0  0  0  0  0
  -26.0244  -29.4230   20.7173 C   0  0  0  0  0  0
  -27.2052  -28.6291   20.7094 C   0  0  0  0  0  0
  -26.0283  -26.8922   19.4944 C   0  0  0  0  0  0
  -24.8607  -27.6797   19.4963 C   0  0  0  0  0  0
  -23.6275  -29.8219   20.1588 C   0  0  0  0  0  0
  -25.4117  -36.3081   24.0318 C   0  0  1  0  0  0
  -20.5878  -28.3676   23.1285 C   0  0  2  0  0  0
  -20.6778  -26.9400   22.5418 C   0  0  0  0  0  0
  -19.5760  -26.6379   21.5210 C   0  0  0  0  0  0
  -18.1928  -26.7917   22.1611 C   0  0  0  0  0  0
  -19.1532  -28.8840   23.2873 C   0  0  0  0  0  0
  -18.9463  -30.1443   23.8887 C   0  0  0  0  0  0
  -17.6469  -30.6581   24.0567 C   0  0  0  0  0  0
  -25.9052  -34.9449   23.5102 C   0  0  0  0  0  0
  -16.5359  -29.9085   23.6326 C   0  0  0  0  0  0
  -16.7272  -28.6510   23.0332 C   0  0  0  0  0  0
  -26.4479  -31.6562   25.0689 C   0  0  0  0  0  0
  -25.3712  -31.3705   26.1414 C   0  0  0  0  0  0
  -27.0309  -30.2978   24.6138 C   0  0  0  0  0  0
  -27.6046  -32.4297   25.7461 C   0  0  0  0  0  0
  -27.5584  -37.1798   24.8452 C   0  0  0  0  0  0
  -21.4166  -29.3032   22.3672 N   0  0  0  0  0  0
  -26.4295  -37.3776   23.9402 N   0  0  0  0  0  0
  -24.6812  -31.0632   22.0968 N   0  0  0  0  0  0
  -23.4191  -28.8149   23.2973 O   0  0  0  0  0  0
  -28.3852  -26.5569   20.1519 O   0  0  0  0  0  0
  -26.5636  -34.8917   22.4679 O   0  0  0  0  0  0
  -23.5383  -32.1412   23.7361 O   0  0  0  0  0  0
  -30.1970  -22.1087   20.5829 C   0  0  0  0  0  0
  -28.8601  -22.5792   20.6071 C   0  0  0  0  0  0
  -30.4901  -20.7264   20.4102 C   0  0  0  0  0  0
  -27.8624  -21.5743   20.4492 C   0  0  0  0  0  0
  -29.4320  -19.7951   20.2838 C   0  0  0  0  0  0
  -24.1584  -21.6038   21.7049 C   0  0  0  0  0  0
  -25.6785  -21.3602   21.7414 C   0  0  0  0  0  0
  -23.5349  -21.0220   20.4222 C   0  0  0  0  0  0
  -25.6568  -21.3237   19.1932 C   0  0  0  0  0  0
  -26.3607  -21.8799   20.4569 C   0  0  2  0  0  0
  -31.9352  -20.2659   20.3606 C   0  0  0  0  0  0
  -28.5638  -24.0897   20.9349 C   0  0  0  0  0  0
  -29.6165  -18.2664   19.9801 C   0  0  0  0  0  0
  -29.8290  -15.8205   21.1732 C   0  0  0  0  0  0
  -30.3265  -17.3275   21.0336 C   0  0  0  0  0  0
  -28.4344  -25.1356   19.7624 C   0  0  0  0  0  0
  -28.1561  -20.2470   20.3177 N   0  0  0  0  0  0
  -24.1968  -21.5684   19.2173 N   0  3  0  0  0  0
  -31.4799  -12.5097   19.1434 H   0  0  0  0  0  0
  -30.3748  -11.3808   19.8751 H   0  0  0  0  0  0
  -29.7694  -11.7729   17.4648 H   0  0  0  0  0  0
  -29.6479  -13.4909   17.7568 H   0  0  0  0  0  0
  -27.8627  -11.2929   18.8582 H   0  0  0  0  0  0
  -27.3746  -12.5846   17.7921 H   0  0  0  0  0  0
  -27.6738  -14.2483   19.5272 H   0  0  0  0  0  0
  -28.7035  -12.0253   21.3649 H   0  0  0  0  0  0
  -28.4407  -13.6715   21.8487 H   0  0  0  0  0  0
  -25.2744   -9.5649   22.4782 H   0  0  0  0  0  0
  -23.9986   -7.4599   22.7459 H   0  0  0  0  0  0
  -21.0839   -8.8754   19.8944 H   0  0  0  0  0  0
  -22.3693  -10.9659   19.6172 H   0  0  0  0  0  0
  -21.1976   -7.6143   23.9712 H   0  0  0  0  0  0
  -21.1498   -6.0528   25.9077 H   0  0  0  0  0  0
  -22.0592   -2.7609   23.2855 H   0  0  0  0  0  0
  -22.4131  -11.9827   22.4775 H   0  0  0  0  0  0
  -21.1140  -13.1208   22.2659 H   0  0  0  0  0  0
  -24.6625  -15.8413   20.5249 H   0  0  0  0  0  0
  -26.2844  -15.6266   20.1013 H   0  0  0  0  0  0
  -26.7125  -32.5445   23.1068 H   0  0  0  0  0  0
  -24.9982  -33.9725   25.0355 H   0  0  0  0  0  0
  -22.7057  -31.3044   21.4010 H   0  0  0  0  0  0
  -23.3752  -35.9643   23.3279 H   0  0  0  0  0  0
  -24.3585  -36.8967   22.2057 H   0  0  0  0  0  0
  -23.7263  -37.6505   23.6691 H   0  0  0  0  0  0
  -26.0831  -31.5581   20.6045 H   0  0  0  0  0  0
  -26.8342  -30.8418   22.0005 H   0  0  0  0  0  0
  -28.1036  -28.9963   21.1859 H   0  0  0  0  0  0
  -25.9513  -25.9382   19.0012 H   0  0  0  0  0  0
  -23.9639  -27.3062   19.0208 H   0  0  0  0  0  0
  -23.7447  -30.5995   19.4029 H   0  0  0  0  0  0
  -22.7480  -29.2517   19.8558 H   0  0  0  0  0  0
  -25.1295  -36.1930   25.0809 H   0  0  0  0  0  0
  -20.9972  -28.3269   24.1405 H   0  0  0  0  0  0
  -20.5676  -26.2282   23.3613 H   0  0  0  0  0  0
  -21.6644  -26.7427   22.1212 H   0  0  0  0  0  0
  -19.6932  -25.6294   21.1228 H   0  0  0  0  0  0
  -19.6712  -27.3199   20.6749 H   0  0  0  0  0  0
  -17.4200  -26.6654   21.4008 H   0  0  0  0  0  0
  -18.0329  -26.0054   22.9006 H   0  0  0  0  0  0
  -19.7949  -30.7248   24.2259 H   0  0  0  0  0  0
  -17.5033  -31.6261   24.5170 H   0  0  0  0  0  0
  -15.5363  -30.2985   23.7668 H   0  0  0  0  0  0
  -15.8669  -28.0851   22.7028 H   0  0  0  0  0  0
  -24.5894  -30.7046   25.7744 H   0  0  0  0  0  0
  -24.8879  -32.2864   26.4824 H   0  0  0  0  0  0
  -25.8015  -30.8895   27.0201 H   0  0  0  0  0  0
  -26.2875  -29.6719   24.1182 H   0  0  0  0  0  0
  -27.4023  -29.7238   25.4637 H   0  0  0  0  0  0
  -27.8737  -30.4238   23.9337 H   0  0  0  0  0  0
  -27.2670  -33.3612   26.2023 H   0  0  0  0  0  0
  -28.3864  -32.6835   25.0286 H   0  0  0  0  0  0
  -28.0693  -31.8415   26.5383 H   0  0  0  0  0  0
  -28.2574  -38.0116   24.7514 H   0  0  0  0  0  0
  -28.1112  -36.2651   24.6265 H   0  0  0  0  0  0
  -27.2299  -37.1431   25.8850 H   0  0  0  0  0  0
  -20.9327  -29.8788   21.6927 H   0  0  0  0  0  0
  -26.0173  -38.2846   24.1425 H   0  0  0  0  0  0
  -31.0063  -22.8138   20.7141 H   0  0  0  0  0  0
  -23.9515  -22.6728   21.7652 H   0  0  0  0  0  0
  -23.6882  -21.1515   22.5788 H   0  0  0  0  0  0
  -25.8659  -20.2913   21.8519 H   0  0  0  0  0  0
  -26.1163  -21.8403   22.6176 H   0  0  0  0  0  0
  -22.4688  -21.2486   20.3838 H   0  0  0  0  0  0
  -23.6234  -19.9344   20.4214 H   0  0  0  0  0  0
  -25.8196  -20.2484   19.1091 H   0  0  0  0  0  0
  -26.0850  -21.7700   18.2949 H   0  0  0  0  0  0
  -26.2250  -22.9601   20.4252 H   0  0  0  0  0  0
  -32.6196  -21.1094   20.2720 H   0  0  0  0  0  0
  -32.1044  -19.6092   19.5068 H   0  0  0  0  0  0
  -32.1894  -19.7196   21.2691 H   0  0  0  0  0  0
  -29.3747  -24.4325   21.5792 H   0  0  0  0  0  0
  -27.6804  -24.1553   21.5704 H   0  0  0  0  0  0
  -30.1332  -18.1751   19.0231 H   0  0  0  0  0  0
  -28.6213  -17.8630   19.7920 H   0  0  0  0  0  0
  -28.7976  -15.7775   20.8318 H   0  0  0  0  0  0
  -29.7792  -15.6048   22.2403 H   0  0  0  0  0  0
  -30.1637  -17.7893   22.0073 H   0  0  0  0  0  0
  -31.4062  -17.3633   20.8907 H   0  0  0  0  0  0
  -27.6374  -24.8318   19.0915 H   0  0  0  0  0  0
  -29.3352  -25.0450   19.1551 H   0  0  0  0  0  0
  -24.0170  -22.5567   19.1552 H   0  0  0  0  0  0
  -23.7861  -21.1423   18.4019 H   0  0  0  0  0  0
  1 25  1  0  0  0
  1 30  2  0  0  0
  1 84  1  0  0  0
  2  3  1  0  0  0
  2 25  1  0  0  0
  2 89  1  0  0  0
  2 90  1  0  0  0
  3  4  1  0  0  0
  3 91  1  0  0  0
  3 92  1  0  0  0
  4  5  1  0  0  0
  4 93  1  0  0  0
  4 94  1  0  0  0
  5  6  1  0  0  0
  5 26  1  0  0  0
  5 95  1  0  0  0
  6 25  1  0  0  0
  6 96  1  0  0  0
  6 97  1  0  0  0
  7  8  2  0  0  0
  7 26  1  0  0  0
  7 29  1  0  0  0
  8  9  1  0  0  0
  8 22  1  0  0  0
  9 10  1  0  0  0
  9 27  2  0  0  0
 10 11  2  0  0  0
 10 15  1  0  0  0
 11 12  1  0  0  0
 11 98  1  0  0  0
 12 13  2  0  0  0
 12 99  1  0  0  0
 13 14  1  0  0  0
 13 31  1  0  0  0
 14 15  2  0  0  0
 14100  1  0  0  0
 15101  1  0  0  0
 16 17  2  0  0  0
 16 21  1  0  0  0
 16 31  1  0  0  0
 17 18  1  0  0  0
 17102  1  0  0  0
 18 19  2  0  0  0
 18103  1  0  0  0
 19 20  1  0  0  0
 19 24  1  0  0  0
 20 21  2  0  0  0
 20104  1  0  0  0
 21 23  1  0  0  0
 22 28  1  0  0  0
 22 32  2  0  0  0
 26 27  1  0  0  0
 28105  1  0  0  0
 28106  1  0  0  0
 29107  1  0  0  0
 29108  1  0  0  0
 33 34  1  0  0  0
 33 66  1  0  0  0
 33 70  2  0  0  0
 34 36  1  0  0  0
 34 59  1  0  0  0
 34109  1  0  0  0
 35 44  2  0  0  0
 35 45  1  0  0  0
 35 68  1  0  0  0
 36 56  1  0  0  0
 36110  1  0  0  0
 37 39  1  0  0  0
 37 47  1  0  0  0
 37 66  1  0  0  0
 37111  1  0  0  0
 38 43  2  0  0  0
 38 46  1  0  0  0
 38 47  1  0  0  0
 39 64  1  0  0  0
 39 67  2  0  0  0
 40 52  1  0  0  0
 40 53  2  0  0  0
 40 58  1  0  0  0
 41112  1  0  0  0
 41113  1  0  0  0
 41114  1  0  0  0
 41 48  1  0  0  0
 42 43  1  0  0  0
 42 66  1  0  0  0
 42115  1  0  0  0
 42116  1  0  0  0
 43 44  1  0  0  0
 44117  1  0  0  0
 45 46  2  0  0  0
 45118  1  0  0  0
 46119  1  0  0  0
 47120  1  0  0  0
 47121  1  0  0  0
 48 56  1  0  0  0
 48 65  1  0  0  0
 48122  1  0  0  0
 49 50  1  0  0  0
 49 53  1  0  0  0
 49 64  1  0  0  0
 49123  1  0  0  0
 50 51  1  0  0  0
 50124  1  0  0  0
 50125  1  0  0  0
 51 52  1  0  0  0
 51126  1  0  0  0
 51127  1  0  0  0
 52128  1  0  0  0
 52129  1  0  0  0
 53 54  1  0  0  0
 54 55  2  0  0  0
 54130  1  0  0  0
 55 57  1  0  0  0
 55131  1  0  0  0
 56 69  2  0  0  0
 57 58  2  0  0  0
 57132  1  0  0  0
 58133  1  0  0  0
 59 60  1  0  0  0
 59 61  1  0  0  0
 59 62  1  0  0  0
 60134  1  0  0  0
 60135  1  0  0  0
 60136  1  0  0  0
 61137  1  0  0  0
 61138  1  0  0  0
 61139  1  0  0  0
 62140  1  0  0  0
 62141  1  0  0  0
 62142  1  0  0  0
 63 65  1  0  0  0
 63143  1  0  0  0
 63144  1  0  0  0
 63145  1  0  0  0
 64146  1  0  0  0
 65147  1  0  0  0
 68 86  1  0  0  0
 71 72  2  0  0  0
 71 73  1  0  0  0
 71148  1  0  0  0
 72 74  1  0  0  0
 72 82  1  0  0  0
 73 75  2  0  0  0
 73 81  1  0  0  0
 74 87  2  0  0  0
 74 80  1  0  0  0
 75 83  1  0  0  0
 75 87  1  0  0  0
 76 77  1  0  0  0
 76 78  1  0  0  0
 76149  1  0  0  0
 76150  1  0  0  0
 77 80  1  0  0  0
 77151  1  0  0  0
 77152  1  0  0  0
 78 88  1  0  0  0
 78153  1  0  0  0
 78154  1  0  0  0
 79 80  1  0  0  0
 79 88  1  0  0  0
 79155  1  0  0  0
 79156  1  0  0  0
 80157  1  0  0  0
 81158  1  0  0  0
 81159  1  0  0  0
 81160  1  0  0  0
 82 86  1  0  0  0
 82161  1  0  0  0
 82162  1  0  0  0
 83 85  1  0  0  0
 83163  1  0  0  0
 83164  1  0  0  0
 84 85  1  0  0  0
 84165  1  0  0  0
 84166  1  0  0  0
 85167  1  0  0  0
 85168  1  0  0  0
 86169  1  0  0  0
 86170  1  0  0  0
 88171  1  0  0  0
 88172  1  0  0  0
M  CHG  1  88   1
M  ISO  4   1 100  68 101  84 100  86 101
M  END
> <chiral flag>
0

> <version>
0

> <s_m_source_file>
/data/baiqing/PycharmProjects/Reinvent-master-3.2/result/LINK_invent/BTK/process_docking_weight1_custom_sum_contain_oxygen_bond_distance_aromatic_linkinvent_7_9_3/rearranged_h_0036.sdf

> <i_m_source_file_index>
12

> <r_mmod_Potential_Energy-OPLS-2005>
-282.239471435547

> <r_mmod_Stretch_Energy-OPLS-2005>
72.159065246582

> <r_mmod_Bend_Energy-OPLS-2005>
147.451675415039

> <r_mmod_Torsional_Energy-OPLS-2005>
189.506866455078

> <r_mmod_Improper_Torsional_Energy-OPLS-2005>
3.19042754173279

> <r_mmod_Van_der_Waal_Energy-OPLS-2005>
145.360580444336

> <r_mmod_Electrostatic_Energy-OPLS-2005>
-416.147521972656

> <r_mmod_Solvation_Energy-OPLS-2005>
-460.977264404297

> <b_mmod_Minimization_Converged-OPLS-2005>
0

> <r_mmod_RMS_Derivative-OPLS-2005>
1.85161054134369

$$$$
12
                    3D
 Structure written by MMmdl.
183191  0  0  1  0            999 V2000
  -30.8014  -14.3006   20.7209 C   0  0  0  0  0  0
  -30.4304  -12.2677   19.3975 C   0  0  0  0  0  0
  -29.5000  -12.5253   18.1988 C   0  0  0  0  0  0
  -28.0250  -12.3728   18.6197 C   0  0  0  0  0  0
  -27.6794  -13.1966   19.8880 C   0  0  2  0  0  0
  -28.7112  -12.9307   21.0060 C   0  0  0  0  0  0
  -25.2682  -13.8165   20.5715 C   0  0  0  0  0  0
  -24.1888  -13.0454   20.9175 C   0  0  0  0  0  0
  -24.6404  -11.6917   20.8729 C   0  0  0  0  0  0
  -23.9079  -10.4310   21.0400 C   0  0  0  0  0  0
  -24.3636   -9.4242   21.9181 C   0  0  0  0  0  0
  -23.6321   -8.2282   22.0740 C   0  0  0  0  0  0
  -22.4314   -8.0291   21.3545 C   0  0  0  0  0  0
  -21.9959   -9.0256   20.4643 C   0  0  0  0  0  0
  -22.7260  -10.2145   20.3055 C   0  0  0  0  0  0
  -21.6858   -6.0756   22.5273 C   0  0  0  0  0  0
  -21.3996   -6.5638   23.8206 C   0  0  0  0  0  0
  -21.3691   -5.6779   24.9170 C   0  0  0  0  0  0
  -21.6057   -4.3038   24.7211 C   0  0  0  0  0  0
  -21.8815   -3.8142   23.4329 C   0  0  0  0  0  0
  -21.9193   -4.6975   22.3388 C   0  0  0  0  0  0
  -22.7916  -13.5308   21.1825 C   0  0  0  0  0  0
  -22.1663   -4.2163   21.0975 F   0  0  0  0  0  0
  -21.5660   -3.4517   25.7731 F   0  0  0  0  0  0
  -30.0688  -13.1880   20.4800 N   0  0  0  0  0  0
  -26.3124  -12.9311   20.3418 N   0  0  0  0  0  0
  -25.9337  -11.6484   20.5780 N   0  0  0  0  0  0
  -22.0505  -12.8311   22.0367 N   0  0  0  0  0  0
  -25.4469  -15.1873   20.4140 N   0  0  0  0  0  0
  -31.7508  -14.6679   20.0224 O   0  0  0  0  0  0
  -21.6668   -6.8901   21.4245 O   0  0  0  0  0  0
  -22.3624  -14.5616   20.6677 O   0  0  0  0  0  0
  -24.6061  -31.8730   23.2200 C   0  0  0  0  0  0
  -25.8976  -32.4893   23.8444 C   0  0  1  0  0  0
  -27.2459  -27.4952   20.0361 C   0  0  0  0  0  0
  -25.5845  -33.8693   24.2368 N   0  0  0  0  0  0
  -23.3925  -30.5000   21.5608 C   0  0  2  0  0  0
  -24.8376  -28.9817   20.1109 C   0  0  0  0  0  0
  -22.7357  -29.4690   22.5037 C   0  0  0  0  0  0
  -18.0283  -28.1335   22.8493 C   0  0  0  0  0  0
  -24.1484  -36.7351   23.2654 C   0  0  0  0  0  0
  -25.9177  -30.8399   21.3780 C   0  0  0  0  0  0
  -25.9932  -29.4798   20.7233 C   0  0  0  0  0  0
  -27.1887  -28.7331   20.7086 C   0  0  0  0  0  0
  -26.0736  -27.0340   19.3821 C   0  0  0  0  0  0
  -24.8688  -27.7486   19.4451 C   0  0  0  0  0  0
  -23.5989  -29.8420   20.1709 C   0  0  0  0  0  0
  -25.4108  -36.3174   24.0345 C   0  0  1  0  0  0
  -20.5854  -28.3634   23.1368 C   0  0  2  0  0  0
  -20.6799  -26.9390   22.5417 C   0  0  0  0  0  0
  -19.5795  -26.6387   21.5195 C   0  0  0  0  0  0
  -18.1977  -26.7885   22.1615 C   0  0  0  0  0  0
  -19.1513  -28.8791   23.2936 C   0  0  0  0  0  0
  -18.9428  -30.1412   23.8905 C   0  0  0  0  0  0
  -17.6417  -30.6548   24.0543 C   0  0  0  0  0  0
  -25.9006  -34.9531   23.5155 C   0  0  0  0  0  0
  -16.5321  -29.9028   23.6311 C   0  0  0  0  0  0
  -16.7271  -28.6461   23.0329 C   0  0  0  0  0  0
  -26.4462  -31.6673   25.0756 C   0  0  0  0  0  0
  -25.3790  -31.3707   26.1548 C   0  0  0  0  0  0
  -27.0303  -30.3135   24.6085 C   0  0  0  0  0  0
  -27.6068  -32.4394   25.7452 C   0  0  0  0  0  0
  -27.5596  -37.1839   24.8477 C   0  0  0  0  0  0
  -21.4090  -29.3044   22.3794 N   0  0  0  0  0  0
  -26.4307  -37.3843   23.9424 N   0  0  0  0  0  0
  -24.6567  -31.0848   22.1117 N   0  0  0  0  0  0
  -23.4150  -28.8187   23.3043 O   0  0  0  0  0  0
  -28.4479  -26.8120   20.0548 O   0  0  0  0  0  0
  -26.5601  -34.8973   22.4728 O   0  0  0  0  0  0
  -23.5275  -32.1512   23.7598 O   0  0  0  0  0  0
  -25.4171  -22.8938   20.5268 C   0  0  0  0  0  0
  -27.0636  -23.6111   18.8729 C   0  0  0  0  0  0
  -27.1005  -24.5505   21.1241 C   0  0  0  0  0  0
  -25.9646  -22.8045   19.2292 C   0  0  0  0  0  0
  -25.9771  -23.7782   21.4734 C   0  0  0  0  0  0
  -27.6048  -24.5105   19.8091 C   0  0  0  0  0  0
  -24.0228  -22.4679   17.6368 C   0  0  0  0  0  0
  -25.3322  -21.8955   18.1940 C   0  0  0  0  0  0
  -25.3647  -23.9504   22.8483 C   0  0  0  0  0  0
  -28.5801  -25.5779   19.3423 C   0  0  0  0  0  0
  -27.6896  -19.2839   23.6008 C   0  0  0  0  0  0
  -28.3320  -19.3930   22.2083 C   0  0  0  0  0  0
  -27.0788  -20.6271   23.9945 C   0  0  0  0  0  0
  -29.6454  -18.6165   22.0953 C   0  0  0  0  0  0
  -26.5299  -20.7474   25.4283 C   0  0  0  0  0  0
  -29.4424  -17.1075   22.2042 C   0  0  0  0  0  0
  -26.5971  -22.1930   25.9817 C   0  0  0  0  0  0
  -30.7616  -16.3319   22.1385 C   0  0  0  0  0  0
  -25.7615  -23.2316   25.2066 C   0  0  0  0  0  0
  -30.4490  -14.9458   21.8351 N   0  0  0  0  0  0
  -26.3030  -23.4336   23.8501 N   0  3  0  0  0  0
  -31.4722  -12.3784   19.0961 H   0  0  0  0  0  0
  -30.3355  -11.2375   19.7491 H   0  0  0  0  0  0
  -29.7387  -11.8322   17.3926 H   0  0  0  0  0  0
  -29.6739  -13.5271   17.8018 H   0  0  0  0  0  0
  -27.8435  -11.3136   18.8072 H   0  0  0  0  0  0
  -27.3732  -12.6534   17.7950 H   0  0  0  0  0  0
  -27.7494  -14.2523   19.6168 H   0  0  0  0  0  0
  -28.4542  -13.5305   21.8799 H   0  0  0  0  0  0
  -28.6499  -11.8969   21.3450 H   0  0  0  0  0  0
  -25.2761   -9.5717   22.4793 H   0  0  0  0  0  0
  -24.0009   -7.4681   22.7467 H   0  0  0  0  0  0
  -21.0884   -8.8756   19.8974 H   0  0  0  0  0  0
  -22.3674  -10.9692   19.6178 H   0  0  0  0  0  0
  -21.1949   -7.6125   23.9697 H   0  0  0  0  0  0
  -21.1559   -6.0517   25.9078 H   0  0  0  0  0  0
  -22.0577   -2.7607   23.2812 H   0  0  0  0  0  0
  -22.4036  -11.9980   22.4836 H   0  0  0  0  0  0
  -21.1099  -13.1355   22.2458 H   0  0  0  0  0  0
  -24.6915  -15.8530   20.5304 H   0  0  0  0  0  0
  -26.3138  -15.6179   20.1182 H   0  0  0  0  0  0
  -26.6996  -32.5604   23.1150 H   0  0  0  0  0  0
  -24.9973  -33.9845   25.0510 H   0  0  0  0  0  0
  -22.6792  -31.3149   21.4262 H   0  0  0  0  0  0
  -23.3764  -35.9662   23.3337 H   0  0  0  0  0  0
  -24.3569  -36.8941   22.2071 H   0  0  0  0  0  0
  -23.7207  -37.6549   23.6648 H   0  0  0  0  0  0
  -26.0340  -31.6111   20.6139 H   0  0  0  0  0  0
  -26.8045  -30.8841   21.9965 H   0  0  0  0  0  0
  -28.0733  -29.1150   21.1993 H   0  0  0  0  0  0
  -26.0610  -26.1335   18.7891 H   0  0  0  0  0  0
  -23.9920  -27.3724   18.9341 H   0  0  0  0  0  0
  -23.6968  -30.6227   19.4164 H   0  0  0  0  0  0
  -22.7239  -29.2585   19.8779 H   0  0  0  0  0  0
  -25.1276  -36.2082   25.0830 H   0  0  0  0  0  0
  -20.9953  -28.3186   24.1490 H   0  0  0  0  0  0
  -20.5705  -26.2231   23.3581 H   0  0  0  0  0  0
  -21.6695  -26.7459   22.1213 H   0  0  0  0  0  0
  -19.6976  -25.6321   21.1196 H   0  0  0  0  0  0
  -19.6745  -27.3239   20.6766 H   0  0  0  0  0  0
  -17.4245  -26.6595   21.4026 H   0  0  0  0  0  0
  -18.0412  -26.0015   22.9002 H   0  0  0  0  0  0
  -19.7886  -30.7261   24.2276 H   0  0  0  0  0  0
  -17.4951  -31.6248   24.5122 H   0  0  0  0  0  0
  -15.5327  -30.2914   23.7598 H   0  0  0  0  0  0
  -15.8694  -28.0757   22.7007 H   0  0  0  0  0  0
  -25.8203  -30.8903   27.0274 H   0  0  0  0  0  0
  -24.8913  -32.2830   26.5028 H   0  0  0  0  0  0
  -24.6001  -30.6979   25.7941 H   0  0  0  0  0  0
  -26.2894  -29.6988   24.0918 H   0  0  0  0  0  0
  -27.3900  -29.7301   25.4542 H   0  0  0  0  0  0
  -27.8789  -30.4528   23.9407 H   0  0  0  0  0  0
  -27.2740  -33.3712   26.2081 H   0  0  0  0  0  0
  -28.3793  -32.6993   25.0190 H   0  0  0  0  0  0
  -28.0906  -31.8497   26.5252 H   0  0  0  0  0  0
  -28.2641  -38.0125   24.7539 H   0  0  0  0  0  0
  -28.1053  -36.2642   24.6276 H   0  0  0  0  0  0
  -27.2286  -37.1472   25.8877 H   0  0  0  0  0  0
  -20.9169  -29.8866   21.7164 H   0  0  0  0  0  0
  -26.0215  -38.2931   24.1437 H   0  0  0  0  0  0
  -24.5420  -22.3074   20.7730 H   0  0  0  0  0  0
  -27.4417  -23.6058   17.8610 H   0  0  0  0  0  0
  -27.5082  -25.2638   21.8302 H   0  0  0  0  0  0
  -23.5872  -21.7893   16.9032 H   0  0  0  0  0  0
  -24.1832  -23.4276   17.1412 H   0  0  0  0  0  0
  -23.2860  -22.6177   18.4262 H   0  0  0  0  0  0
  -25.1482  -20.9191   18.6421 H   0  0  0  0  0  0
  -26.0401  -21.7289   17.3800 H   0  0  0  0  0  0
  -24.4194  -23.4070   22.9011 H   0  0  0  0  0  0
  -25.1475  -25.0035   23.0342 H   0  0  0  0  0  0
  -28.4491  -25.7618   18.2753 H   0  0  0  0  0  0
  -29.5960  -25.2057   19.4687 H   0  0  0  0  0  0
  -28.4422  -19.0069   24.3417 H   0  0  0  0  0  0
  -26.9398  -18.4927   23.5986 H   0  0  0  0  0  0
  -28.5547  -20.4349   21.9732 H   0  0  0  0  0  0
  -27.6139  -19.0726   21.4494 H   0  0  0  0  0  0
  -26.2954  -20.8673   23.2707 H   0  0  0  0  0  0
  -27.8786  -21.3609   23.8822 H   0  0  0  0  0  0
  -30.3385  -18.9599   22.8642 H   0  0  0  0  0  0
  -30.1108  -18.8506   21.1378 H   0  0  0  0  0  0
  -27.1108  -20.1069   26.0914 H   0  0  0  0  0  0
  -25.5055  -20.3728   25.4721 H   0  0  0  0  0  0
  -28.7850  -16.7843   21.3959 H   0  0  0  0  0  0
  -28.9237  -16.8553   23.1302 H   0  0  0  0  0  0
  -27.6367  -22.5202   26.0171 H   0  0  0  0  0  0
  -26.2582  -22.1899   27.0214 H   0  0  0  0  0  0
  -31.4183  -16.7597   21.3807 H   0  0  0  0  0  0
  -31.3027  -16.3965   23.0855 H   0  0  0  0  0  0
  -25.7835  -24.1904   25.7262 H   0  0  0  0  0  0
  -24.7190  -22.9127   25.1704 H   0  0  0  0  0  0
  -29.7424  -14.5009   22.4012 H   0  0  0  0  0  0
  -27.1193  -24.0236   23.8870 H   0  0  0  0  0  0
  -26.5914  -22.5241   23.5175 H   0  0  0  0  0  0
  1 25  1  0  0  0
  1 30  2  0  0  0
  1 90  1  0  0  0
  2  3  1  0  0  0
  2 25  1  0  0  0
  2 92  1  0  0  0
  2 93  1  0  0  0
  3  4  1  0  0  0
  3 94  1  0  0  0
  3 95  1  0  0  0
  4  5  1  0  0  0
  4 96  1  0  0  0
  4 97  1  0  0  0
  5  6  1  0  0  0
  5 26  1  0  0  0
  5 98  1  0  0  0
  6 25  1  0  0  0
  6 99  1  0  0  0
  6100  1  0  0  0
  7  8  2  0  0  0
  7 26  1  0  0  0
  7 29  1  0  0  0
  8  9  1  0  0  0
  8 22  1  0  0  0
  9 10  1  0  0  0
  9 27  2  0  0  0
 10 11  2  0  0  0
 10 15  1  0  0  0
 11 12  1  0  0  0
 11101  1  0  0  0
 12 13  2  0  0  0
 12102  1  0  0  0
 13 14  1  0  0  0
 13 31  1  0  0  0
 14 15  2  0  0  0
 14103  1  0  0  0
 15104  1  0  0  0
 16 17  2  0  0  0
 16 21  1  0  0  0
 16 31  1  0  0  0
 17 18  1  0  0  0
 17105  1  0  0  0
 18 19  2  0  0  0
 18106  1  0  0  0
 19 20  1  0  0  0
 19 24  1  0  0  0
 20 21  2  0  0  0
 20107  1  0  0  0
 21 23  1  0  0  0
 22 28  1  0  0  0
 22 32  2  0  0  0
 26 27  1  0  0  0
 28108  1  0  0  0
 28109  1  0  0  0
 29110  1  0  0  0
 29111  1  0  0  0
 33 34  1  0  0  0
 33 66  1  0  0  0
 33 70  2  0  0  0
 34 36  1  0  0  0
 34 59  1  0  0  0
 34112  1  0  0  0
 35 44  2  0  0  0
 35 45  1  0  0  0
 35 68  1  0  0  0
 36 56  1  0  0  0
 36113  1  0  0  0
 37 39  1  0  0  0
 37 47  1  0  0  0
 37 66  1  0  0  0
 37114  1  0  0  0
 38 43  2  0  0  0
 38 46  1  0  0  0
 38 47  1  0  0  0
 39 64  1  0  0  0
 39 67  2  0  0  0
 40 52  1  0  0  0
 40 53  2  0  0  0
 40 58  1  0  0  0
 41115  1  0  0  0
 41116  1  0  0  0
 41117  1  0  0  0
 41 48  1  0  0  0
 42 43  1  0  0  0
 42 66  1  0  0  0
 42118  1  0  0  0
 42119  1  0  0  0
 43 44  1  0  0  0
 44120  1  0  0  0
 45 46  2  0  0  0
 45121  1  0  0  0
 46122  1  0  0  0
 47123  1  0  0  0
 47124  1  0  0  0
 48 56  1  0  0  0
 48 65  1  0  0  0
 48125  1  0  0  0
 49 50  1  0  0  0
 49 53  1  0  0  0
 49 64  1  0  0  0
 49126  1  0  0  0
 50 51  1  0  0  0
 50127  1  0  0  0
 50128  1  0  0  0
 51 52  1  0  0  0
 51129  1  0  0  0
 51130  1  0  0  0
 52131  1  0  0  0
 52132  1  0  0  0
 53 54  1  0  0  0
 54 55  2  0  0  0
 54133  1  0  0  0
 55 57  1  0  0  0
 55134  1  0  0  0
 56 69  2  0  0  0
 57 58  2  0  0  0
 57135  1  0  0  0
 58136  1  0  0  0
 59 60  1  0  0  0
 59 61  1  0  0  0
 59 62  1  0  0  0
 60137  1  0  0  0
 60138  1  0  0  0
 60139  1  0  0  0
 61140  1  0  0  0
 61141  1  0  0  0
 61142  1  0  0  0
 62143  1  0  0  0
 62144  1  0  0  0
 62145  1  0  0  0
 63 65  1  0  0  0
 63146  1  0  0  0
 63147  1  0  0  0
 63148  1  0  0  0
 64149  1  0  0  0
 65150  1  0  0  0
 68 80  1  0  0  0
 71 74  2  0  0  0
 71 75  1  0  0  0
 71151  1  0  0  0
 72 74  1  0  0  0
 72 76  2  0  0  0
 72152  1  0  0  0
 73 75  2  0  0  0
 73 76  1  0  0  0
 73153  1  0  0  0
 74 78  1  0  0  0
 75 79  1  0  0  0
 76 80  1  0  0  0
 77 78  1  0  0  0
 77154  1  0  0  0
 77155  1  0  0  0
 77156  1  0  0  0
 78157  1  0  0  0
 78158  1  0  0  0
 79 91  1  0  0  0
 79159  1  0  0  0
 79160  1  0  0  0
 80161  1  0  0  0
 80162  1  0  0  0
 81 82  1  0  0  0
 81 83  1  0  0  0
 81163  1  0  0  0
 81164  1  0  0  0
 82 84  1  0  0  0
 82165  1  0  0  0
 82166  1  0  0  0
 83 85  1  0  0  0
 83167  1  0  0  0
 83168  1  0  0  0
 84 86  1  0  0  0
 84169  1  0  0  0
 84170  1  0  0  0
 85 87  1  0  0  0
 85171  1  0  0  0
 85172  1  0  0  0
 86 88  1  0  0  0
 86173  1  0  0  0
 86174  1  0  0  0
 87 89  1  0  0  0
 87175  1  0  0  0
 87176  1  0  0  0
 88 90  1  0  0  0
 88177  1  0  0  0
 88178  1  0  0  0
 89 91  1  0  0  0
 89179  1  0  0  0
 89180  1  0  0  0
 90181  1  0  0  0
 91182  1  0  0  0
 91183  1  0  0  0
M  CHG  1  91   1
M  ISO  4   1 100  68 101  80 101  90 100
M  END
> <chiral flag>
0

> <version>
0

> <s_m_source_file>
/data/baiqing/PycharmProjects/Reinvent-master-3.2/result/LINK_invent/BTK/process_docking_weight1_custom_sum_contain_oxygen_bond_distance_aromatic_linkinvent_7_9_3/rearranged_h_0036.sdf

> <i_m_source_file_index>
13

> <r_mmod_Potential_Energy-OPLS-2005>
-215.147018432617

> <r_mmod_Stretch_Energy-OPLS-2005>
30.9895038604736

> <r_mmod_Bend_Energy-OPLS-2005>
99.1256484985352

> <r_mmod_Torsional_Energy-OPLS-2005>
225.990295410156

> <r_mmod_Improper_Torsional_Energy-OPLS-2005>
3.80060386657715

> <r_mmod_Van_der_Waal_Energy-OPLS-2005>
165.739028930664

> <r_mmod_Electrostatic_Energy-OPLS-2005>
-329.14794921875

> <r_mmod_Solvation_Energy-OPLS-2005>
-423.736785888672

> <b_mmod_Minimization_Converged-OPLS-2005>
0

> <r_mmod_RMS_Derivative-OPLS-2005>
5.42365694046021

$$$$
13
                    3D
 Structure written by MMmdl.
157165  0  0  1  0            999 V2000
  -30.5482  -14.7934   20.5262 C   0  0  0  0  0  0
  -30.4522  -12.5000   19.4595 C   0  0  0  0  0  0
  -29.5158  -12.5563   18.2293 C   0  0  0  0  0  0
  -28.0426  -12.3553   18.6414 C   0  0  0  0  0  0
  -27.6508  -13.2243   19.8655 C   0  0  2  0  0  0
  -28.6993  -13.1000   20.9920 C   0  0  0  0  0  0
  -25.2564  -13.8161   20.5709 C   0  0  0  0  0  0
  -24.1820  -13.0423   20.9175 C   0  0  0  0  0  0
  -24.6388  -11.6902   20.8712 C   0  0  0  0  0  0
  -23.9039  -10.4290   21.0399 C   0  0  0  0  0  0
  -24.3600   -9.4210   21.9175 C   0  0  0  0  0  0
  -23.6285   -8.2235   22.0747 C   0  0  0  0  0  0
  -22.4268   -8.0260   21.3538 C   0  0  0  0  0  0
  -21.9906   -9.0217   20.4627 C   0  0  0  0  0  0
  -22.7216  -10.2111   20.3043 C   0  0  0  0  0  0
  -21.6853   -6.0710   22.5272 C   0  0  0  0  0  0
  -21.4012   -6.5632   23.8195 C   0  0  0  0  0  0
  -21.3676   -5.6800   24.9171 C   0  0  0  0  0  0
  -21.6048   -4.3056   24.7226 C   0  0  0  0  0  0
  -21.8833   -3.8125   23.4353 C   0  0  0  0  0  0
  -21.9201   -4.6936   22.3401 C   0  0  0  0  0  0
  -22.7852  -13.5217   21.1845 C   0  0  0  0  0  0
  -22.1687   -4.2116   21.0981 F   0  0  0  0  0  0
  -21.5628   -3.4555   25.7745 F   0  0  0  0  0  0
  -29.9919  -13.5251   20.4309 N   0  0  0  0  0  0
  -26.2987  -12.9347   20.3323 N   0  0  0  0  0  0
  -25.9325  -11.6494   20.5717 N   0  0  0  0  0  0
  -22.0522  -12.8176   22.0391 N   0  0  0  0  0  0
  -25.4293  -15.1880   20.4189 N   0  0  0  0  0  0
  -31.6831  -14.9680   20.0644 O   0  0  0  0  0  0
  -21.6642   -6.8849   21.4235 O   0  0  0  0  0  0
  -22.3543  -14.5537   20.6717 O   0  0  0  0  0  0
  -24.6374  -31.8521   23.1951 C   0  0  0  0  0  0
  -25.9181  -32.4733   23.8316 C   0  0  1  0  0  0
  -27.2169  -27.2138   20.1281 C   0  0  0  0  0  0
  -25.5957  -33.8540   24.2236 N   0  0  0  0  0  0
  -23.4355  -30.4751   21.5397 C   0  0  2  0  0  0
  -24.8831  -28.9185   20.1056 C   0  0  0  0  0  0
  -22.7515  -29.4606   22.4892 C   0  0  0  0  0  0
  -18.0298  -28.1400   22.8511 C   0  0  0  0  0  0
  -24.1489  -36.7263   23.2638 C   0  0  0  0  0  0
  -25.9865  -30.7485   21.3838 C   0  0  0  0  0  0
  -26.0570  -29.3686   20.7222 C   0  0  0  0  0  0
  -27.2253  -28.5285   20.7229 C   0  0  0  0  0  0
  -26.0199  -26.8542   19.4678 C   0  0  0  0  0  0
  -24.8725  -27.6714   19.4653 C   0  0  0  0  0  0
  -23.6554  -29.8101   20.1554 C   0  0  0  0  0  0
  -25.4118  -36.3055   24.0325 C   0  0  1  0  0  0
  -20.5905  -28.3723   23.1260 C   0  0  2  0  0  0
  -20.6790  -26.9437   22.5411 C   0  0  0  0  0  0
  -19.5763  -26.6397   21.5217 C   0  0  0  0  0  0
  -18.1944  -26.7944   22.1633 C   0  0  0  0  0  0
  -19.1552  -28.8875   23.2889 C   0  0  0  0  0  0
  -18.9467  -30.1462   23.8930 C   0  0  0  0  0  0
  -17.6468  -30.6610   24.0555 C   0  0  0  0  0  0
  -25.9072  -34.9433   23.5083 C   0  0  0  0  0  0
  -16.5359  -29.9106   23.6333 C   0  0  0  0  0  0
  -16.7279  -28.6504   23.0398 C   0  0  0  0  0  0
  -26.4533  -31.6560   25.0720 C   0  0  0  0  0  0
  -25.3721  -31.3722   26.1407 C   0  0  0  0  0  0
  -27.0383  -30.2966   24.6244 C   0  0  0  0  0  0
  -27.6077  -32.4312   25.7511 C   0  0  0  0  0  0
  -27.5588  -37.1792   24.8475 C   0  0  0  0  0  0
  -21.4212  -29.3061   22.3637 N   0  0  0  0  0  0
  -26.4295  -37.3755   23.9414 N   0  0  0  0  0  0
  -24.7061  -31.0442   22.0953 N   0  0  0  0  0  0
  -23.4193  -28.8162   23.3022 O   0  0  0  0  0  0
  -28.2896  -26.2722   20.2050 O   0  0  0  0  0  0
  -26.5653  -34.8916   22.4657 O   0  0  0  0  0  0
  -23.5516  -32.1375   23.7210 O   0  0  0  0  0  0
  -30.3121  -18.3671   19.8665 C   0  0  0  0  0  0
  -28.4653  -19.8156   21.3642 C   0  0  0  0  0  0
  -30.0614  -19.7769   19.6051 C   0  0  0  0  0  0
  -28.7150  -18.4244   21.6319 C   0  0  0  0  0  0
  -29.6288  -17.6109   20.8725 C   0  0  0  0  0  0
  -29.0963  -20.5588   20.3324 C   0  0  0  0  0  0
  -30.8262  -20.4322   18.4686 C   0  0  0  0  0  0
  -27.9066  -17.8070   22.7660 C   0  0  0  0  0  0
  -29.7697  -16.0288   21.2438 C   0  0  0  0  0  0
  -28.5105  -22.0060   19.8847 C   0  0  0  0  0  0
  -28.9514  -23.5060   20.3834 C   0  0  0  0  0  0
  -28.0323  -24.7942   19.9215 C   0  0  0  0  0  0
  -31.4860  -12.6644   19.1502 H   0  0  0  0  0  0
  -30.4295  -11.5064   19.9098 H   0  0  0  0  0  0
  -29.8066  -11.8117   17.4870 H   0  0  0  0  0  0
  -29.6228  -13.5268   17.7428 H   0  0  0  0  0  0
  -27.9017  -11.2994   18.8768 H   0  0  0  0  0  0
  -27.3823  -12.5686   17.7999 H   0  0  0  0  0  0
  -27.6599  -14.2580   19.5199 H   0  0  0  0  0  0
  -28.7535  -12.0673   21.3401 H   0  0  0  0  0  0
  -28.4135  -13.6785   21.8693 H   0  0  0  0  0  0
  -25.2761   -9.5699   22.4723 H   0  0  0  0  0  0
  -23.9993   -7.4647   22.7502 H   0  0  0  0  0  0
  -21.0826   -8.8727   19.8939 H   0  0  0  0  0  0
  -22.3668  -10.9634   19.6134 H   0  0  0  0  0  0
  -21.2007   -7.6144   23.9687 H   0  0  0  0  0  0
  -21.1503   -6.0537   25.9077 H   0  0  0  0  0  0
  -22.0600   -2.7580   23.2869 H   0  0  0  0  0  0
  -22.4197  -11.9845   22.4737 H   0  0  0  0  0  0
  -21.1135  -13.1157   22.2611 H   0  0  0  0  0  0
  -24.6627  -15.8430   20.5230 H   0  0  0  0  0  0
  -26.2810  -15.6246   20.0917 H   0  0  0  0  0  0
  -26.7249  -32.5376   23.1057 H   0  0  0  0  0  0
  -25.0072  -33.9670   25.0361 H   0  0  0  0  0  0
  -22.7354  -31.3010   21.3915 H   0  0  0  0  0  0
  -23.3769  -35.9581   23.3293 H   0  0  0  0  0  0
  -24.3568  -36.8901   22.2054 H   0  0  0  0  0  0
  -23.7234  -37.6453   23.6674 H   0  0  0  0  0  0
  -26.1351  -31.5075   20.6146 H   0  0  0  0  0  0
  -26.8600  -30.7932   22.0232 H   0  0  0  0  0  0
  -28.1180  -28.8639   21.2316 H   0  0  0  0  0  0
  -25.9307  -25.9069   18.9593 H   0  0  0  0  0  0
  -23.9745  -27.3253   18.9705 H   0  0  0  0  0  0
  -23.7828  -30.5881   19.4014 H   0  0  0  0  0  0
  -22.7720  -29.2469   19.8487 H   0  0  0  0  0  0
  -25.1301  -36.1887   25.0822 H   0  0  0  0  0  0
  -21.0007  -28.3301   24.1369 H   0  0  0  0  0  0
  -20.5688  -26.2326   23.3613 H   0  0  0  0  0  0
  -21.6659  -26.7469   22.1201 H   0  0  0  0  0  0
  -19.6925  -25.6298   21.1278 H   0  0  0  0  0  0
  -19.6701  -27.3184   20.6725 H   0  0  0  0  0  0
  -17.4207  -26.6707   21.4036 H   0  0  0  0  0  0
  -18.0344  -26.0070   22.9012 H   0  0  0  0  0  0
  -19.7929  -30.7270   24.2341 H   0  0  0  0  0  0
  -17.5015  -31.6300   24.5138 H   0  0  0  0  0  0
  -15.5361  -30.3026   23.7628 H   0  0  0  0  0  0
  -15.8671  -28.0799   22.7167 H   0  0  0  0  0  0
  -24.5897  -30.7096   25.7697 H   0  0  0  0  0  0
  -24.8918  -32.2890   26.4826 H   0  0  0  0  0  0
  -25.7995  -30.8875   27.0186 H   0  0  0  0  0  0
  -26.2971  -29.6704   24.1271 H   0  0  0  0  0  0
  -27.4027  -29.7258   25.4792 H   0  0  0  0  0  0
  -27.8870  -30.4219   23.9524 H   0  0  0  0  0  0
  -27.2671  -33.3601   26.2097 H   0  0  0  0  0  0
  -28.3886  -32.6888   25.0344 H   0  0  0  0  0  0
  -28.0745  -31.8428   26.5418 H   0  0  0  0  0  0
  -28.2598  -38.0097   24.7527 H   0  0  0  0  0  0
  -28.1103  -36.2633   24.6298 H   0  0  0  0  0  0
  -27.2316  -37.1429   25.8881 H   0  0  0  0  0  0
  -20.9400  -29.8730   21.6795 H   0  0  0  0  0  0
  -26.0177  -38.2835   24.1393 H   0  0  0  0  0  0
  -31.0363  -17.8513   19.2527 H   0  0  0  0  0  0
  -27.7007  -20.3178   21.9418 H   0  0  0  0  0  0
  -31.8256  -20.0074   18.3705 H   0  0  0  0  0  0
  -30.9474  -21.5029   18.6352 H   0  0  0  0  0  0
  -30.2987  -20.2922   17.5247 H   0  0  0  0  0  0
  -27.4809  -18.5750   23.4126 H   0  0  0  0  0  0
  -28.5156  -17.1676   23.4032 H   0  0  0  0  0  0
  -27.0785  -17.2174   22.3728 H   0  0  0  0  0  0
  -28.7352  -15.7116   21.3241 H   0  0  0  0  0  0
  -30.1544  -16.0086   22.2627 H   0  0  0  0  0  0
  -27.4439  -21.9362   20.1045 H   0  0  0  0  0  0
  -28.5371  -22.0177   18.7953 H   0  0  0  0  0  0
  -29.9771  -23.6769   20.0563 H   0  0  0  0  0  0
  -28.9892  -23.5033   21.4723 H   0  0  0  0  0  0
  -27.0426  -24.5677   20.3194 H   0  0  0  0  0  0
  -27.9330  -24.7192   18.8377 H   0  0  0  0  0  0
  1 25  1  0  0  0
  1 30  2  0  0  0
  1 79  1  0  0  0
  2  3  1  0  0  0
  2 25  1  0  0  0
  2 83  1  0  0  0
  2 84  1  0  0  0
  3  4  1  0  0  0
  3 85  1  0  0  0
  3 86  1  0  0  0
  4  5  1  0  0  0
  4 87  1  0  0  0
  4 88  1  0  0  0
  5  6  1  0  0  0
  5 26  1  0  0  0
  5 89  1  0  0  0
  6 25  1  0  0  0
  6 90  1  0  0  0
  6 91  1  0  0  0
  7  8  2  0  0  0
  7 26  1  0  0  0
  7 29  1  0  0  0
  8  9  1  0  0  0
  8 22  1  0  0  0
  9 10  1  0  0  0
  9 27  2  0  0  0
 10 11  2  0  0  0
 10 15  1  0  0  0
 11 12  1  0  0  0
 11 92  1  0  0  0
 12 13  2  0  0  0
 12 93  1  0  0  0
 13 14  1  0  0  0
 13 31  1  0  0  0
 14 15  2  0  0  0
 14 94  1  0  0  0
 15 95  1  0  0  0
 16 17  2  0  0  0
 16 21  1  0  0  0
 16 31  1  0  0  0
 17 18  1  0  0  0
 17 96  1  0  0  0
 18 19  2  0  0  0
 18 97  1  0  0  0
 19 20  1  0  0  0
 19 24  1  0  0  0
 20 21  2  0  0  0
 20 98  1  0  0  0
 21 23  1  0  0  0
 22 28  1  0  0  0
 22 32  2  0  0  0
 26 27  1  0  0  0
 28 99  1  0  0  0
 28100  1  0  0  0
 29101  1  0  0  0
 29102  1  0  0  0
 33 34  1  0  0  0
 33 66  1  0  0  0
 33 70  2  0  0  0
 34 36  1  0  0  0
 34 59  1  0  0  0
 34103  1  0  0  0
 35 44  2  0  0  0
 35 45  1  0  0  0
 35 68  1  0  0  0
 36 56  1  0  0  0
 36104  1  0  0  0
 37 39  1  0  0  0
 37 47  1  0  0  0
 37 66  1  0  0  0
 37105  1  0  0  0
 38 43  2  0  0  0
 38 46  1  0  0  0
 38 47  1  0  0  0
 39 64  1  0  0  0
 39 67  2  0  0  0
 40 52  1  0  0  0
 40 53  2  0  0  0
 40 58  1  0  0  0
 41106  1  0  0  0
 41107  1  0  0  0
 41108  1  0  0  0
 41 48  1  0  0  0
 42 43  1  0  0  0
 42 66  1  0  0  0
 42109  1  0  0  0
 42110  1  0  0  0
 43 44  1  0  0  0
 44111  1  0  0  0
 45 46  2  0  0  0
 45112  1  0  0  0
 46113  1  0  0  0
 47114  1  0  0  0
 47115  1  0  0  0
 48 56  1  0  0  0
 48 65  1  0  0  0
 48116  1  0  0  0
 49 50  1  0  0  0
 49 53  1  0  0  0
 49 64  1  0  0  0
 49117  1  0  0  0
 50 51  1  0  0  0
 50118  1  0  0  0
 50119  1  0  0  0
 51 52  1  0  0  0
 51120  1  0  0  0
 51121  1  0  0  0
 52122  1  0  0  0
 52123  1  0  0  0
 53 54  1  0  0  0
 54 55  2  0  0  0
 54124  1  0  0  0
 55 57  1  0  0  0
 55125  1  0  0  0
 56 69  2  0  0  0
 57 58  2  0  0  0
 57126  1  0  0  0
 58127  1  0  0  0
 59 60  1  0  0  0
 59 61  1  0  0  0
 59 62  1  0  0  0
 60128  1  0  0  0
 60129  1  0  0  0
 60130  1  0  0  0
 61131  1  0  0  0
 61132  1  0  0  0
 61133  1  0  0  0
 62134  1  0  0  0
 62135  1  0  0  0
 62136  1  0  0  0
 63 65  1  0  0  0
 63137  1  0  0  0
 63138  1  0  0  0
 63139  1  0  0  0
 64140  1  0  0  0
 65141  1  0  0  0
 68 82  1  0  0  0
 71 73  2  0  0  0
 71 75  1  0  0  0
 71142  1  0  0  0
 72 74  1  0  0  0
 72 76  2  0  0  0
 72143  1  0  0  0
 73 76  1  0  0  0
 73 77  1  0  0  0
 74 75  2  0  0  0
 74 78  1  0  0  0
 75 79  1  0  0  0
 76 80  1  0  0  0
 77144  1  0  0  0
 77145  1  0  0  0
 77146  1  0  0  0
 78147  1  0  0  0
 78148  1  0  0  0
 78149  1  0  0  0
 79150  1  0  0  0
 79151  1  0  0  0
 80 81  1  0  0  0
 80152  1  0  0  0
 80153  1  0  0  0
 81 82  1  0  0  0
 81154  1  0  0  0
 81155  1  0  0  0
 82156  1  0  0  0
 82157  1  0  0  0
M  ISO  4   1 100  68 101  79 100  82 101
M  END
> <chiral flag>
0

> <version>
0

> <s_m_source_file>
/data/baiqing/PycharmProjects/Reinvent-master-3.2/result/LINK_invent/BTK/process_docking_weight1_custom_sum_contain_oxygen_bond_distance_aromatic_linkinvent_7_9_3/rearranged_h_0036.sdf

> <i_m_source_file_index>
14

> <r_mmod_Potential_Energy-OPLS-2005>
327.558410644531

> <r_mmod_Stretch_Energy-OPLS-2005>
169.74284362793

> <r_mmod_Bend_Energy-OPLS-2005>
240.898330688477

> <r_mmod_Torsional_Energy-OPLS-2005>
173.617202758789

> <r_mmod_Improper_Torsional_Energy-OPLS-2005>
4.02968597412109

> <r_mmod_Van_der_Waal_Energy-OPLS-2005>
139.849197387695

> <r_mmod_Electrostatic_Energy-OPLS-2005>
-316.807739257812

> <r_mmod_Solvation_Energy-OPLS-2005>
-194.87663269043

> <b_mmod_Minimization_Converged-OPLS-2005>
0

> <r_mmod_RMS_Derivative-OPLS-2005>
2.47482299804688

$$$$
14
                    3D
 Structure written by MMmdl.
173181  0  0  1  0            999 V2000
  -30.7103  -14.4407   20.5872 C   0  0  0  0  0  0
  -30.4184  -12.2789   19.4405 C   0  0  0  0  0  0
  -29.5001  -12.4893   18.2182 C   0  0  0  0  0  0
  -28.0181  -12.3628   18.6223 C   0  0  0  0  0  0
  -27.6647  -13.2029   19.8798 C   0  0  2  0  0  0
  -28.7007  -12.9785   21.0073 C   0  0  0  0  0  0
  -25.2599  -13.8173   20.5687 C   0  0  0  0  0  0
  -24.1836  -13.0439   20.9176 C   0  0  0  0  0  0
  -24.6384  -11.6911   20.8726 C   0  0  0  0  0  0
  -23.9055  -10.4300   21.0395 C   0  0  0  0  0  0
  -24.3613   -9.4223   21.9185 C   0  0  0  0  0  0
  -23.6295   -8.2258   22.0765 C   0  0  0  0  0  0
  -22.4282   -8.0293   21.3542 C   0  0  0  0  0  0
  -21.9915   -9.0254   20.4650 C   0  0  0  0  0  0
  -22.7229  -10.2141   20.3045 C   0  0  0  0  0  0
  -21.6855   -6.0737   22.5287 C   0  0  0  0  0  0
  -21.4010   -6.5636   23.8212 C   0  0  0  0  0  0
  -21.3655   -5.6790   24.9185 C   0  0  0  0  0  0
  -21.6046   -4.3055   24.7247 C   0  0  0  0  0  0
  -21.8816   -3.8142   23.4362 C   0  0  0  0  0  0
  -21.9196   -4.6957   22.3412 C   0  0  0  0  0  0
  -22.7867  -13.5249   21.1829 C   0  0  0  0  0  0
  -22.1660   -4.2136   21.0989 F   0  0  0  0  0  0
  -21.5634   -3.4539   25.7756 F   0  0  0  0  0  0
  -30.0390  -13.2660   20.4633 N   0  0  0  0  0  0
  -26.3027  -12.9322   20.3379 N   0  0  0  0  0  0
  -25.9308  -11.6482   20.5764 N   0  0  0  0  0  0
  -22.0512  -12.8220   22.0380 N   0  0  0  0  0  0
  -25.4325  -15.1892   20.4109 N   0  0  0  0  0  0
  -31.8097  -14.6491   20.0655 O   0  0  0  0  0  0
  -21.6641   -6.8889   21.4245 O   0  0  0  0  0  0
  -22.3552  -14.5561   20.6714 O   0  0  0  0  0  0
  -24.6191  -31.8717   23.2121 C   0  0  0  0  0  0
  -25.9087  -32.4849   23.8395 C   0  0  1  0  0  0
  -27.2160  -27.4220   20.1025 C   0  0  0  0  0  0
  -25.5960  -33.8641   24.2315 N   0  0  0  0  0  0
  -23.4037  -30.4982   21.5569 C   0  0  2  0  0  0
  -24.8431  -28.9654   20.1165 C   0  0  0  0  0  0
  -22.7422  -29.4686   22.5018 C   0  0  0  0  0  0
  -18.0281  -28.1364   22.8460 C   0  0  0  0  0  0
  -24.1490  -36.7322   23.2630 C   0  0  0  0  0  0
  -25.9349  -30.8340   21.3681 C   0  0  0  0  0  0
  -26.0094  -29.4699   20.7091 C   0  0  0  0  0  0
  -27.2004  -28.7072   20.6945 C   0  0  0  0  0  0
  -26.0321  -26.9420   19.4950 C   0  0  0  0  0  0
  -24.8501  -27.7001   19.5096 C   0  0  0  0  0  0
  -23.6130  -29.8420   20.1670 C   0  0  0  0  0  0
  -25.4116  -36.3131   24.0317 C   0  0  1  0  0  0
  -20.5862  -28.3667   23.1315 C   0  0  2  0  0  0
  -20.6791  -26.9402   22.5445 C   0  0  0  0  0  0
  -19.5793  -26.6378   21.5206 C   0  0  0  0  0  0
  -18.1935  -26.7917   22.1553 C   0  0  0  0  0  0
  -19.1524  -28.8815   23.2886 C   0  0  0  0  0  0
  -18.9472  -30.1407   23.8913 C   0  0  0  0  0  0
  -17.6493  -30.6587   24.0540 C   0  0  0  0  0  0
  -25.9052  -34.9494   23.5096 C   0  0  0  0  0  0
  -16.5372  -29.9097   23.6306 C   0  0  0  0  0  0
  -16.7269  -28.6510   23.0326 C   0  0  0  0  0  0
  -26.4469  -31.6647   25.0742 C   0  0  0  0  0  0
  -25.3675  -31.3819   26.1457 C   0  0  0  0  0  0
  -27.0305  -30.3066   24.6165 C   0  0  0  0  0  0
  -27.6041  -32.4371   25.7525 C   0  0  0  0  0  0
  -27.5608  -37.1817   24.8440 C   0  0  0  0  0  0
  -21.4155  -29.3037   22.3724 N   0  0  0  0  0  0
  -26.4293  -37.3826   23.9409 N   0  0  0  0  0  0
  -24.6708  -31.0810   22.1038 N   0  0  0  0  0  0
  -23.4183  -28.8241   23.3074 O   0  0  0  0  0  0
  -28.3740  -26.6709   20.1093 O   0  0  0  0  0  0
  -26.5609  -34.8952   22.4651 O   0  0  0  0  0  0
  -23.5397  -32.1490   23.7532 O   0  0  0  0  0  0
  -27.9121  -22.7629   18.3310 C   0  0  0  0  0  0
  -28.3187  -22.2067   19.5625 C   0  0  0  0  0  0
  -27.7365  -20.9622   19.9502 C   0  0  0  0  0  0
  -26.9006  -22.1546   17.5832 C   0  0  0  0  0  0
  -26.7076  -20.4307   19.1215 C   0  0  0  0  0  0
  -25.1463  -23.5986   16.4546 C   0  0  0  0  0  0
  -24.6501  -19.4358   20.2294 C   0  0  0  0  0  0
  -29.3535  -22.9567   20.4175 C   0  0  0  0  0  0
  -28.2066  -20.1861   21.1950 C   0  0  0  0  0  0
  -26.4290  -22.7740   16.2806 C   0  0  0  0  0  0
  -25.9352  -19.1565   19.4352 C   0  0  0  0  0  0
  -29.4950  -24.4799   20.1310 C   0  0  0  0  0  0
  -29.3771  -19.2196   20.8857 C   0  0  0  0  0  0
  -29.2302  -17.7977   21.4784 C   0  0  0  0  0  0
  -30.3592  -16.8535   21.0097 C   0  0  0  0  0  0
  -28.2242  -25.2840   20.4679 C   0  0  0  0  0  0
  -26.2898  -21.0286   17.9848 N   0  0  0  0  0  0
  -30.0307  -15.4356   21.1834 N   0  0  0  0  0  0
  -31.4677  -12.3576   19.1520 H   0  0  0  0  0  0
  -30.2981  -11.2708   19.8415 H   0  0  0  0  0  0
  -29.7375  -11.7589   17.4437 H   0  0  0  0  0  0
  -29.6829  -13.4718   17.7784 H   0  0  0  0  0  0
  -27.8173  -11.3072   18.8141 H   0  0  0  0  0  0
  -27.3754  -12.6449   17.7881 H   0  0  0  0  0  0
  -27.7153  -14.2511   19.5834 H   0  0  0  0  0  0
  -28.6667  -11.9452   21.3563 H   0  0  0  0  0  0
  -28.4603  -13.5851   21.8811 H   0  0  0  0  0  0
  -25.2761   -9.5704   22.4758 H   0  0  0  0  0  0
  -24.0001   -7.4661   22.7483 H   0  0  0  0  0  0
  -21.0857   -8.8778   19.8953 H   0  0  0  0  0  0
  -22.3699  -10.9677   19.6153 H   0  0  0  0  0  0
  -21.1993   -7.6145   23.9722 H   0  0  0  0  0  0
  -21.1474   -6.0523   25.9093 H   0  0  0  0  0  0
  -22.0600   -2.7599   23.2877 H   0  0  0  0  0  0
  -22.4119  -11.9852   22.4706 H   0  0  0  0  0  0
  -21.1139  -13.1241   22.2615 H   0  0  0  0  0  0
  -24.6668  -15.8435   20.5265 H   0  0  0  0  0  0
  -26.2903  -15.6279   20.1010 H   0  0  0  0  0  0
  -26.7170  -32.5544   23.1193 H   0  0  0  0  0  0
  -25.0158  -33.9770   25.0485 H   0  0  0  0  0  0
  -22.6915  -31.3143   21.4261 H   0  0  0  0  0  0
  -23.3774  -35.9642   23.3274 H   0  0  0  0  0  0
  -24.3608  -36.8975   22.2059 H   0  0  0  0  0  0
  -23.7210  -37.6490   23.6671 H   0  0  0  0  0  0
  -26.0499  -31.6083   20.6085 H   0  0  0  0  0  0
  -26.8196  -30.8798   21.9918 H   0  0  0  0  0  0
  -28.1007  -29.0923   21.1523 H   0  0  0  0  0  0
  -25.9978  -25.9853   18.9966 H   0  0  0  0  0  0
  -23.9513  -27.3043   19.0537 H   0  0  0  0  0  0
  -23.7395  -30.6286   19.4216 H   0  0  0  0  0  0
  -22.7280  -29.2825   19.8603 H   0  0  0  0  0  0
  -25.1297  -36.2005   25.0814 H   0  0  0  0  0  0
  -20.9905  -28.3288   24.1447 H   0  0  0  0  0  0
  -20.5708  -26.2292   23.3647 H   0  0  0  0  0  0
  -21.6683  -26.7500   22.1258 H   0  0  0  0  0  0
  -19.6986  -25.6289   21.1255 H   0  0  0  0  0  0
  -19.6765  -27.3164   20.6712 H   0  0  0  0  0  0
  -17.4257  -26.6695   21.3894 H   0  0  0  0  0  0
  -18.0254  -26.0024   22.8885 H   0  0  0  0  0  0
  -19.7963  -30.7145   24.2370 H   0  0  0  0  0  0
  -17.5079  -31.6268   24.5154 H   0  0  0  0  0  0
  -15.5373  -30.3018   23.7637 H   0  0  0  0  0  0
  -15.8653  -28.0847   22.7048 H   0  0  0  0  0  0
  -24.5976  -30.6987   25.7859 H   0  0  0  0  0  0
  -24.8684  -32.2978   26.4621 H   0  0  0  0  0  0
  -25.7988  -30.9282   27.0390 H   0  0  0  0  0  0
  -26.2887  -29.6831   24.1164 H   0  0  0  0  0  0
  -27.3973  -29.7311   25.4680 H   0  0  0  0  0  0
  -27.8756  -30.4350   23.9398 H   0  0  0  0  0  0
  -27.2670  -33.3707   26.2043 H   0  0  0  0  0  0
  -28.3886  -32.6879   25.0373 H   0  0  0  0  0  0
  -28.0643  -31.8514   26.5493 H   0  0  0  0  0  0
  -28.2614  -38.0137   24.7575 H   0  0  0  0  0  0
  -28.1116  -36.2675   24.6164 H   0  0  0  0  0  0
  -27.2338  -37.1379   25.8843 H   0  0  0  0  0  0
  -20.9342  -29.8789   21.6958 H   0  0  0  0  0  0
  -26.0186  -38.2894   24.1468 H   0  0  0  0  0  0
  -28.3405  -23.6735   17.9408 H   0  0  0  0  0  0
  -24.8497  -24.0658   15.5155 H   0  0  0  0  0  0
  -25.2908  -24.3876   17.1917 H   0  0  0  0  0  0
  -24.3221  -22.9713   16.7917 H   0  0  0  0  0  0
  -24.0471  -18.5335   20.3274 H   0  0  0  0  0  0
  -24.0368  -20.1923   19.7360 H   0  0  0  0  0  0
  -24.8778  -19.7966   21.2312 H   0  0  0  0  0  0
  -30.3218  -22.4725   20.2927 H   0  0  0  0  0  0
  -29.0874  -22.8562   21.4687 H   0  0  0  0  0  0
  -27.3721  -19.6377   21.6319 H   0  0  0  0  0  0
  -28.5029  -20.8627   21.9943 H   0  0  0  0  0  0
  -26.2770  -21.9876   15.5412 H   0  0  0  0  0  0
  -27.2155  -23.4160   15.8804 H   0  0  0  0  0  0
  -26.5577  -18.4247   19.9464 H   0  0  0  0  0  0
  -25.6636  -18.6805   18.4920 H   0  0  0  0  0  0
  -29.7957  -24.6456   19.0967 H   0  0  0  0  0  0
  -30.3224  -24.8752   20.7183 H   0  0  0  0  0  0
  -30.3145  -19.6717   21.2143 H   0  0  0  0  0  0
  -29.4677  -19.1149   19.8051 H   0  0  0  0  0  0
  -28.2699  -17.3877   21.1671 H   0  0  0  0  0  0
  -29.2098  -17.8394   22.5691 H   0  0  0  0  0  0
  -31.2924  -17.0856   21.5271 H   0  0  0  0  0  0
  -30.5435  -17.0245   19.9467 H   0  0  0  0  0  0
  -28.0334  -25.2191   21.5412 H   0  0  0  0  0  0
  -27.3748  -24.8016   19.9887 H   0  0  0  0  0  0
  -29.1494  -15.1932   21.6121 H   0  0  0  0  0  0
  1 25  1  0  0  0
  1 30  2  0  0  0
  1 88  1  0  0  0
  2  3  1  0  0  0
  2 25  1  0  0  0
  2 89  1  0  0  0
  2 90  1  0  0  0
  3  4  1  0  0  0
  3 91  1  0  0  0
  3 92  1  0  0  0
  4  5  1  0  0  0
  4 93  1  0  0  0
  4 94  1  0  0  0
  5  6  1  0  0  0
  5 26  1  0  0  0
  5 95  1  0  0  0
  6 25  1  0  0  0
  6 96  1  0  0  0
  6 97  1  0  0  0
  7  8  2  0  0  0
  7 26  1  0  0  0
  7 29  1  0  0  0
  8  9  1  0  0  0
  8 22  1  0  0  0
  9 10  1  0  0  0
  9 27  2  0  0  0
 10 11  2  0  0  0
 10 15  1  0  0  0
 11 12  1  0  0  0
 11 98  1  0  0  0
 12 13  2  0  0  0
 12 99  1  0  0  0
 13 14  1  0  0  0
 13 31  1  0  0  0
 14 15  2  0  0  0
 14100  1  0  0  0
 15101  1  0  0  0
 16 17  2  0  0  0
 16 21  1  0  0  0
 16 31  1  0  0  0
 17 18  1  0  0  0
 17102  1  0  0  0
 18 19  2  0  0  0
 18103  1  0  0  0
 19 20  1  0  0  0
 19 24  1  0  0  0
 20 21  2  0  0  0
 20104  1  0  0  0
 21 23  1  0  0  0
 22 28  1  0  0  0
 22 32  2  0  0  0
 26 27  1  0  0  0
 28105  1  0  0  0
 28106  1  0  0  0
 29107  1  0  0  0
 29108  1  0  0  0
 33 34  1  0  0  0
 33 66  1  0  0  0
 33 70  2  0  0  0
 34 36  1  0  0  0
 34 59  1  0  0  0
 34109  1  0  0  0
 35 44  2  0  0  0
 35 45  1  0  0  0
 35 68  1  0  0  0
 36 56  1  0  0  0
 36110  1  0  0  0
 37 39  1  0  0  0
 37 47  1  0  0  0
 37 66  1  0  0  0
 37111  1  0  0  0
 38 43  2  0  0  0
 38 46  1  0  0  0
 38 47  1  0  0  0
 39 64  1  0  0  0
 39 67  2  0  0  0
 40 52  1  0  0  0
 40 53  2  0  0  0
 40 58  1  0  0  0
 41112  1  0  0  0
 41113  1  0  0  0
 41114  1  0  0  0
 41 48  1  0  0  0
 42 43  1  0  0  0
 42 66  1  0  0  0
 42115  1  0  0  0
 42116  1  0  0  0
 43 44  1  0  0  0
 44117  1  0  0  0
 45 46  2  0  0  0
 45118  1  0  0  0
 46119  1  0  0  0
 47120  1  0  0  0
 47121  1  0  0  0
 48 56  1  0  0  0
 48 65  1  0  0  0
 48122  1  0  0  0
 49 50  1  0  0  0
 49 53  1  0  0  0
 49 64  1  0  0  0
 49123  1  0  0  0
 50 51  1  0  0  0
 50124  1  0  0  0
 50125  1  0  0  0
 51 52  1  0  0  0
 51126  1  0  0  0
 51127  1  0  0  0
 52128  1  0  0  0
 52129  1  0  0  0
 53 54  1  0  0  0
 54 55  2  0  0  0
 54130  1  0  0  0
 55 57  1  0  0  0
 55131  1  0  0  0
 56 69  2  0  0  0
 57 58  2  0  0  0
 57132  1  0  0  0
 58133  1  0  0  0
 59 60  1  0  0  0
 59 61  1  0  0  0
 59 62  1  0  0  0
 60134  1  0  0  0
 60135  1  0  0  0
 60136  1  0  0  0
 61137  1  0  0  0
 61138  1  0  0  0
 61139  1  0  0  0
 62140  1  0  0  0
 62141  1  0  0  0
 62142  1  0  0  0
 63 65  1  0  0  0
 63143  1  0  0  0
 63144  1  0  0  0
 63145  1  0  0  0
 64146  1  0  0  0
 65147  1  0  0  0
 68 86  1  0  0  0
 71 72  2  0  0  0
 71 74  1  0  0  0
 71148  1  0  0  0
 72 73  1  0  0  0
 72 78  1  0  0  0
 73 75  2  0  0  0
 73 79  1  0  0  0
 74 80  1  0  0  0
 74 87  2  0  0  0
 75 81  1  0  0  0
 75 87  1  0  0  0
 76 80  1  0  0  0
 76149  1  0  0  0
 76150  1  0  0  0
 76151  1  0  0  0
 77 81  1  0  0  0
 77152  1  0  0  0
 77153  1  0  0  0
 77154  1  0  0  0
 78 82  1  0  0  0
 78155  1  0  0  0
 78156  1  0  0  0
 79 83  1  0  0  0
 79157  1  0  0  0
 79158  1  0  0  0
 80159  1  0  0  0
 80160  1  0  0  0
 81161  1  0  0  0
 81162  1  0  0  0
 82 86  1  0  0  0
 82163  1  0  0  0
 82164  1  0  0  0
 83 84  1  0  0  0
 83165  1  0  0  0
 83166  1  0  0  0
 84 85  1  0  0  0
 84167  1  0  0  0
 84168  1  0  0  0
 85 88  1  0  0  0
 85169  1  0  0  0
 85170  1  0  0  0
 86171  1  0  0  0
 86172  1  0  0  0
 88173  1  0  0  0
M  ISO  4   1 100  68 101  86 101  88 100
M  END
> <chiral flag>
0

> <version>
0

> <s_m_source_file>
/data/baiqing/PycharmProjects/Reinvent-master-3.2/result/LINK_invent/BTK/process_docking_weight1_custom_sum_contain_oxygen_bond_distance_aromatic_linkinvent_7_9_3/rearranged_h_0036.sdf

> <i_m_source_file_index>
15

> <r_mmod_Potential_Energy-OPLS-2005>
-278.374389648438

> <r_mmod_Stretch_Energy-OPLS-2005>
39.1297187805176

> <r_mmod_Bend_Energy-OPLS-2005>
95.280647277832

> <r_mmod_Torsional_Energy-OPLS-2005>
211.310424804688

> <r_mmod_Improper_Torsional_Energy-OPLS-2005>
3.96226692199707

> <r_mmod_Van_der_Waal_Energy-OPLS-2005>
156.633316040039

> <r_mmod_Electrostatic_Energy-OPLS-2005>
-581.149230957031

> <r_mmod_Solvation_Energy-OPLS-2005>
-216.06494140625

> <b_mmod_Minimization_Converged-OPLS-2005>
0

> <r_mmod_RMS_Derivative-OPLS-2005>
3.8171694278717

$$$$
15
                    3D
 Structure written by MMmdl.
155163  0  0  1  0            999 V2000
  -30.6921  -14.4633   20.5130 C   0  0  0  0  0  0
  -30.4183  -12.2757   19.4496 C   0  0  0  0  0  0
  -29.5062  -12.4923   18.2230 C   0  0  0  0  0  0
  -28.0202  -12.3718   18.6201 C   0  0  0  0  0  0
  -27.6633  -13.2058   19.8809 C   0  0  2  0  0  0
  -28.7032  -13.0005   21.0101 C   0  0  0  0  0  0
  -25.2583  -13.8160   20.5676 C   0  0  0  0  0  0
  -24.1824  -13.0435   20.9173 C   0  0  0  0  0  0
  -24.6375  -11.6906   20.8741 C   0  0  0  0  0  0
  -23.9042  -10.4292   21.0414 C   0  0  0  0  0  0
  -24.3607   -9.4214   21.9186 C   0  0  0  0  0  0
  -23.6293   -8.2244   22.0751 C   0  0  0  0  0  0
  -22.4276   -8.0276   21.3542 C   0  0  0  0  0  0
  -21.9903   -9.0246   20.4646 C   0  0  0  0  0  0
  -22.7222  -10.2131   20.3058 C   0  0  0  0  0  0
  -21.6848   -6.0737   22.5273 C   0  0  0  0  0  0
  -21.4020   -6.5638   23.8207 C   0  0  0  0  0  0
  -21.3671   -5.6789   24.9169 C   0  0  0  0  0  0
  -21.6050   -4.3053   24.7218 C   0  0  0  0  0  0
  -21.8814   -3.8146   23.4335 C   0  0  0  0  0  0
  -21.9189   -4.6965   22.3398 C   0  0  0  0  0  0
  -22.7852  -13.5247   21.1843 C   0  0  0  0  0  0
  -22.1652   -4.2152   21.0972 F   0  0  0  0  0  0
  -21.5641   -3.4534   25.7731 F   0  0  0  0  0  0
  -30.0419  -13.2720   20.4620 N   0  0  0  0  0  0
  -26.3021  -12.9322   20.3382 N   0  0  0  0  0  0
  -25.9307  -11.6482   20.5790 N   0  0  0  0  0  0
  -22.0476  -12.8249   22.0396 N   0  0  0  0  0  0
  -25.4296  -15.1882   20.4091 N   0  0  0  0  0  0
  -31.8451  -14.6293   20.1083 O   0  0  0  0  0  0
  -21.6640   -6.8878   21.4231 O   0  0  0  0  0  0
  -22.3544  -14.5554   20.6694 O   0  0  0  0  0  0
  -24.6147  -31.8691   23.2118 C   0  0  0  0  0  0
  -25.9038  -32.4824   23.8406 C   0  0  1  0  0  0
  -27.2296  -27.4394   20.0940 C   0  0  0  0  0  0
  -25.5900  -33.8624   24.2346 N   0  0  0  0  0  0
  -23.3995  -30.4955   21.5532 C   0  0  2  0  0  0
  -24.8431  -28.9655   20.1116 C   0  0  0  0  0  0
  -22.7403  -29.4678   22.5003 C   0  0  0  0  0  0
  -18.0260  -28.1380   22.8501 C   0  0  0  0  0  0
  -24.1480  -36.7309   23.2641 C   0  0  0  0  0  0
  -25.9276  -30.8382   21.3607 C   0  0  0  0  0  0
  -26.0033  -29.4731   20.7083 C   0  0  0  0  0  0
  -27.1973  -28.7178   20.6966 C   0  0  0  0  0  0
  -26.0504  -26.9546   19.4773 C   0  0  0  0  0  0
  -24.8611  -27.7052   19.4935 C   0  0  0  0  0  0
  -23.6051  -29.8310   20.1662 C   0  0  0  0  0  0
  -25.4096  -36.3109   24.0348 C   0  0  1  0  0  0
  -20.5855  -28.3658   23.1320 C   0  0  2  0  0  0
  -20.6753  -26.9396   22.5423 C   0  0  0  0  0  0
  -19.5729  -26.6393   21.5218 C   0  0  0  0  0  0
  -18.1905  -26.7928   22.1633 C   0  0  0  0  0  0
  -19.1512  -28.8834   23.2909 C   0  0  0  0  0  0
  -18.9447  -30.1445   23.8912 C   0  0  0  0  0  0
  -17.6453  -30.6586   24.0571 C   0  0  0  0  0  0
  -25.9026  -34.9476   23.5138 C   0  0  0  0  0  0
  -16.5340  -29.9093   23.6340 C   0  0  0  0  0  0
  -16.7251  -28.6513   23.0351 C   0  0  0  0  0  0
  -26.4480  -31.6586   25.0715 C   0  0  0  0  0  0
  -25.3773  -31.3679   26.1480 C   0  0  0  0  0  0
  -27.0299  -30.3032   24.6061 C   0  0  0  0  0  0
  -27.6063  -32.4301   25.7472 C   0  0  0  0  0  0
  -27.5565  -37.1807   24.8471 C   0  0  0  0  0  0
  -21.4133  -29.3032   22.3728 N   0  0  0  0  0  0
  -26.4278  -37.3794   23.9420 N   0  0  0  0  0  0
  -24.6656  -31.0816   22.1003 N   0  0  0  0  0  0
  -23.4189  -28.8221   23.3032 O   0  0  0  0  0  0
  -28.4008  -26.7053   20.1351 O   0  0  0  0  0  0
  -26.5586  -34.8927   22.4698 O   0  0  0  0  0  0
  -23.5345  -32.1431   23.7529 O   0  0  0  0  0  0
  -30.7236  -20.2632   19.4455 C   0  0  0  0  0  0
  -29.8976  -19.6969   21.6457 C   0  0  0  0  0  0
  -30.3419  -20.6800   20.7346 C   0  0  0  0  0  0
  -30.6090  -18.9057   19.1059 C   0  0  0  0  0  0
  -30.1245  -18.0005   20.0756 C   0  0  0  0  0  0
  -30.4059  -22.1581   21.1069 C   0  0  0  0  0  0
  -29.8295  -16.5658   19.6594 C   0  0  0  0  0  0
  -29.3288  -22.9977   20.3851 C   0  0  0  0  0  0
  -29.4397  -24.5198   20.6217 C   0  0  0  0  0  0
  -28.2947  -25.2886   19.9382 C   0  0  0  0  0  0
  -29.7855  -18.3833   21.3304 N   0  0  0  0  0  0
  -29.8811  -15.5144   20.6853 N   0  0  0  0  0  0
  -30.9236  -18.4938   17.8530 F   0  0  0  0  0  0
  -31.4689  -12.3500   19.1651 H   0  0  0  0  0  0
  -30.2858  -11.2697   19.8517 H   0  0  0  0  0  0
  -29.7422  -11.7666   17.4443 H   0  0  0  0  0  0
  -29.6944  -13.4768   17.7918 H   0  0  0  0  0  0
  -27.8080  -11.3171   18.7998 H   0  0  0  0  0  0
  -27.3852  -12.6679   17.7846 H   0  0  0  0  0  0
  -27.6996  -14.2509   19.5770 H   0  0  0  0  0  0
  -28.6619  -11.9775   21.3840 H   0  0  0  0  0  0
  -28.4815  -13.6378   21.8678 H   0  0  0  0  0  0
  -25.2751   -9.5697   22.4759 H   0  0  0  0  0  0
  -24.0002   -7.4640   22.7475 H   0  0  0  0  0  0
  -21.0830   -8.8767   19.8957 H   0  0  0  0  0  0
  -22.3675  -10.9672   19.6176 H   0  0  0  0  0  0
  -21.1996   -7.6144   23.9711 H   0  0  0  0  0  0
  -21.1516   -6.0520   25.9078 H   0  0  0  0  0  0
  -22.0582   -2.7606   23.2826 H   0  0  0  0  0  0
  -22.4080  -11.9917   22.4809 H   0  0  0  0  0  0
  -21.1105  -13.1309   22.2611 H   0  0  0  0  0  0
  -24.6599  -15.8411   20.5129 H   0  0  0  0  0  0
  -26.2793  -15.6288   20.0803 H   0  0  0  0  0  0
  -26.7106  -32.5543   23.1174 H   0  0  0  0  0  0
  -25.0054  -33.9793   25.0488 H   0  0  0  0  0  0
  -22.6871  -31.3118   21.4185 H   0  0  0  0  0  0
  -23.3734  -35.9650   23.3320 H   0  0  0  0  0  0
  -24.3566  -36.8899   22.2049 H   0  0  0  0  0  0
  -23.7245  -37.6529   23.6633 H   0  0  0  0  0  0
  -26.0337  -31.6036   20.5910 H   0  0  0  0  0  0
  -26.8197  -30.8940   21.9731 H   0  0  0  0  0  0
  -28.0891  -29.1079   21.1665 H   0  0  0  0  0  0
  -26.0297  -25.9980   18.9762 H   0  0  0  0  0  0
  -23.9689  -27.3120   19.0255 H   0  0  0  0  0  0
  -23.7104  -30.6079   19.4085 H   0  0  0  0  0  0
  -22.7301  -29.2494   19.8713 H   0  0  0  0  0  0
  -25.1275  -36.1974   25.0843 H   0  0  0  0  0  0
  -20.9937  -28.3211   24.1446 H   0  0  0  0  0  0
  -20.5650  -26.2266   23.3604 H   0  0  0  0  0  0
  -21.6622  -26.7447   22.1213 H   0  0  0  0  0  0
  -19.6887  -25.6317   21.1210 H   0  0  0  0  0  0
  -19.6660  -27.3241   20.6774 H   0  0  0  0  0  0
  -17.4185  -26.6683   21.4028 H   0  0  0  0  0  0
  -18.0297  -26.0062   22.9021 H   0  0  0  0  0  0
  -19.7922  -30.7254   24.2282 H   0  0  0  0  0  0
  -17.5012  -31.6265   24.5174 H   0  0  0  0  0  0
  -15.5344  -30.3004   23.7651 H   0  0  0  0  0  0
  -15.8647  -28.0841   22.7053 H   0  0  0  0  0  0
  -24.5950  -30.7010   25.7833 H   0  0  0  0  0  0
  -24.8964  -32.2828   26.4950 H   0  0  0  0  0  0
  -25.8163  -30.8848   27.0218 H   0  0  0  0  0  0
  -26.2818  -29.6782   24.1166 H   0  0  0  0  0  0
  -27.4136  -29.7269   25.4490 H   0  0  0  0  0  0
  -27.8626  -30.4365   23.9150 H   0  0  0  0  0  0
  -27.2680  -33.3584   26.2090 H   0  0  0  0  0  0
  -28.3847  -32.6886   25.0278 H   0  0  0  0  0  0
  -28.0757  -31.8399   26.5353 H   0  0  0  0  0  0
  -28.2618  -38.0069   24.7487 H   0  0  0  0  0  0
  -28.1025  -36.2605   24.6335 H   0  0  0  0  0  0
  -27.2279  -37.1506   25.8874 H   0  0  0  0  0  0
  -20.9278  -29.8766   21.6966 H   0  0  0  0  0  0
  -26.0163  -38.2871   24.1423 H   0  0  0  0  0  0
  -31.0703  -20.9765   18.7121 H   0  0  0  0  0  0
  -29.6015  -19.9719   22.6471 H   0  0  0  0  0  0
  -31.4005  -22.5300   20.8571 H   0  0  0  0  0  0
  -30.3026  -22.2735   22.1866 H   0  0  0  0  0  0
  -30.4653  -16.3158   18.8072 H   0  0  0  0  0  0
  -28.8159  -16.5619   19.2585 H   0  0  0  0  0  0
  -28.3428  -22.6498   20.6994 H   0  0  0  0  0  0
  -29.3832  -22.8174   19.3106 H   0  0  0  0  0  0
  -30.4002  -24.8821   20.2534 H   0  0  0  0  0  0
  -29.4182  -24.7257   21.6932 H   0  0  0  0  0  0
  -27.3626  -24.9027   20.3536 H   0  0  0  0  0  0
  -28.2863  -25.0778   18.8677 H   0  0  0  0  0  0
  -29.0027  -15.3228   21.1401 H   0  0  0  0  0  0
  1 25  1  0  0  0
  1 30  2  0  0  0
  1 82  1  0  0  0
  2  3  1  0  0  0
  2 25  1  0  0  0
  2 84  1  0  0  0
  2 85  1  0  0  0
  3  4  1  0  0  0
  3 86  1  0  0  0
  3 87  1  0  0  0
  4  5  1  0  0  0
  4 88  1  0  0  0
  4 89  1  0  0  0
  5  6  1  0  0  0
  5 26  1  0  0  0
  5 90  1  0  0  0
  6 25  1  0  0  0
  6 91  1  0  0  0
  6 92  1  0  0  0
  7  8  2  0  0  0
  7 26  1  0  0  0
  7 29  1  0  0  0
  8  9  1  0  0  0
  8 22  1  0  0  0
  9 10  1  0  0  0
  9 27  2  0  0  0
 10 11  2  0  0  0
 10 15  1  0  0  0
 11 12  1  0  0  0
 11 93  1  0  0  0
 12 13  2  0  0  0
 12 94  1  0  0  0
 13 14  1  0  0  0
 13 31  1  0  0  0
 14 15  2  0  0  0
 14 95  1  0  0  0
 15 96  1  0  0  0
 16 17  2  0  0  0
 16 21  1  0  0  0
 16 31  1  0  0  0
 17 18  1  0  0  0
 17 97  1  0  0  0
 18 19  2  0  0  0
 18 98  1  0  0  0
 19 20  1  0  0  0
 19 24  1  0  0  0
 20 21  2  0  0  0
 20 99  1  0  0  0
 21 23  1  0  0  0
 22 28  1  0  0  0
 22 32  2  0  0  0
 26 27  1  0  0  0
 28100  1  0  0  0
 28101  1  0  0  0
 29102  1  0  0  0
 29103  1  0  0  0
 33 34  1  0  0  0
 33 66  1  0  0  0
 33 70  2  0  0  0
 34 36  1  0  0  0
 34 59  1  0  0  0
 34104  1  0  0  0
 35 44  2  0  0  0
 35 45  1  0  0  0
 35 68  1  0  0  0
 36 56  1  0  0  0
 36105  1  0  0  0
 37 39  1  0  0  0
 37 47  1  0  0  0
 37 66  1  0  0  0
 37106  1  0  0  0
 38 43  2  0  0  0
 38 46  1  0  0  0
 38 47  1  0  0  0
 39 64  1  0  0  0
 39 67  2  0  0  0
 40 52  1  0  0  0
 40 53  2  0  0  0
 40 58  1  0  0  0
 41107  1  0  0  0
 41108  1  0  0  0
 41109  1  0  0  0
 41 48  1  0  0  0
 42 43  1  0  0  0
 42 66  1  0  0  0
 42110  1  0  0  0
 42111  1  0  0  0
 43 44  1  0  0  0
 44112  1  0  0  0
 45 46  2  0  0  0
 45113  1  0  0  0
 46114  1  0  0  0
 47115  1  0  0  0
 47116  1  0  0  0
 48 56  1  0  0  0
 48 65  1  0  0  0
 48117  1  0  0  0
 49 50  1  0  0  0
 49 53  1  0  0  0
 49 64  1  0  0  0
 49118  1  0  0  0
 50 51  1  0  0  0
 50119  1  0  0  0
 50120  1  0  0  0
 51 52  1  0  0  0
 51121  1  0  0  0
 51122  1  0  0  0
 52123  1  0  0  0
 52124  1  0  0  0
 53 54  1  0  0  0
 54 55  2  0  0  0
 54125  1  0  0  0
 55 57  1  0  0  0
 55126  1  0  0  0
 56 69  2  0  0  0
 57 58  2  0  0  0
 57127  1  0  0  0
 58128  1  0  0  0
 59 60  1  0  0  0
 59 61  1  0  0  0
 59 62  1  0  0  0
 60129  1  0  0  0
 60130  1  0  0  0
 60131  1  0  0  0
 61132  1  0  0  0
 61133  1  0  0  0
 61134  1  0  0  0
 62135  1  0  0  0
 62136  1  0  0  0
 62137  1  0  0  0
 63 65  1  0  0  0
 63138  1  0  0  0
 63139  1  0  0  0
 63140  1  0  0  0
 64141  1  0  0  0
 65142  1  0  0  0
 68 80  1  0  0  0
 71 73  2  0  0  0
 71 74  1  0  0  0
 71143  1  0  0  0
 72 73  1  0  0  0
 72 81  2  0  0  0
 72144  1  0  0  0
 73 76  1  0  0  0
 74 75  2  0  0  0
 74 83  1  0  0  0
 75 77  1  0  0  0
 75 81  1  0  0  0
 76 78  1  0  0  0
 76145  1  0  0  0
 76146  1  0  0  0
 77 82  1  0  0  0
 77147  1  0  0  0
 77148  1  0  0  0
 78 79  1  0  0  0
 78149  1  0  0  0
 78150  1  0  0  0
 79 80  1  0  0  0
 79151  1  0  0  0
 79152  1  0  0  0
 80153  1  0  0  0
 80154  1  0  0  0
 82155  1  0  0  0
M  ISO  4   1 100  68 101  80 101  82 100
M  END
> <chiral flag>
0

> <version>
0

> <s_m_source_file>
/data/baiqing/PycharmProjects/Reinvent-master-3.2/result/LINK_invent/BTK/process_docking_weight1_custom_sum_contain_oxygen_bond_distance_aromatic_linkinvent_7_9_3/rearranged_h_0036.sdf

> <i_m_source_file_index>
16

> <r_mmod_Potential_Energy-OPLS-2005>
-231.186737060547

> <r_mmod_Stretch_Energy-OPLS-2005>
33.827579498291

> <r_mmod_Bend_Energy-OPLS-2005>
91.7427978515625

> <r_mmod_Torsional_Energy-OPLS-2005>
225.082260131836

> <r_mmod_Improper_Torsional_Energy-OPLS-2005>
13.1794233322144

> <r_mmod_Van_der_Waal_Energy-OPLS-2005>
160.182922363281

> <r_mmod_Electrostatic_Energy-OPLS-2005>
-550.621704101562

> <r_mmod_Solvation_Energy-OPLS-2005>
-219.376113891602

> <b_mmod_Minimization_Converged-OPLS-2005>
0

> <r_mmod_RMS_Derivative-OPLS-2005>
1.8694760799408

$$$$
16
                    3D
 Structure written by MMmdl.
172180  0  0  1  0            999 V2000
  -30.4561  -15.9829   20.5833 C   0  0  0  0  0  0
  -30.4141  -13.3381   19.6971 C   0  0  0  0  0  0
  -29.5933  -12.8090   18.4596 C   0  0  0  0  0  0
  -28.1974  -12.3504   18.8716 C   0  0  0  0  0  0
  -27.6107  -13.3841   19.8489 C   0  0  2  0  0  0
  -28.5762  -13.8987   20.9836 C   0  0  0  0  0  0
  -25.2289  -13.8434   20.5836 C   0  0  0  0  0  0
  -24.1732  -13.0480   20.9239 C   0  0  0  0  0  0
  -24.6539  -11.7026   20.8717 C   0  0  0  0  0  0
  -23.9252  -10.4325   21.0338 C   0  0  0  0  0  0
  -24.3753   -9.4225   21.9129 C   0  0  0  0  0  0
  -23.6378   -8.2281   22.0745 C   0  0  0  0  0  0
  -22.4338   -8.0333   21.3556 C   0  0  0  0  0  0
  -22.0022   -9.0304   20.4630 C   0  0  0  0  0  0
  -22.7405  -10.2153   20.3009 C   0  0  0  0  0  0
  -21.6871   -6.0788   22.5291 C   0  0  0  0  0  0
  -21.4022   -6.5672   23.8232 C   0  0  0  0  0  0
  -21.3663   -5.6805   24.9180 C   0  0  0  0  0  0
  -21.6049   -4.3072   24.7209 C   0  0  0  0  0  0
  -21.8814   -3.8183   23.4322 C   0  0  0  0  0  0
  -21.9195   -4.7016   22.3394 C   0  0  0  0  0  0
  -22.7712  -13.5128   21.1879 C   0  0  0  0  0  0
  -22.1659   -4.2214   21.0968 F   0  0  0  0  0  0
  -21.5628   -3.4546   25.7712 F   0  0  0  0  0  0
  -29.8057  -14.5970   20.4460 N   0  0  0  0  0  0
  -26.2891  -12.9941   20.3395 N   0  0  0  0  0  0
  -25.9533  -11.6916   20.5703 N   0  0  0  0  0  0
  -22.0433  -12.8061   22.0442 N   0  0  0  0  0  0
  -25.3788  -15.2185   20.4325 N   0  0  0  0  0  0
  -31.6245  -15.6284   20.3015 O   0  0  0  0  0  0
  -21.6668   -6.8947   21.4261 O   0  0  0  0  0  0
  -22.3336  -14.5411   20.6729 O   0  0  0  0  0  0
  -24.7862  -31.6887   23.1084 C   0  0  0  0  0  0
  -26.1941  -32.0149   23.7460 C   0  0  1  0  0  0
  -26.7654  -27.2925   20.6683 C   0  0  0  0  0  0
  -25.8648  -33.4953   24.2001 N   0  0  0  0  0  0
  -23.3962  -30.5516   21.3827 C   0  0  2  0  0  0
  -24.7916  -29.0152   19.8819 C   0  0  0  0  0  0
  -22.6801  -29.4404   22.1643 C   0  0  0  0  0  0
  -18.0218  -28.1447   22.8552 C   0  0  0  0  0  0
  -24.1765  -36.5125   23.3013 C   0  0  0  0  0  0
  -25.9304  -30.8724   21.0665 C   0  0  0  0  0  0
  -25.9909  -29.5251   20.3666 C   0  0  0  0  0  0
  -27.1064  -28.6595   20.4818 C   0  0  0  0  0  0
  -25.7753  -26.7999   19.8042 C   0  0  0  0  0  0
  -24.7384  -27.6809   19.4376 C   0  0  0  0  0  0
  -23.5907  -29.9389   19.9674 C   0  0  0  0  0  0
  -25.4472  -36.0679   24.0606 C   0  0  1  0  0  0
  -20.5815  -28.4202   23.0907 C   0  0  2  0  0  0
  -20.6717  -26.9796   22.5077 C   0  0  0  0  0  0
  -19.5580  -26.6522   21.5113 C   0  0  0  0  0  0
  -18.1868  -26.7985   22.1718 C   0  0  0  0  0  0
  -19.1433  -28.9011   23.2887 C   0  0  0  0  0  0
  -18.9289  -30.1567   23.8974 C   0  0  0  0  0  0
  -17.6270  -30.6630   24.0644 C   0  0  0  0  0  0
  -25.9984  -34.6894   23.5161 C   0  0  0  0  0  0
  -16.5208  -29.9062   23.6392 C   0  0  0  0  0  0
  -16.7180  -28.6474   23.0436 C   0  0  0  0  0  0
  -26.9273  -30.7914   24.8520 C   0  0  0  0  0  0
  -25.8020  -31.2123   26.0176 C   0  0  0  0  0  0
  -28.0212  -27.6327   24.8109 C   0  0  0  0  0  0
  -27.9342  -31.9757   25.4373 C   0  0  0  0  0  0
  -27.5494  -37.1022   24.8587 C   0  0  0  0  0  0
  -21.3526  -29.4341   22.3478 N   0  0  0  0  0  0
  -26.4058  -37.2056   23.9642 N   0  0  0  0  0  0
  -24.7201  -31.0125   21.9350 N   0  0  0  0  0  0
  -23.3389  -28.4790   22.4698 O   0  0  0  0  0  0
  -26.9882  -26.6168   21.9118 O   0  0  0  0  0  0
  -26.5822  -34.7319   22.4323 O   0  0  0  0  0  0
  -23.7379  -32.0755   23.6702 O   0  0  0  0  0  0
  -28.9795  -29.6572   24.8167 C   0  0  0  0  0  0
  -27.9112  -29.2993   26.2661 C   0  0  0  0  0  0
  -26.7932  -29.0022   23.2773 C   0  0  0  0  0  0
  -28.4646  -29.1272   23.2232 C   0  0  0  0  0  0
  -26.2877  -28.5675   25.9095 C   0  0  0  0  0  0
  -25.7781  -28.7592   24.5405 C   0  0  0  0  0  0
  -23.6095  -28.8639   26.2796 C   0  0  0  0  0  0
  -31.2645  -18.4853   19.7445 C   0  0  0  0  0  0
  -29.3123  -27.4395   22.4572 C   0  0  0  0  0  0
  -25.7639  -26.9627   25.0793 C   0  0  0  0  0  0
  -24.2035  -28.9125   24.8290 C   0  0  0  0  0  0
  -29.4299  -25.3235   22.5832 C   0  0  0  0  0  0
  -29.2626  -23.3921   21.7722 C   0  0  0  0  0  0
  -29.9537  -21.4039   21.7493 C   0  0  0  0  0  0
  -25.9032  -26.4803   23.2164 C   0  0  0  0  0  0
  -30.4038  -17.9943   20.9381 C   0  0  1  0  0  0
  -29.5411  -19.6184   21.2992 N   0  3  0  0  0  0
  -31.4140  -13.5445   19.3181 H   0  0  0  0  0  0
  -30.5754  -12.5265   20.4106 H   0  0  0  0  0  0
  -30.1254  -11.9954   17.9648 H   0  0  0  0  0  0
  -29.5027  -13.6078   17.7216 H   0  0  0  0  0  0
  -28.2767  -11.3770   19.3620 H   0  0  0  0  0  0
  -27.5549  -12.2133   17.9999 H   0  0  0  0  0  0
  -27.4317  -14.2485   19.2075 H   0  0  0  0  0  0
  -28.8351  -13.0865   21.6635 H   0  0  0  0  0  0
  -28.0351  -14.6192   21.5968 H   0  0  0  0  0  0
  -25.2921   -9.5666   22.4681 H   0  0  0  0  0  0
  -24.0086   -7.4675   22.7474 H   0  0  0  0  0  0
  -21.0959   -8.8838   19.8922 H   0  0  0  0  0  0
  -22.3901  -10.9672   19.6088 H   0  0  0  0  0  0
  -21.2012   -7.6182   23.9755 H   0  0  0  0  0  0
  -21.1486   -6.0528   25.9088 H   0  0  0  0  0  0
  -22.0583   -2.7652   23.2795 H   0  0  0  0  0  0
  -22.4157  -11.9765   22.4812 H   0  0  0  0  0  0
  -21.1016  -13.0970   22.2655 H   0  0  0  0  0  0
  -24.6015  -15.8609   20.5382 H   0  0  0  0  0  0
  -26.2344  -15.6760   20.1441 H   0  0  0  0  0  0
  -26.9540  -32.2465   23.0088 H   0  0  0  0  0  0
  -25.3342  -33.5555   25.0575 H   0  0  0  0  0  0
  -22.7217  -31.4040   21.3271 H   0  0  0  0  0  0
  -23.4374  -35.7089   23.2842 H   0  0  0  0  0  0
  -24.4048  -36.7662   22.2653 H   0  0  0  0  0  0
  -23.7042  -37.3770   23.7687 H   0  0  0  0  0  0
  -25.9332  -31.6652   20.3200 H   0  0  0  0  0  0
  -26.8877  -30.9368   21.5631 H   0  0  0  0  0  0
  -28.0031  -29.0785   20.8922 H   0  0  0  0  0  0
  -25.5695  -25.7400   19.7503 H   0  0  0  0  0  0
  -23.8251  -27.2879   19.0101 H   0  0  0  0  0  0
  -23.7693  -30.7520   19.2667 H   0  0  0  0  0  0
  -22.6894  -29.4315   19.6195 H   0  0  0  0  0  0
  -25.1723  -35.9256   25.1076 H   0  0  0  0  0  0
  -21.0250  -28.3774   24.0885 H   0  0  0  0  0  0
  -20.5795  -26.2764   23.3364 H   0  0  0  0  0  0
  -21.6408  -26.7613   22.0661 H   0  0  0  0  0  0
  -19.6757  -25.6386   21.1265 H   0  0  0  0  0  0
  -19.6299  -27.3218   20.6531 H   0  0  0  0  0  0
  -17.4028  -26.6637   21.4247 H   0  0  0  0  0  0
  -18.0433  -26.0173   22.9195 H   0  0  0  0  0  0
  -19.7733  -30.7437   24.2338 H   0  0  0  0  0  0
  -17.4766  -31.6300   24.5244 H   0  0  0  0  0  0
  -15.5182  -30.2892   23.7730 H   0  0  0  0  0  0
  -15.8604  -28.0750   22.7177 H   0  0  0  0  0  0
  -25.9163  -30.7137   26.9798 H   0  0  0  0  0  0
  -24.7749  -31.1124   25.7170 H   0  0  0  0  0  0
  -25.7744  -32.2483   26.3370 H   0  0  0  0  0  0
  -27.8612  -26.8718   24.0910 H   0  0  0  0  0  0
  -28.0662  -27.0523   25.7535 H   0  0  0  0  0  0
  -29.1098  -27.4416   24.8516 H   0  0  0  0  0  0
  -27.5516  -32.9510   25.7136 H   0  0  0  0  0  0
  -28.6906  -32.2088   24.6864 H   0  0  0  0  0  0
  -28.4729  -31.6958   26.3417 H   0  0  0  0  0  0
  -28.1987  -37.9699   24.7305 H   0  0  0  0  0  0
  -28.1416  -36.2078   24.6537 H   0  0  0  0  0  0
  -27.2299  -37.0738   25.9022 H   0  0  0  0  0  0
  -20.8219  -30.2179   21.9903 H   0  0  0  0  0  0
  -25.9362  -38.0875   24.1483 H   0  0  0  0  0  0
  -30.0146  -29.9149   24.9911 H   0  0  0  0  0  0
  -28.2431  -29.5050   27.2738 H   0  0  0  0  0  0
  -26.0968  -28.8439   22.5106 H   0  0  0  0  0  0
  -22.5661  -29.1834   26.2546 H   0  0  0  0  0  0
  -24.0994  -29.4923   27.0153 H   0  0  0  0  0  0
  -23.5965  -27.8558   26.6968 H   0  0  0  0  0  0
  -31.7552  -19.4325   19.9686 H   0  0  0  0  0  0
  -30.6320  -18.6515   18.8711 H   0  0  0  0  0  0
  -32.0574  -17.8070   19.4383 H   0  0  0  0  0  0
  -30.3244  -27.6680   22.7976 H   0  0  0  0  0  0
  -29.4346  -27.6303   21.3942 H   0  0  0  0  0  0
  -24.7971  -26.6028   25.4284 H   0  0  0  0  0  0
  -26.2711  -26.1602   25.6249 H   0  0  0  0  0  0
  -23.6542  -28.0335   24.5182 H   0  0  0  0  0  0
  -23.7821  -29.8003   24.4139 H   0  0  0  0  0  0
  -29.0065  -25.1381   23.5672 H   0  0  0  0  0  0
  -30.5000  -25.2766   22.7886 H   0  0  0  0  0  0
  -29.2741  -23.6153   20.7058 H   0  0  0  0  0  0
  -28.2009  -23.2205   21.9480 H   0  0  0  0  0  0
  -30.2832  -21.2685   22.7779 H   0  0  0  0  0  0
  -30.8926  -21.5216   21.2091 H   0  0  0  0  0  0
  -24.9500  -26.7146   22.7603 H   0  0  0  0  0  0
  -25.8530  -25.3970   23.2928 H   0  0  0  0  0  0
  -31.0614  -17.9876   21.8077 H   0  0  0  0  0  0
  -28.9522  -19.7222   20.4913 H   0  0  0  0  0  0
  -28.9045  -19.3506   22.0320 H   0  0  0  0  0  0
  1 25  1  0  0  0
  1 30  2  0  0  0
  1 86  1  0  0  0
  2  3  1  0  0  0
  2 25  1  0  0  0
  2 88  1  0  0  0
  2 89  1  0  0  0
  3  4  1  0  0  0
  3 90  1  0  0  0
  3 91  1  0  0  0
  4  5  1  0  0  0
  4 92  1  0  0  0
  4 93  1  0  0  0
  5  6  1  0  0  0
  5 26  1  0  0  0
  5 94  1  0  0  0
  6 25  1  0  0  0
  6 95  1  0  0  0
  6 96  1  0  0  0
  7  8  2  0  0  0
  7 26  1  0  0  0
  7 29  1  0  0  0
  8  9  1  0  0  0
  8 22  1  0  0  0
  9 10  1  0  0  0
  9 27  2  0  0  0
 10 11  2  0  0  0
 10 15  1  0  0  0
 11 12  1  0  0  0
 11 97  1  0  0  0
 12 13  2  0  0  0
 12 98  1  0  0  0
 13 14  1  0  0  0
 13 31  1  0  0  0
 14 15  2  0  0  0
 14 99  1  0  0  0
 15100  1  0  0  0
 16 17  2  0  0  0
 16 21  1  0  0  0
 16 31  1  0  0  0
 17 18  1  0  0  0
 17101  1  0  0  0
 18 19  2  0  0  0
 18102  1  0  0  0
 19 20  1  0  0  0
 19 24  1  0  0  0
 20 21  2  0  0  0
 20103  1  0  0  0
 21 23  1  0  0  0
 22 28  1  0  0  0
 22 32  2  0  0  0
 26 27  1  0  0  0
 28104  1  0  0  0
 28105  1  0  0  0
 29106  1  0  0  0
 29107  1  0  0  0
 33 34  1  0  0  0
 33 66  1  0  0  0
 33 70  2  0  0  0
 34 36  1  0  0  0
 34 59  1  0  0  0
 34108  1  0  0  0
 35 44  2  0  0  0
 35 45  1  0  0  0
 35 68  1  0  0  0
 36 56  1  0  0  0
 36109  1  0  0  0
 37 39  1  0  0  0
 37 47  1  0  0  0
 37 66  1  0  0  0
 37110  1  0  0  0
 38 43  2  0  0  0
 38 46  1  0  0  0
 38 47  1  0  0  0
 39 64  1  0  0  0
 39 67  2  0  0  0
 40 52  1  0  0  0
 40 53  2  0  0  0
 40 58  1  0  0  0
 41111  1  0  0  0
 41112  1  0  0  0
 41113  1  0  0  0
 41 48  1  0  0  0
 42 43  1  0  0  0
 42 66  1  0  0  0
 42114  1  0  0  0
 42115  1  0  0  0
 43 44  1  0  0  0
 44116  1  0  0  0
 45 46  2  0  0  0
 45117  1  0  0  0
 46118  1  0  0  0
 47119  1  0  0  0
 47120  1  0  0  0
 48 56  1  0  0  0
 48 65  1  0  0  0
 48121  1  0  0  0
 49 50  1  0  0  0
 49 53  1  0  0  0
 49 64  1  0  0  0
 49122  1  0  0  0
 50 51  1  0  0  0
 50123  1  0  0  0
 50124  1  0  0  0
 51 52  1  0  0  0
 51125  1  0  0  0
 51126  1  0  0  0
 52127  1  0  0  0
 52128  1  0  0  0
 53 54  1  0  0  0
 54 55  2  0  0  0
 54129  1  0  0  0
 55 57  1  0  0  0
 55130  1  0  0  0
 56 69  2  0  0  0
 57 58  2  0  0  0
 57131  1  0  0  0
 58132  1  0  0  0
 59 60  1  0  0  0
 59 61  1  0  0  0
 59 62  1  0  0  0
 60133  1  0  0  0
 60134  1  0  0  0
 60135  1  0  0  0
 61136  1  0  0  0
 61137  1  0  0  0
 61138  1  0  0  0
 62139  1  0  0  0
 62140  1  0  0  0
 62141  1  0  0  0
 63 65  1  0  0  0
 63142  1  0  0  0
 63143  1  0  0  0
 63144  1  0  0  0
 64145  1  0  0  0
 65146  1  0  0  0
 68 85  1  0  0  0
 71 72  2  0  0  0
 71 74  1  0  0  0
 71147  1  0  0  0
 72 75  1  0  0  0
 72148  1  0  0  0
 73 74  2  0  0  0
 73 76  1  0  0  0
 73149  1  0  0  0
 74 79  1  0  0  0
 75 76  2  0  0  0
 75 80  1  0  0  0
 76 81  1  0  0  0
 77 81  1  0  0  0
 77150  1  0  0  0
 77151  1  0  0  0
 77152  1  0  0  0
 78153  1  0  0  0
 78154  1  0  0  0
 78155  1  0  0  0
 78 86  1  0  0  0
 79 82  1  0  0  0
 79156  1  0  0  0
 79157  1  0  0  0
 80 85  1  0  0  0
 80158  1  0  0  0
 80159  1  0  0  0
 81160  1  0  0  0
 81161  1  0  0  0
 82 83  1  0  0  0
 82162  1  0  0  0
 82163  1  0  0  0
 83 84  1  0  0  0
 83164  1  0  0  0
 83165  1  0  0  0
 84 87  1  0  0  0
 84166  1  0  0  0
 84167  1  0  0  0
 85168  1  0  0  0
 85169  1  0  0  0
 86 87  1  0  0  0
 86170  1  0  0  0
 87171  1  0  0  0
 87172  1  0  0  0
M  CHG  1  87   1
M  ISO  4   1 100  68 101  85 101  86 100
M  END
> <chiral flag>
0

> <version>
0

> <s_m_source_file>
/data/baiqing/PycharmProjects/Reinvent-master-3.2/result/LINK_invent/BTK/process_docking_weight1_custom_sum_contain_oxygen_bond_distance_aromatic_linkinvent_7_9_3/rearranged_h_0036.sdf

> <i_m_source_file_index>
17

> <r_mmod_Potential_Energy-OPLS-2005>
15522.8974609375

> <r_mmod_Stretch_Energy-OPLS-2005>
8127.0849609375

> <r_mmod_Bend_Energy-OPLS-2005>
2059.46142578125

> <r_mmod_Torsional_Energy-OPLS-2005>
656.23291015625

> <r_mmod_Improper_Torsional_Energy-OPLS-2005>
74.2107315063477

> <r_mmod_Van_der_Waal_Energy-OPLS-2005>
2626.50830078125

> <r_mmod_Electrostatic_Energy-OPLS-2005>
-275.334808349609

> <r_mmod_Solvation_Energy-OPLS-2005>
-431.439514160156

> <b_mmod_Minimization_Converged-OPLS-2005>
0

> <r_mmod_RMS_Derivative-OPLS-2005>
8.39385604858398

$$$$
17
                    3D
 Structure written by MMmdl.
174182  0  0  1  0            999 V2000
  -30.7708  -14.4844   19.4386 C   0  0  0  0  0  0
  -30.7789  -12.2046   19.8404 C   0  0  0  0  0  0
  -29.9260  -11.8080   18.6818 C   0  0  0  0  0  0
  -28.5158  -12.1277   19.1209 C   0  0  0  0  0  0
  -28.0333  -13.5896   19.7585 C   0  0  2  0  0  0
  -29.0914  -13.6911   20.9411 C   0  0  0  0  0  0
  -24.8445  -14.8161   19.7645 C   0  0  0  0  0  0
  -23.8367  -13.8581   20.7830 C   0  0  0  0  0  0
  -24.7076  -12.5777   21.5135 C   0  0  0  0  0  0
  -23.8908  -11.0247   21.5211 C   0  0  0  0  0  0
  -24.1808   -9.8651   22.3548 C   0  0  0  0  0  0
  -23.5823   -8.5560   22.3032 C   0  0  0  0  0  0
  -22.5254   -8.2506   21.4216 C   0  0  0  0  0  0
  -22.2323   -9.2897   20.5021 C   0  0  0  0  0  0
  -22.9014  -10.5753   20.5355 C   0  0  0  0  0  0
  -21.7562   -6.1650   22.4924 C   0  0  0  0  0  0
  -21.4412   -6.6190   23.7964 C   0  0  0  0  0  0
  -21.3689   -5.7154   24.8794 C   0  0  0  0  0  0
  -21.5961   -4.3427   24.6781 C   0  0  0  0  0  0
  -21.8745   -3.8711   23.3829 C   0  0  0  0  0  0
  -21.9428   -4.7708   22.3002 C   0  0  0  0  0  0
  -22.4281  -13.9420   21.0846 C   0  0  0  0  0  0
  -22.1859   -4.2749   21.0628 F   0  0  0  0  0  0
  -21.5461   -3.4829   25.7250 F   0  0  0  0  0  0
  -30.3427  -13.5233   20.2451 N   0  0  0  0  0  0
  -26.6559  -14.3078   19.6868 N   0  0  0  0  0  0
  -26.8075  -13.0637   20.7006 N   0  0  0  0  0  0
  -21.8952  -13.0792   21.9555 N   0  0  0  0  0  0
  -24.6872  -16.0464   19.3073 N   0  0  0  0  0  0
  -31.8021  -15.0548   19.7820 O   0  0  0  0  0  0
  -21.8272   -7.0323   21.4033 O   0  0  0  0  0  0
  -21.8060  -14.8274   20.5469 O   0  0  0  0  0  0
  -24.7426  -31.7067   23.1076 C   0  0  0  0  0  0
  -25.9719  -32.3973   23.7781 C   0  0  1  0  0  0
  -26.6085  -25.6862   20.5636 C   0  0  0  0  0  0
  -25.6050  -33.7874   24.1536 N   0  0  0  0  0  0
  -23.5764  -30.3089   21.4750 C   0  0  2  0  0  0
  -24.9369  -28.4586   20.1448 C   0  0  0  0  0  0
  -22.7888  -29.3882   22.4502 C   0  0  0  0  0  0
  -18.0364  -28.1429   22.8446 C   0  0  0  0  0  0
  -24.1500  -36.6915   23.2674 C   0  0  0  0  0  0
  -26.1469  -30.0816   21.5368 C   0  0  0  0  0  0
  -26.0766  -28.5474   20.9388 C   0  0  0  0  0  0
  -26.8971  -27.2081   21.0905 C   0  0  0  0  0  0
  -25.6374  -26.0662   19.5689 C   0  0  0  0  0  0
  -24.8366  -27.2675   19.4028 C   0  0  0  0  0  0
  -23.8570  -29.5803   20.1175 C   0  0  0  0  0  0
  -25.4184  -36.2611   24.0232 C   0  0  1  0  0  0
  -20.5995  -28.3789   23.1040 C   0  0  2  0  0  0
  -20.6772  -26.9403   22.5406 C   0  0  0  0  0  0
  -19.5753  -26.6343   21.5213 C   0  0  0  0  0  0
  -18.1949  -26.7951   22.1621 C   0  0  0  0  0  0
  -19.1638  -28.8950   23.2720 C   0  0  0  0  0  0
  -18.9554  -30.1524   23.8786 C   0  0  0  0  0  0
  -17.6543  -30.6607   24.0546 C   0  0  0  0  0  0
  -25.9219  -34.9020   23.4770 C   0  0  0  0  0  0
  -16.5426  -29.9086   23.6358 C   0  0  0  0  0  0
  -16.7350  -28.6504   23.0386 C   0  0  0  0  0  0
  -26.4706  -31.6429   25.0743 C   0  0  0  0  0  0
  -25.3611  -31.3971   26.1253 C   0  0  0  0  0  0
  -27.0803  -30.2716   24.7266 C   0  0  0  0  0  0
  -27.5989  -32.4529   25.7574 C   0  0  0  0  0  0
  -27.5533  -37.1612   24.8469 C   0  0  0  0  0  0
  -21.4500  -29.2920   22.3254 N   0  0  0  0  0  0
  -26.4224  -37.3475   23.9425 N   0  0  0  0  0  0
  -24.8634  -30.7655   22.0847 N   0  0  0  0  0  0
  -23.4051  -28.7591   23.3141 O   0  0  0  0  0  0
  -27.0360  -23.9546   20.7729 O   0  0  0  0  0  0
  -26.5960  -34.8739   22.4457 O   0  0  0  0  0  0
  -23.6338  -32.0641   23.5545 O   0  0  0  0  0  0
  -26.4170  -13.4913   22.9601 C   0  0  0  0  0  0
  -25.1756  -12.6336   19.4101 C   0  0  0  0  0  0
  -25.7723  -14.6030   21.7696 C   0  0  0  0  0  0
  -26.7310  -11.7780   22.6593 C   0  0  0  0  0  0
  -25.8287  -11.2115   19.6524 C   0  0  0  0  0  0
  -26.5235  -10.7908   21.1945 C   0  0  0  0  0  0
  -28.9641  -10.9346   23.6500 C   0  0  0  0  0  0
  -26.5028   -8.3510   20.2958 C   0  0  0  0  0  0
  -25.8426  -16.9623   21.7534 C   0  0  0  0  0  0
  -27.4420  -11.1018   23.8323 C   0  0  0  0  0  0
  -26.1431  -10.9499   18.0769 C   0  0  0  0  0  0
  -27.1523   -9.3845   21.2294 C   0  0  0  0  0  0
  -26.5044  -19.3116   21.1629 C   0  0  0  0  0  0
  -26.5994  -12.2643   17.0076 C   0  0  0  0  0  0
  -28.0856  -13.0097   16.5799 C   0  0  0  0  0  0
  -28.9863  -14.3359   17.1768 C   0  0  0  0  0  0
  -26.4057  -21.8247   21.0475 C   0  0  0  0  0  0
  -30.3136  -14.4601   18.0790 N   0  0  0  0  0  0
  -31.8409  -12.1827   19.5789 H   0  0  0  0  0  0
  -30.6594  -11.5223   20.6849 H   0  0  0  0  0  0
  -30.0417  -10.7246   18.5952 H   0  0  0  0  0  0
  -30.2896  -12.1371   17.7117 H   0  0  0  0  0  0
  -28.4442  -11.4092   19.9254 H   0  0  0  0  0  0
  -28.2003  -11.5698   18.3302 H   0  0  0  0  0  0
  -28.3501  -14.4902   19.3169 H   0  0  0  0  0  0
  -29.0160  -12.9411   21.7248 H   0  0  0  0  0  0
  -29.0489  -14.6696   21.4239 H   0  0  0  0  0  0
  -24.9172   -9.9856   23.1297 H   0  0  0  0  0  0
  -23.9103   -7.8198   23.0235 H   0  0  0  0  0  0
  -21.4992   -9.1036   19.7307 H   0  0  0  0  0  0
  -22.6327  -11.2770   19.7579 H   0  0  0  0  0  0
  -21.2656   -7.6714   23.9731 H   0  0  0  0  0  0
  -21.1442   -6.0772   25.8717 H   0  0  0  0  0  0
  -22.0374   -2.8178   23.2119 H   0  0  0  0  0  0
  -22.4496  -12.3373   22.3595 H   0  0  0  0  0  0
  -20.9115  -13.1184   22.1747 H   0  0  0  0  0  0
  -23.8180  -16.5591   19.3934 H   0  0  0  0  0  0
  -25.4469  -16.5959   18.9248 H   0  0  0  0  0  0
  -26.7825  -32.4205   23.0485 H   0  0  0  0  0  0
  -25.0000  -33.8811   24.9560 H   0  0  0  0  0  0
  -22.9524  -31.1761   21.2529 H   0  0  0  0  0  0
  -23.3830  -35.9168   23.3190 H   0  0  0  0  0  0
  -24.3538  -36.8764   22.2115 H   0  0  0  0  0  0
  -23.7189  -37.5992   23.6902 H   0  0  0  0  0  0
  -26.4783  -30.7134   20.7119 H   0  0  0  0  0  0
  -26.9776  -30.1274   22.2233 H   0  0  0  0  0  0
  -27.7160  -27.2787   21.7918 H   0  0  0  0  0  0
  -25.3157  -25.2469   18.9419 H   0  0  0  0  0  0
  -24.0308  -27.2031   18.6857 H   0  0  0  0  0  0
  -24.1751  -30.3154   19.3775 H   0  0  0  0  0  0
  -22.9280  -29.1627   19.7284 H   0  0  0  0  0  0
  -25.1421  -36.1254   25.0716 H   0  0  0  0  0  0
  -21.0074  -28.3463   24.1171 H   0  0  0  0  0  0
  -20.5559  -26.2441   23.3719 H   0  0  0  0  0  0
  -21.6635  -26.7249   22.1274 H   0  0  0  0  0  0
  -19.6881  -25.6227   21.1303 H   0  0  0  0  0  0
  -19.6695  -27.3102   20.6701 H   0  0  0  0  0  0
  -17.4214  -26.6732   21.4022 H   0  0  0  0  0  0
  -18.0316  -26.0108   22.9026 H   0  0  0  0  0  0
  -19.8046  -30.7354   24.2092 H   0  0  0  0  0  0
  -17.5114  -31.6274   24.5174 H   0  0  0  0  0  0
  -15.5424  -30.2964   23.7736 H   0  0  0  0  0  0
  -15.8758  -28.0780   22.7164 H   0  0  0  0  0  0
  -24.5818  -30.7288   25.7571 H   0  0  0  0  0  0
  -24.8808  -32.3275   26.4292 H   0  0  0  0  0  0
  -25.7664  -30.9392   27.0286 H   0  0  0  0  0  0
  -26.3560  -29.5955   24.2726 H   0  0  0  0  0  0
  -27.4327  -29.7639   25.6252 H   0  0  0  0  0  0
  -27.9527  -30.3701   24.0808 H   0  0  0  0  0  0
  -27.2391  -33.3987   26.1642 H   0  0  0  0  0  0
  -28.4052  -32.6854   25.0601 H   0  0  0  0  0  0
  -28.0378  -31.9046   26.5921 H   0  0  0  0  0  0
  -28.2443  -38.0006   24.7571 H   0  0  0  0  0  0
  -28.1134  -36.2516   24.6238 H   0  0  0  0  0  0
  -27.2236  -37.1142   25.8864 H   0  0  0  0  0  0
  -20.9917  -29.8532   21.6208 H   0  0  0  0  0  0
  -25.9967  -38.2465   24.1511 H   0  0  0  0  0  0
  -26.7490  -13.9019   23.9009 H   0  0  0  0  0  0
  -24.6880  -12.8753   18.4768 H   0  0  0  0  0  0
  -29.3699  -10.2939   24.4314 H   0  0  0  0  0  0
  -29.4885  -11.8875   23.7147 H   0  0  0  0  0  0
  -29.2344  -10.4838   22.6966 H   0  0  0  0  0  0
  -26.8064   -7.3410   20.5695 H   0  0  0  0  0  0
  -26.8019   -8.4917   19.2631 H   0  0  0  0  0  0
  -25.4165   -8.3897   20.3344 H   0  0  0  0  0  0
  -25.9436  -17.0595   22.8363 H   0  0  0  0  0  0
  -24.7716  -17.1012   21.6190 H   0  0  0  0  0  0
  -26.9869  -10.1365   24.0463 H   0  0  0  0  0  0
  -27.2844  -11.6955   24.7339 H   0  0  0  0  0  0
  -25.1863  -10.5899   17.6966 H   0  0  0  0  0  0
  -26.8056  -10.1015   17.9232 H   0  0  0  0  0  0
  -27.1019   -8.9757   22.2337 H   0  0  0  0  0  0
  -28.2130   -9.4505   20.9894 H   0  0  0  0  0  0
  -26.5028  -19.1555   20.0843 H   0  0  0  0  0  0
  -27.5608  -19.2251   21.4271 H   0  0  0  0  0  0
  -25.8616  -13.0595   16.9357 H   0  0  0  0  0  0
  -26.3959  -11.7447   16.0711 H   0  0  0  0  0  0
  -27.7898  -13.4153   15.6096 H   0  0  0  0  0  0
  -28.7680  -12.2261   16.2577 H   0  0  0  0  0  0
  -28.2977  -15.1463   17.4187 H   0  0  0  0  0  0
  -29.4191  -14.7213   16.2521 H   0  0  0  0  0  0
  -25.9634  -21.9856   22.0285 H   0  0  0  0  0  0
  -25.5620  -21.8852   20.3619 H   0  0  0  0  0  0
  -31.0671  -14.8186   17.5121 H   0  0  0  0  0  0
  1 25  1  0  0  0
  1 30  2  0  0  0
  1 88  1  0  0  0
  2  3  1  0  0  0
  2 25  1  0  0  0
  2 89  1  0  0  0
  2 90  1  0  0  0
  3  4  1  0  0  0
  3 91  1  0  0  0
  3 92  1  0  0  0
  4  5  1  0  0  0
  4 93  1  0  0  0
  4 94  1  0  0  0
  5  6  1  0  0  0
  5 26  1  0  0  0
  5 95  1  0  0  0
  6 25  1  0  0  0
  6 96  1  0  0  0
  6 97  1  0  0  0
  7  8  2  0  0  0
  7 26  1  0  0  0
  7 29  1  0  0  0
  8  9  1  0  0  0
  8 22  1  0  0  0
  9 10  1  0  0  0
  9 27  2  0  0  0
 10 11  2  0  0  0
 10 15  1  0  0  0
 11 12  1  0  0  0
 11 98  1  0  0  0
 12 13  2  0  0  0
 12 99  1  0  0  0
 13 14  1  0  0  0
 13 31  1  0  0  0
 14 15  2  0  0  0
 14100  1  0  0  0
 15101  1  0  0  0
 16 17  2  0  0  0
 16 21  1  0  0  0
 16 31  1  0  0  0
 17 18  1  0  0  0
 17102  1  0  0  0
 18 19  2  0  0  0
 18103  1  0  0  0
 19 20  1  0  0  0
 19 24  1  0  0  0
 20 21  2  0  0  0
 20104  1  0  0  0
 21 23  1  0  0  0
 22 28  1  0  0  0
 22 32  2  0  0  0
 26 27  1  0  0  0
 28105  1  0  0  0
 28106  1  0  0  0
 29107  1  0  0  0
 29108  1  0  0  0
 33 34  1  0  0  0
 33 66  1  0  0  0
 33 70  2  0  0  0
 34 36  1  0  0  0
 34 59  1  0  0  0
 34109  1  0  0  0
 35 44  2  0  0  0
 35 45  1  0  0  0
 35 68  1  0  0  0
 36 56  1  0  0  0
 36110  1  0  0  0
 37 39  1  0  0  0
 37 47  1  0  0  0
 37 66  1  0  0  0
 37111  1  0  0  0
 38 43  2  0  0  0
 38 46  1  0  0  0
 38 47  1  0  0  0
 39 64  1  0  0  0
 39 67  2  0  0  0
 40 52  1  0  0  0
 40 53  2  0  0  0
 40 58  1  0  0  0
 41112  1  0  0  0
 41113  1  0  0  0
 41114  1  0  0  0
 41 48  1  0  0  0
 42 43  1  0  0  0
 42 66  1  0  0  0
 42115  1  0  0  0
 42116  1  0  0  0
 43 44  1  0  0  0
 44117  1  0  0  0
 45 46  2  0  0  0
 45118  1  0  0  0
 46119  1  0  0  0
 47120  1  0  0  0
 47121  1  0  0  0
 48 56  1  0  0  0
 48 65  1  0  0  0
 48122  1  0  0  0
 49 50  1  0  0  0
 49 53  1  0  0  0
 49 64  1  0  0  0
 49123  1  0  0  0
 50 51  1  0  0  0
 50124  1  0  0  0
 50125  1  0  0  0
 51 52  1  0  0  0
 51126  1  0  0  0
 51127  1  0  0  0
 52128  1  0  0  0
 52129  1  0  0  0
 53 54  1  0  0  0
 54 55  2  0  0  0
 54130  1  0  0  0
 55 57  1  0  0  0
 55131  1  0  0  0
 56 69  2  0  0  0
 57 58  2  0  0  0
 57132  1  0  0  0
 58133  1  0  0  0
 59 60  1  0  0  0
 59 61  1  0  0  0
 59 62  1  0  0  0
 60134  1  0  0  0
 60135  1  0  0  0
 60136  1  0  0  0
 61137  1  0  0  0
 61138  1  0  0  0
 61139  1  0  0  0
 62140  1  0  0  0
 62141  1  0  0  0
 62142  1  0  0  0
 63 65  1  0  0  0
 63143  1  0  0  0
 63144  1  0  0  0
 63145  1  0  0  0
 64146  1  0  0  0
 65147  1  0  0  0
 68 87  1  0  0  0
 71 73  2  0  0  0
 71 74  1  0  0  0
 71148  1  0  0  0
 72 73  1  0  0  0
 72 75  2  0  0  0
 72149  1  0  0  0
 73 79  1  0  0  0
 74 76  2  0  0  0
 74 80  1  0  0  0
 75 76  1  0  0  0
 75 81  1  0  0  0
 76 82  1  0  0  0
 77 80  1  0  0  0
 77150  1  0  0  0
 77151  1  0  0  0
 77152  1  0  0  0
 78 82  1  0  0  0
 78153  1  0  0  0
 78154  1  0  0  0
 78155  1  0  0  0
 79 83  1  0  0  0
 79156  1  0  0  0
 79157  1  0  0  0
 80158  1  0  0  0
 80159  1  0  0  0
 81 84  1  0  0  0
 81160  1  0  0  0
 81161  1  0  0  0
 82162  1  0  0  0
 82163  1  0  0  0
 83 87  1  0  0  0
 83164  1  0  0  0
 83165  1  0  0  0
 84 85  1  0  0  0
 84166  1  0  0  0
 84167  1  0  0  0
 85 86  1  0  0  0
 85168  1  0  0  0
 85169  1  0  0  0
 86 88  1  0  0  0
 86170  1  0  0  0
 86171  1  0  0  0
 87172  1  0  0  0
 87173  1  0  0  0
 88174  1  0  0  0
M  ISO  4   1 100  68 101  87 101  88 100
M  END
> <chiral flag>
0

> <version>
0

> <s_m_source_file>
/data/baiqing/PycharmProjects/Reinvent-master-3.2/result/LINK_invent/BTK/process_docking_weight1_custom_sum_contain_oxygen_bond_distance_aromatic_linkinvent_7_9_3/rearranged_h_0036.sdf

> <i_m_source_file_index>
18

> <r_mmod_Potential_Energy-OPLS-2005>
25308.4921875

> <r_mmod_Stretch_Energy-OPLS-2005>
14739.0166015625

> <r_mmod_Bend_Energy-OPLS-2005>
2245.0009765625

> <r_mmod_Torsional_Energy-OPLS-2005>
479.83544921875

> <r_mmod_Improper_Torsional_Energy-OPLS-2005>
53.553840637207

> <r_mmod_Van_der_Waal_Energy-OPLS-2005>
4416.57177734375

> <r_mmod_Electrostatic_Energy-OPLS-2005>
-368.446136474609

> <r_mmod_Solvation_Energy-OPLS-2005>
-202.745986938477

> <b_mmod_Minimization_Converged-OPLS-2005>
0

> <r_mmod_RMS_Derivative-OPLS-2005>
12.5777740478516

$$$$
18
                    3D
 Structure written by MMmdl.
159167  0  0  1  0            999 V2000
  -30.5957  -14.8031   20.3330 C   0  0  0  0  0  0
  -30.4393  -12.4605   19.4677 C   0  0  0  0  0  0
  -29.5046  -12.3844   18.2390 C   0  0  0  0  0  0
  -28.0276  -12.2661   18.6645 C   0  0  0  0  0  0
  -27.6335  -13.2121   19.8309 C   0  0  2  0  0  0
  -28.6907  -13.2321   20.9518 C   0  0  0  0  0  0
  -25.2516  -13.8101   20.5836 C   0  0  0  0  0  0
  -24.1774  -13.0371   20.9227 C   0  0  0  0  0  0
  -24.6357  -11.6860   20.8770 C   0  0  0  0  0  0
  -23.9044  -10.4251   21.0412 C   0  0  0  0  0  0
  -24.3600   -9.4172   21.9190 C   0  0  0  0  0  0
  -23.6276   -8.2210   22.0753 C   0  0  0  0  0  0
  -22.4262   -8.0259   21.3536 C   0  0  0  0  0  0
  -21.9895   -9.0231   20.4640 C   0  0  0  0  0  0
  -22.7219  -10.2109   20.3055 C   0  0  0  0  0  0
  -21.6848   -6.0726   22.5283 C   0  0  0  0  0  0
  -21.4014   -6.5638   23.8214 C   0  0  0  0  0  0
  -21.3653   -5.6790   24.9178 C   0  0  0  0  0  0
  -21.6038   -4.3052   24.7230 C   0  0  0  0  0  0
  -21.8824   -3.8145   23.4354 C   0  0  0  0  0  0
  -21.9194   -4.6956   22.3407 C   0  0  0  0  0  0
  -22.7807  -13.5190   21.1862 C   0  0  0  0  0  0
  -22.1667   -4.2144   21.0981 F   0  0  0  0  0  0
  -21.5615   -3.4532   25.7742 F   0  0  0  0  0  0
  -29.9702  -13.5727   20.3210 N   0  0  0  0  0  0
  -26.2920  -12.9305   20.3312 N   0  0  0  0  0  0
  -25.9284  -11.6469   20.5802 N   0  0  0  0  0  0
  -22.0443  -12.8203   22.0427 N   0  0  0  0  0  0
  -25.4206  -15.1813   20.4516 N   0  0  0  0  0  0
  -31.8288  -14.8445   20.3128 O   0  0  0  0  0  0
  -21.6625   -6.8861   21.4239 O   0  0  0  0  0  0
  -22.3516  -14.5504   20.6701 O   0  0  0  0  0  0
  -24.6314  -31.8548   23.2000 C   0  0  0  0  0  0
  -25.9136  -32.4756   23.8338 C   0  0  1  0  0  0
  -27.2217  -27.2612   20.1217 C   0  0  0  0  0  0
  -25.5935  -33.8563   24.2266 N   0  0  0  0  0  0
  -23.4292  -30.4775   21.5436 C   0  0  2  0  0  0
  -24.8771  -28.9278   20.1091 C   0  0  0  0  0  0
  -22.7509  -29.4593   22.4919 C   0  0  0  0  0  0
  -18.0288  -28.1385   22.8479 C   0  0  0  0  0  0
  -24.1490  -36.7282   23.2639 C   0  0  0  0  0  0
  -25.9768  -30.7656   21.3822 C   0  0  0  0  0  0
  -26.0492  -29.3899   20.7209 C   0  0  0  0  0  0
  -27.2238  -28.5694   20.7162 C   0  0  0  0  0  0
  -26.0264  -26.8747   19.4718 C   0  0  0  0  0  0
  -24.8712  -27.6783   19.4734 C   0  0  0  0  0  0
  -23.6476  -29.8136   20.1591 C   0  0  0  0  0  0
  -25.4116  -36.3078   24.0328 C   0  0  1  0  0  0
  -20.5889  -28.3698   23.1274 C   0  0  2  0  0  0
  -20.6776  -26.9415   22.5413 C   0  0  0  0  0  0
  -19.5755  -26.6379   21.5215 C   0  0  0  0  0  0
  -18.1935  -26.7925   22.1623 C   0  0  0  0  0  0
  -19.1540  -28.8860   23.2870 C   0  0  0  0  0  0
  -18.9461  -30.1456   23.8893 C   0  0  0  0  0  0
  -17.6460  -30.6585   24.0561 C   0  0  0  0  0  0
  -25.9056  -34.9443   23.5101 C   0  0  0  0  0  0
  -16.5351  -29.9084   23.6324 C   0  0  0  0  0  0
  -16.7276  -28.6501   23.0348 C   0  0  0  0  0  0
  -26.4501  -31.6587   25.0731 C   0  0  0  0  0  0
  -25.3722  -31.3740   26.1453 C   0  0  0  0  0  0
  -27.0351  -30.2999   24.6232 C   0  0  0  0  0  0
  -27.6050  -32.4334   25.7503 C   0  0  0  0  0  0
  -27.5580  -37.1798   24.8464 C   0  0  0  0  0  0
  -21.4213  -29.3045   22.3667 N   0  0  0  0  0  0
  -26.4292  -37.3775   23.9405 N   0  0  0  0  0  0
  -24.6982  -31.0504   22.0979 N   0  0  0  0  0  0
  -23.4206  -28.8121   23.3014 O   0  0  0  0  0  0
  -28.3123  -26.3582   20.1917 O   0  0  0  0  0  0
  -26.5629  -34.8916   22.4671 O   0  0  0  0  0  0
  -23.5458  -32.1382   23.7281 O   0  0  0  0  0  0
  -30.2008  -18.3123   20.5580 C   0  0  0  0  0  0
  -29.5072  -17.2218   20.0310 C   0  0  0  0  0  0
  -28.3166  -17.8569   19.5320 C   0  0  0  0  0  0
  -27.2419  -17.7206   17.2451 C   0  0  0  0  0  0
  -30.1047  -15.7533   18.2006 C   0  0  0  0  0  0
  -27.1890  -17.2845   18.7152 C   0  0  0  0  0  0
  -28.7599  -22.1622   20.1305 C   0  0  0  0  0  0
  -29.0892  -23.7267   20.4378 C   0  0  0  0  0  0
  -29.7187  -20.9754   20.6882 C   0  0  0  0  0  0
  -28.0683  -24.8895   19.9608 C   0  0  0  0  0  0
  -28.2648  -19.1666   19.7921 N   0  0  0  0  0  0
  -29.4371  -19.5069   20.3700 N   0  0  0  0  0  0
  -29.9189  -15.8323   19.6611 N   0  0  0  0  0  0
  -31.4715  -12.6050   19.1445 H   0  0  0  0  0  0
  -30.4213  -11.5219   20.0244 H   0  0  0  0  0  0
  -29.7766  -11.5218   17.6293 H   0  0  0  0  0  0
  -29.6363  -13.2402   17.5857 H   0  0  0  0  0  0
  -27.8717  -11.2311   18.9714 H   0  0  0  0  0  0
  -27.3729  -12.4247   17.8067 H   0  0  0  0  0  0
  -27.6058  -14.2070   19.3997 H   0  0  0  0  0  0
  -28.7493  -12.2695   21.4612 H   0  0  0  0  0  0
  -28.4293  -13.9768   21.7060 H   0  0  0  0  0  0
  -25.2738   -9.5650   22.4776 H   0  0  0  0  0  0
  -23.9971   -7.4600   22.7477 H   0  0  0  0  0  0
  -21.0826   -8.8757   19.8949 H   0  0  0  0  0  0
  -22.3674  -10.9659   19.6181 H   0  0  0  0  0  0
  -21.2021   -7.6149   23.9724 H   0  0  0  0  0  0
  -21.1462   -6.0518   25.9080 H   0  0  0  0  0  0
  -22.0608   -2.7611   23.2854 H   0  0  0  0  0  0
  -22.4048  -11.9856   22.4804 H   0  0  0  0  0  0
  -21.1067  -13.1235   22.2630 H   0  0  0  0  0  0
  -24.6620  -15.8358   20.6077 H   0  0  0  0  0  0
  -26.3046  -15.6293   20.2590 H   0  0  0  0  0  0
  -26.7198  -32.5403   23.1072 H   0  0  0  0  0  0
  -25.0084  -33.9701   25.0412 H   0  0  0  0  0  0
  -22.7259  -31.2999   21.3980 H   0  0  0  0  0  0
  -23.3759  -35.9609   23.3306 H   0  0  0  0  0  0
  -24.3580  -36.8899   22.2053 H   0  0  0  0  0  0
  -23.7233  -37.6479   23.6659 H   0  0  0  0  0  0
  -26.1198  -31.5282   20.6152 H   0  0  0  0  0  0
  -26.8527  -30.8112   22.0182 H   0  0  0  0  0  0
  -28.1204  -28.9174   21.2096 H   0  0  0  0  0  0
  -25.9514  -25.9243   18.9652 H   0  0  0  0  0  0
  -23.9754  -27.3223   18.9828 H   0  0  0  0  0  0
  -23.7736  -30.5916   19.4055 H   0  0  0  0  0  0
  -22.7665  -29.2469   19.8527 H   0  0  0  0  0  0
  -25.1294  -36.1931   25.0819 H   0  0  0  0  0  0
  -20.9975  -28.3274   24.1398 H   0  0  0  0  0  0
  -20.5677  -26.2309   23.3617 H   0  0  0  0  0  0
  -21.6646  -26.7438   22.1208 H   0  0  0  0  0  0
  -19.6923  -25.6290   21.1248 H   0  0  0  0  0  0
  -19.6694  -27.3188   20.6742 H   0  0  0  0  0  0
  -17.4203  -26.6665   21.4026 H   0  0  0  0  0  0
  -18.0338  -26.0070   22.9023 H   0  0  0  0  0  0
  -19.7936  -30.7269   24.2271 H   0  0  0  0  0  0
  -17.5013  -31.6267   24.5163 H   0  0  0  0  0  0
  -15.5352  -30.2986   23.7652 H   0  0  0  0  0  0
  -15.8672  -28.0821   22.7066 H   0  0  0  0  0  0
  -24.5889  -30.7102   25.7780 H   0  0  0  0  0  0
  -24.8926  -32.2916   26.4874 H   0  0  0  0  0  0
  -25.8033  -30.8914   27.0234 H   0  0  0  0  0  0
  -26.2954  -29.6752   24.1217 H   0  0  0  0  0  0
  -27.3984  -29.7253   25.4761 H   0  0  0  0  0  0
  -27.8851  -30.4267   23.9522 H   0  0  0  0  0  0
  -27.2647  -33.3625   26.2086 H   0  0  0  0  0  0
  -28.3852  -32.6915   25.0331 H   0  0  0  0  0  0
  -28.0735  -31.8466   26.5413 H   0  0  0  0  0  0
  -28.2598  -38.0095   24.7507 H   0  0  0  0  0  0
  -28.1072  -36.2623   24.6295 H   0  0  0  0  0  0
  -27.2297  -37.1456   25.8868 H   0  0  0  0  0  0
  -20.9405  -29.8787   21.6884 H   0  0  0  0  0  0
  -26.0174  -38.2849   24.1407 H   0  0  0  0  0  0
  -31.1967  -18.3614   20.9761 H   0  0  0  0  0  0
  -26.4311  -17.2638   16.6782 H   0  0  0  0  0  0
  -28.1790  -17.4248   16.7756 H   0  0  0  0  0  0
  -27.1467  -18.8020   17.1524 H   0  0  0  0  0  0
  -29.1911  -15.3994   17.7248 H   0  0  0  0  0  0
  -30.9195  -15.0960   17.8875 H   0  0  0  0  0  0
  -30.3384  -16.7285   17.7690 H   0  0  0  0  0  0
  -26.2311  -17.5825   19.1430 H   0  0  0  0  0  0
  -27.2121  -16.2012   18.7483 H   0  0  0  0  0  0
  -28.6954  -22.0469   19.0478 H   0  0  0  0  0  0
  -27.7516  -21.9601   20.4931 H   0  0  0  0  0  0
  -30.0672  -23.9479   20.0105 H   0  0  0  0  0  0
  -29.2173  -23.8316   21.5154 H   0  0  0  0  0  0
  -29.7537  -21.0553   21.7749 H   0  0  0  0  0  0
  -30.7360  -21.1771   20.3508 H   0  0  0  0  0  0
  -27.1124  -24.6367   20.4219 H   0  0  0  0  0  0
  -27.9234  -24.7647   18.8867 H   0  0  0  0  0  0
  1 25  1  0  0  0
  1 30  2  0  0  0
  1 83  1  0  0  0
  2  3  1  0  0  0
  2 25  1  0  0  0
  2 84  1  0  0  0
  2 85  1  0  0  0
  3  4  1  0  0  0
  3 86  1  0  0  0
  3 87  1  0  0  0
  4  5  1  0  0  0
  4 88  1  0  0  0
  4 89  1  0  0  0
  5  6  1  0  0  0
  5 26  1  0  0  0
  5 90  1  0  0  0
  6 25  1  0  0  0
  6 91  1  0  0  0
  6 92  1  0  0  0
  7  8  2  0  0  0
  7 26  1  0  0  0
  7 29  1  0  0  0
  8  9  1  0  0  0
  8 22  1  0  0  0
  9 10  1  0  0  0
  9 27  2  0  0  0
 10 11  2  0  0  0
 10 15  1  0  0  0
 11 12  1  0  0  0
 11 93  1  0  0  0
 12 13  2  0  0  0
 12 94  1  0  0  0
 13 14  1  0  0  0
 13 31  1  0  0  0
 14 15  2  0  0  0
 14 95  1  0  0  0
 15 96  1  0  0  0
 16 17  2  0  0  0
 16 21  1  0  0  0
 16 31  1  0  0  0
 17 18  1  0  0  0
 17 97  1  0  0  0
 18 19  2  0  0  0
 18 98  1  0  0  0
 19 20  1  0  0  0
 19 24  1  0  0  0
 20 21  2  0  0  0
 20 99  1  0  0  0
 21 23  1  0  0  0
 22 28  1  0  0  0
 22 32  2  0  0  0
 26 27  1  0  0  0
 28100  1  0  0  0
 28101  1  0  0  0
 29102  1  0  0  0
 29103  1  0  0  0
 33 34  1  0  0  0
 33 66  1  0  0  0
 33 70  2  0  0  0
 34 36  1  0  0  0
 34 59  1  0  0  0
 34104  1  0  0  0
 35 44  2  0  0  0
 35 45  1  0  0  0
 35 68  1  0  0  0
 36 56  1  0  0  0
 36105  1  0  0  0
 37 39  1  0  0  0
 37 47  1  0  0  0
 37 66  1  0  0  0
 37106  1  0  0  0
 38 43  2  0  0  0
 38 46  1  0  0  0
 38 47  1  0  0  0
 39 64  1  0  0  0
 39 67  2  0  0  0
 40 52  1  0  0  0
 40 53  2  0  0  0
 40 58  1  0  0  0
 41107  1  0  0  0
 41108  1  0  0  0
 41109  1  0  0  0
 41 48  1  0  0  0
 42 43  1  0  0  0
 42 66  1  0  0  0
 42110  1  0  0  0
 42111  1  0  0  0
 43 44  1  0  0  0
 44112  1  0  0  0
 45 46  2  0  0  0
 45113  1  0  0  0
 46114  1  0  0  0
 47115  1  0  0  0
 47116  1  0  0  0
 48 56  1  0  0  0
 48 65  1  0  0  0
 48117  1  0  0  0
 49 50  1  0  0  0
 49 53  1  0  0  0
 49 64  1  0  0  0
 49118  1  0  0  0
 50 51  1  0  0  0
 50119  1  0  0  0
 50120  1  0  0  0
 51 52  1  0  0  0
 51121  1  0  0  0
 51122  1  0  0  0
 52123  1  0  0  0
 52124  1  0  0  0
 53 54  1  0  0  0
 54 55  2  0  0  0
 54125  1  0  0  0
 55 57  1  0  0  0
 55126  1  0  0  0
 56 69  2  0  0  0
 57 58  2  0  0  0
 57127  1  0  0  0
 58128  1  0  0  0
 59 60  1  0  0  0
 59 61  1  0  0  0
 59 62  1  0  0  0
 60129  1  0  0  0
 60130  1  0  0  0
 60131  1  0  0  0
 61132  1  0  0  0
 61133  1  0  0  0
 61134  1  0  0  0
 62135  1  0  0  0
 62136  1  0  0  0
 62137  1  0  0  0
 63 65  1  0  0  0
 63138  1  0  0  0
 63139  1  0  0  0
 63140  1  0  0  0
 64141  1  0  0  0
 65142  1  0  0  0
 68 80  1  0  0  0
 71 72  2  0  0  0
 71 82  1  0  0  0
 71143  1  0  0  0
 72 73  1  0  0  0
 72 83  1  0  0  0
 73 76  1  0  0  0
 73 81  2  0  0  0
 74 76  1  0  0  0
 74144  1  0  0  0
 74145  1  0  0  0
 74146  1  0  0  0
 75 83  1  0  0  0
 75147  1  0  0  0
 75148  1  0  0  0
 75149  1  0  0  0
 76150  1  0  0  0
 76151  1  0  0  0
 77 78  1  0  0  0
 77 79  1  0  0  0
 77152  1  0  0  0
 77153  1  0  0  0
 78 80  1  0  0  0
 78154  1  0  0  0
 78155  1  0  0  0
 79 82  1  0  0  0
 79156  1  0  0  0
 79157  1  0  0  0
 80158  1  0  0  0
 80159  1  0  0  0
 81 82  1  0  0  0
M  ISO  4   1 100  68 101  80 101  83 100
M  END
> <chiral flag>
0

> <version>
0

> <s_m_source_file>
/data/baiqing/PycharmProjects/Reinvent-master-3.2/result/LINK_invent/BTK/process_docking_weight1_custom_sum_contain_oxygen_bond_distance_aromatic_linkinvent_7_9_3/rearranged_h_0036.sdf

> <i_m_source_file_index>
19

> <r_mmod_Potential_Energy-OPLS-2005>
389.492279052734

> <r_mmod_Stretch_Energy-OPLS-2005>
126.634391784668

> <r_mmod_Bend_Energy-OPLS-2005>
195.153762817383

> <r_mmod_Torsional_Energy-OPLS-2005>
325.988555908203

> <r_mmod_Improper_Torsional_Energy-OPLS-2005>
33.1435623168945

> <r_mmod_Van_der_Waal_Energy-OPLS-2005>
116.255882263184

> <r_mmod_Electrostatic_Energy-OPLS-2005>
-326.544921875

> <r_mmod_Solvation_Energy-OPLS-2005>
-199.148361206055

> <b_mmod_Minimization_Converged-OPLS-2005>
0

> <r_mmod_RMS_Derivative-OPLS-2005>
1.33536636829376

$$$$
19
                    3D
 Structure written by MMmdl.
168176  0  0  1  0            999 V2000
  -30.7361  -14.5369   20.5556 C   0  0  0  0  0  0
  -30.4155  -12.3403   19.4610 C   0  0  0  0  0  0
  -29.4959  -12.4882   18.2315 C   0  0  0  0  0  0
  -28.0235  -12.3070   18.6454 C   0  0  0  0  0  0
  -27.6444  -13.1819   19.8670 C   0  0  2  0  0  0
  -28.6958  -13.0643   21.0022 C   0  0  0  0  0  0
  -25.2549  -13.8048   20.5712 C   0  0  0  0  0  0
  -24.1806  -13.0367   20.9193 C   0  0  0  0  0  0
  -24.6339  -11.6818   20.8757 C   0  0  0  0  0  0
  -23.9007  -10.4239   21.0408 C   0  0  0  0  0  0
  -24.3579   -9.4166   21.9193 C   0  0  0  0  0  0
  -23.6251   -8.2214   22.0764 C   0  0  0  0  0  0
  -22.4229   -8.0259   21.3548 C   0  0  0  0  0  0
  -21.9848   -9.0222   20.4640 C   0  0  0  0  0  0
  -22.7175  -10.2101   20.3059 C   0  0  0  0  0  0
  -21.6839   -6.0703   22.5267 C   0  0  0  0  0  0
  -21.4009   -6.5616   23.8193 C   0  0  0  0  0  0
  -21.3657   -5.6779   24.9161 C   0  0  0  0  0  0
  -21.6041   -4.3042   24.7217 C   0  0  0  0  0  0
  -21.8832   -3.8132   23.4335 C   0  0  0  0  0  0
  -21.9202   -4.6939   22.3390 C   0  0  0  0  0  0
  -22.7837  -13.5197   21.1829 C   0  0  0  0  0  0
  -22.1662   -4.2122   21.0964 F   0  0  0  0  0  0
  -21.5624   -3.4542   25.7742 F   0  0  0  0  0  0
  -30.0201  -13.3741   20.4385 N   0  0  0  0  0  0
  -26.2937  -12.9167   20.3381 N   0  0  0  0  0  0
  -25.9259  -11.6355   20.5815 N   0  0  0  0  0  0
  -22.0494  -12.8219   22.0413 N   0  0  0  0  0  0
  -25.4227  -15.1769   20.4099 N   0  0  0  0  0  0
  -31.8943  -14.6062   20.1301 O   0  0  0  0  0  0
  -21.6611   -6.8848   21.4235 O   0  0  0  0  0  0
  -22.3557  -14.5512   20.6665 O   0  0  0  0  0  0
  -24.6164  -31.8672   23.2106 C   0  0  0  0  0  0
  -25.9043  -32.4821   23.8407 C   0  0  1  0  0  0
  -27.2584  -27.4268   20.0970 C   0  0  0  0  0  0
  -25.5891  -33.8621   24.2338 N   0  0  0  0  0  0
  -23.4075  -30.4873   21.5520 C   0  0  2  0  0  0
  -24.8617  -28.9500   20.1238 C   0  0  0  0  0  0
  -22.7423  -29.4648   22.5013 C   0  0  0  0  0  0
  -18.0272  -28.1375   22.8502 C   0  0  0  0  0  0
  -24.1478  -36.7314   23.2637 C   0  0  0  0  0  0
  -25.9383  -30.8248   21.3718 C   0  0  0  0  0  0
  -26.0209  -29.4549   20.7278 C   0  0  0  0  0  0
  -27.2210  -28.6986   20.7272 C   0  0  0  0  0  0
  -26.0810  -26.9453   19.4903 C   0  0  0  0  0  0
  -24.8851  -27.6879   19.5067 C   0  0  0  0  0  0
  -23.6204  -29.8154   20.1698 C   0  0  0  0  0  0
  -25.4097  -36.3119   24.0345 C   0  0  1  0  0  0
  -20.5865  -28.3663   23.1318 C   0  0  2  0  0  0
  -20.6766  -26.9398   22.5416 C   0  0  0  0  0  0
  -19.5747  -26.6387   21.5212 C   0  0  0  0  0  0
  -18.1922  -26.7921   22.1623 C   0  0  0  0  0  0
  -19.1523  -28.8836   23.2898 C   0  0  0  0  0  0
  -18.9446  -30.1449   23.8904 C   0  0  0  0  0  0
  -17.6453  -30.6580   24.0563 C   0  0  0  0  0  0
  -25.9031  -34.9475   23.5138 C   0  0  0  0  0  0
  -16.5342  -29.9076   23.6332 C   0  0  0  0  0  0
  -16.7265  -28.6492   23.0360 C   0  0  0  0  0  0
  -26.4468  -31.6604   25.0735 C   0  0  0  0  0  0
  -25.3736  -31.3696   26.1484 C   0  0  0  0  0  0
  -27.0308  -30.3050   24.6118 C   0  0  0  0  0  0
  -27.6047  -32.4321   25.7493 C   0  0  0  0  0  0
  -27.5586  -37.1799   24.8460 C   0  0  0  0  0  0
  -21.4150  -29.3020   22.3727 N   0  0  0  0  0  0
  -26.4285  -37.3805   23.9425 N   0  0  0  0  0  0
  -24.6720  -31.0747   22.1026 N   0  0  0  0  0  0
  -23.4171  -28.8204   23.3081 O   0  0  0  0  0  0
  -28.3634  -26.5984   19.9920 O   0  0  0  0  0  0
  -26.5598  -34.8932   22.4704 O   0  0  0  0  0  0
  -23.5350  -32.1432   23.7485 O   0  0  0  0  0  0
  -30.5239  -21.9551   20.1358 C   0  0  0  0  0  0
  -31.1542  -22.5171   22.4039 C   0  0  0  0  0  0
  -30.9376  -21.5355   21.4164 C   0  0  0  0  0  0
  -30.3746  -23.3293   19.8246 C   0  0  0  0  0  0
  -31.0185  -23.8957   22.1095 C   0  0  0  0  0  0
  -30.6333  -24.3282   20.8069 C   0  0  0  0  0  0
  -30.0049  -23.6933   18.3944 C   0  0  0  0  0  0
  -31.3649  -24.8930   23.2044 C   0  0  0  0  0  0
  -28.9098  -16.1764   20.5055 C   0  0  0  0  0  0
  -31.2565  -20.0611   21.6985 C   0  0  0  0  0  0
  -30.6722  -25.8329   20.4334 C   0  0  0  0  0  0
  -30.0719  -19.2076   22.2082 C   0  0  0  0  0  0
  -30.4088  -17.7372   22.6167 C   0  0  0  0  0  0
  -31.0132  -16.7934   21.5258 C   0  0  0  0  0  0
  -29.4912  -26.7629   20.8473 C   0  0  0  0  0  0
  -30.1520  -15.6574   21.0920 N   0  0  0  0  0  0
  -31.4626  -12.4069   19.1618 H   0  0  0  0  0  0
  -30.3042  -11.3489   19.9034 H   0  0  0  0  0  0
  -29.7614  -11.7559   17.4681 H   0  0  0  0  0  0
  -29.6431  -13.4712   17.7813 H   0  0  0  0  0  0
  -27.8792  -11.2524   18.8858 H   0  0  0  0  0  0
  -27.3610  -12.5182   17.8053 H   0  0  0  0  0  0
  -27.6291  -14.1905   19.4778 H   0  0  0  0  0  0
  -28.7028  -12.0535   21.4130 H   0  0  0  0  0  0
  -28.4544  -13.7100   21.8475 H   0  0  0  0  0  0
  -25.2720   -9.5640   22.4772 H   0  0  0  0  0  0
  -23.9958   -7.4586   22.7448 H   0  0  0  0  0  0
  -21.0799   -8.8720   19.8907 H   0  0  0  0  0  0
  -22.3636  -10.9652   19.6177 H   0  0  0  0  0  0
  -21.2024   -7.6131   23.9693 H   0  0  0  0  0  0
  -21.1449   -6.0503   25.9054 H   0  0  0  0  0  0
  -22.0629   -2.7601   23.2839 H   0  0  0  0  0  0
  -22.4137  -11.9888   22.4790 H   0  0  0  0  0  0
  -21.1107  -13.1223   22.2595 H   0  0  0  0  0  0
  -24.6506  -15.8217   20.5305 H   0  0  0  0  0  0
  -26.2701  -15.6275   20.0899 H   0  0  0  0  0  0
  -26.7118  -32.5547   23.1181 H   0  0  0  0  0  0
  -25.0050  -33.9778   25.0492 H   0  0  0  0  0  0
  -22.6972  -31.3036   21.4084 H   0  0  0  0  0  0
  -23.3748  -35.9640   23.3291 H   0  0  0  0  0  0
  -24.3579  -36.8934   22.2055 H   0  0  0  0  0  0
  -23.7213  -37.6510   23.6649 H   0  0  0  0  0  0
  -26.0504  -31.5836   20.5964 H   0  0  0  0  0  0
  -26.8248  -30.8853   21.9909 H   0  0  0  0  0  0
  -28.1046  -29.1032   21.1984 H   0  0  0  0  0  0
  -26.0933  -25.9789   19.0047 H   0  0  0  0  0  0
  -23.9973  -27.2858   19.0378 H   0  0  0  0  0  0
  -23.7255  -30.5861   19.4054 H   0  0  0  0  0  0
  -22.7466  -29.2305   19.8775 H   0  0  0  0  0  0
  -25.1265  -36.1987   25.0839 H   0  0  0  0  0  0
  -20.9947  -28.3217   24.1444 H   0  0  0  0  0  0
  -20.5676  -26.2262   23.3599 H   0  0  0  0  0  0
  -21.6636  -26.7447   22.1202 H   0  0  0  0  0  0
  -19.6904  -25.6298   21.1235 H   0  0  0  0  0  0
  -19.6688  -27.3206   20.6749 H   0  0  0  0  0  0
  -17.4193  -26.6682   21.4018 H   0  0  0  0  0  0
  -18.0317  -26.0052   22.9009 H   0  0  0  0  0  0
  -19.7921  -30.7268   24.2268 H   0  0  0  0  0  0
  -17.5000  -31.6270   24.5154 H   0  0  0  0  0  0
  -15.5340  -30.2980   23.7658 H   0  0  0  0  0  0
  -15.8660  -28.0813   22.7078 H   0  0  0  0  0  0
  -24.5908  -30.7047   25.7810 H   0  0  0  0  0  0
  -24.8931  -32.2849   26.4957 H   0  0  0  0  0  0
  -25.8096  -30.8843   27.0228 H   0  0  0  0  0  0
  -26.2862  -29.6806   24.1169 H   0  0  0  0  0  0
  -27.4070  -29.7285   25.4579 H   0  0  0  0  0  0
  -27.8697  -30.4367   23.9281 H   0  0  0  0  0  0
  -27.2673  -33.3617   26.2090 H   0  0  0  0  0  0
  -28.3845  -32.6888   25.0307 H   0  0  0  0  0  0
  -28.0729  -31.8433   26.5393 H   0  0  0  0  0  0
  -28.2579  -38.0124   24.7559 H   0  0  0  0  0  0
  -28.1106  -36.2658   24.6211 H   0  0  0  0  0  0
  -27.2316  -37.1366   25.8865 H   0  0  0  0  0  0
  -20.9323  -29.8709   21.6914 H   0  0  0  0  0  0
  -26.0175  -38.2879   24.1453 H   0  0  0  0  0  0
  -30.3718  -21.2104   19.3658 H   0  0  0  0  0  0
  -31.4837  -22.2042   23.3862 H   0  0  0  0  0  0
  -29.6911  -22.8117   17.8344 H   0  0  0  0  0  0
  -30.8651  -24.1186   17.8742 H   0  0  0  0  0  0
  -29.1860  -24.4130   18.3610 H   0  0  0  0  0  0
  -31.6695  -24.3908   24.1234 H   0  0  0  0  0  0
  -30.5078  -25.5205   23.4431 H   0  0  0  0  0  0
  -32.1947  -25.5340   22.9049 H   0  0  0  0  0  0
  -28.0417  -15.7930   21.0369 H   0  0  0  0  0  0
  -28.8375  -15.9460   19.4416 H   0  0  0  0  0  0
  -28.8330  -17.2584   20.5551 H   0  0  0  0  0  0
  -32.0681  -20.0194   22.4243 H   0  0  0  0  0  0
  -31.6586  -19.6251   20.7850 H   0  0  0  0  0  0
  -30.8363  -25.9503   19.3626 H   0  0  0  0  0  0
  -31.5867  -26.2435   20.8608 H   0  0  0  0  0  0
  -29.2723  -19.2372   21.4684 H   0  0  0  0  0  0
  -29.6644  -19.7017   23.0911 H   0  0  0  0  0  0
  -29.5150  -17.2785   23.0420 H   0  0  0  0  0  0
  -31.1115  -17.7801   23.4509 H   0  0  0  0  0  0
  -31.3185  -17.3590   20.6445 H   0  0  0  0  0  0
  -31.9395  -16.3880   21.9403 H   0  0  0  0  0  0
  -29.8464  -27.7889   20.7498 H   0  0  0  0  0  0
  -29.2050  -26.6170   21.8883 H   0  0  0  0  0  0
  1 25  1  0  0  0
  1 30  2  0  0  0
  1 86  1  0  0  0
  2  3  1  0  0  0
  2 25  1  0  0  0
  2 87  1  0  0  0
  2 88  1  0  0  0
  3  4  1  0  0  0
  3 89  1  0  0  0
  3 90  1  0  0  0
  4  5  1  0  0  0
  4 91  1  0  0  0
  4 92  1  0  0  0
  5  6  1  0  0  0
  5 26  1  0  0  0
  5 93  1  0  0  0
  6 25  1  0  0  0
  6 94  1  0  0  0
  6 95  1  0  0  0
  7  8  2  0  0  0
  7 26  1  0  0  0
  7 29  1  0  0  0
  8  9  1  0  0  0
  8 22  1  0  0  0
  9 10  1  0  0  0
  9 27  2  0  0  0
 10 11  2  0  0  0
 10 15  1  0  0  0
 11 12  1  0  0  0
 11 96  1  0  0  0
 12 13  2  0  0  0
 12 97  1  0  0  0
 13 14  1  0  0  0
 13 31  1  0  0  0
 14 15  2  0  0  0
 14 98  1  0  0  0
 15 99  1  0  0  0
 16 17  2  0  0  0
 16 21  1  0  0  0
 16 31  1  0  0  0
 17 18  1  0  0  0
 17100  1  0  0  0
 18 19  2  0  0  0
 18101  1  0  0  0
 19 20  1  0  0  0
 19 24  1  0  0  0
 20 21  2  0  0  0
 20102  1  0  0  0
 21 23  1  0  0  0
 22 28  1  0  0  0
 22 32  2  0  0  0
 26 27  1  0  0  0
 28103  1  0  0  0
 28104  1  0  0  0
 29105  1  0  0  0
 29106  1  0  0  0
 33 34  1  0  0  0
 33 66  1  0  0  0
 33 70  2  0  0  0
 34 36  1  0  0  0
 34 59  1  0  0  0
 34107  1  0  0  0
 35 44  2  0  0  0
 35 45  1  0  0  0
 35 68  1  0  0  0
 36 56  1  0  0  0
 36108  1  0  0  0
 37 39  1  0  0  0
 37 47  1  0  0  0
 37 66  1  0  0  0
 37109  1  0  0  0
 38 43  2  0  0  0
 38 46  1  0  0  0
 38 47  1  0  0  0
 39 64  1  0  0  0
 39 67  2  0  0  0
 40 52  1  0  0  0
 40 53  2  0  0  0
 40 58  1  0  0  0
 41110  1  0  0  0
 41111  1  0  0  0
 41112  1  0  0  0
 41 48  1  0  0  0
 42 43  1  0  0  0
 42 66  1  0  0  0
 42113  1  0  0  0
 42114  1  0  0  0
 43 44  1  0  0  0
 44115  1  0  0  0
 45 46  2  0  0  0
 45116  1  0  0  0
 46117  1  0  0  0
 47118  1  0  0  0
 47119  1  0  0  0
 48 56  1  0  0  0
 48 65  1  0  0  0
 48120  1  0  0  0
 49 50  1  0  0  0
 49 53  1  0  0  0
 49 64  1  0  0  0
 49121  1  0  0  0
 50 51  1  0  0  0
 50122  1  0  0  0
 50123  1  0  0  0
 51 52  1  0  0  0
 51124  1  0  0  0
 51125  1  0  0  0
 52126  1  0  0  0
 52127  1  0  0  0
 53 54  1  0  0  0
 54 55  2  0  0  0
 54128  1  0  0  0
 55 57  1  0  0  0
 55129  1  0  0  0
 56 69  2  0  0  0
 57 58  2  0  0  0
 57130  1  0  0  0
 58131  1  0  0  0
 59 60  1  0  0  0
 59 61  1  0  0  0
 59 62  1  0  0  0
 60132  1  0  0  0
 60133  1  0  0  0
 60134  1  0  0  0
 61135  1  0  0  0
 61136  1  0  0  0
 61137  1  0  0  0
 62138  1  0  0  0
 62139  1  0  0  0
 62140  1  0  0  0
 63 65  1  0  0  0
 63141  1  0  0  0
 63142  1  0  0  0
 63143  1  0  0  0
 64144  1  0  0  0
 65145  1  0  0  0
 68 85  1  0  0  0
 71 73  2  0  0  0
 71 74  1  0  0  0
 71146  1  0  0  0
 72 73  1  0  0  0
 72 75  2  0  0  0
 72147  1  0  0  0
 73 80  1  0  0  0
 74 76  2  0  0  0
 74 77  1  0  0  0
 75 76  1  0  0  0
 75 78  1  0  0  0
 76 81  1  0  0  0
 77148  1  0  0  0
 77149  1  0  0  0
 77150  1  0  0  0
 78151  1  0  0  0
 78152  1  0  0  0
 78153  1  0  0  0
 79 86  1  0  0  0
 79154  1  0  0  0
 79155  1  0  0  0
 79156  1  0  0  0
 80 82  1  0  0  0
 80157  1  0  0  0
 80158  1  0  0  0
 81 85  1  0  0  0
 81159  1  0  0  0
 81160  1  0  0  0
 82 83  1  0  0  0
 82161  1  0  0  0
 82162  1  0  0  0
 83 84  1  0  0  0
 83163  1  0  0  0
 83164  1  0  0  0
 84 86  1  0  0  0
 84165  1  0  0  0
 84166  1  0  0  0
 85167  1  0  0  0
 85168  1  0  0  0
M  ISO  4   1 100  68 101  85 101  86 100
M  END
> <chiral flag>
0

> <version>
0

> <s_m_source_file>
/data/baiqing/PycharmProjects/Reinvent-master-3.2/result/LINK_invent/BTK/process_docking_weight1_custom_sum_contain_oxygen_bond_distance_aromatic_linkinvent_7_9_3/rearranged_h_0036.sdf

> <i_m_source_file_index>
20

> <r_mmod_Potential_Energy-OPLS-2005>
153.359420776367

> <r_mmod_Stretch_Energy-OPLS-2005>
49.3102607727051

> <r_mmod_Bend_Energy-OPLS-2005>
133.48779296875

> <r_mmod_Torsional_Energy-OPLS-2005>
280.318695068359

> <r_mmod_Improper_Torsional_Energy-OPLS-2005>
6.52851343154907

> <r_mmod_Van_der_Waal_Energy-OPLS-2005>
161.243606567383

> <r_mmod_Electrostatic_Energy-OPLS-2005>
-302.294189453125

> <r_mmod_Solvation_Energy-OPLS-2005>
-198.319046020508

> <b_mmod_Minimization_Converged-OPLS-2005>
0

> <r_mmod_RMS_Derivative-OPLS-2005>
2.98756957054138

$$$$
20
                    3D
 Structure written by MMmdl.
164172  0  0  1  0            999 V2000
  -30.7179  -14.5990   20.4753 C   0  0  0  0  0  0
  -30.4113  -12.3647   19.4616 C   0  0  0  0  0  0
  -29.4957  -12.4728   18.2267 C   0  0  0  0  0  0
  -28.0244  -12.3189   18.6505 C   0  0  0  0  0  0
  -27.6473  -13.2249   19.8528 C   0  0  2  0  0  0
  -28.6938  -13.1471   20.9864 C   0  0  0  0  0  0
  -25.2554  -13.8209   20.5703 C   0  0  0  0  0  0
  -24.1824  -13.0466   20.9210 C   0  0  0  0  0  0
  -24.6401  -11.6944   20.8757 C   0  0  0  0  0  0
  -23.9079  -10.4319   21.0411 C   0  0  0  0  0  0
  -24.3624   -9.4232   21.9184 C   0  0  0  0  0  0
  -23.6294   -8.2264   22.0758 C   0  0  0  0  0  0
  -22.4275   -8.0297   21.3549 C   0  0  0  0  0  0
  -21.9927   -9.0269   20.4644 C   0  0  0  0  0  0
  -22.7259  -10.2151   20.3053 C   0  0  0  0  0  0
  -21.6853   -6.0745   22.5280 C   0  0  0  0  0  0
  -21.4018   -6.5647   23.8213 C   0  0  0  0  0  0
  -21.3655   -5.6795   24.9170 C   0  0  0  0  0  0
  -21.6037   -4.3057   24.7218 C   0  0  0  0  0  0
  -21.8823   -3.8163   23.4336 C   0  0  0  0  0  0
  -21.9196   -4.6979   22.3397 C   0  0  0  0  0  0
  -22.7842  -13.5251   21.1839 C   0  0  0  0  0  0
  -22.1665   -4.2168   21.0972 F   0  0  0  0  0  0
  -21.5622   -3.4538   25.7730 F   0  0  0  0  0  0
  -30.0080  -13.4327   20.3990 N   0  0  0  0  0  0
  -26.2978  -12.9405   20.3324 N   0  0  0  0  0  0
  -25.9334  -11.6556   20.5787 N   0  0  0  0  0  0
  -22.0478  -12.8229   22.0380 N   0  0  0  0  0  0
  -25.4282  -15.1915   20.4126 N   0  0  0  0  0  0
  -31.9045  -14.6324   20.1469 O   0  0  0  0  0  0
  -21.6636   -6.8890   21.4243 O   0  0  0  0  0  0
  -22.3541  -14.5559   20.6692 O   0  0  0  0  0  0
  -24.6243  -31.8609   23.2052 C   0  0  0  0  0  0
  -25.9113  -32.4780   23.8345 C   0  0  1  0  0  0
  -27.2161  -27.3306   20.1235 C   0  0  0  0  0  0
  -25.5923  -33.8567   24.2283 N   0  0  0  0  0  0
  -23.4162  -30.4847   21.5505 C   0  0  2  0  0  0
  -24.8656  -28.9458   20.1077 C   0  0  0  0  0  0
  -22.7462  -29.4626   22.4977 C   0  0  0  0  0  0
  -18.0280  -28.1357   22.8493 C   0  0  0  0  0  0
  -24.1501  -36.7300   23.2631 C   0  0  0  0  0  0
  -25.9575  -30.7935   21.3781 C   0  0  0  0  0  0
  -26.0337  -29.4239   20.7164 C   0  0  0  0  0  0
  -27.2153  -28.6284   20.7172 C   0  0  0  0  0  0
  -26.0377  -26.9156   19.4645 C   0  0  0  0  0  0
  -24.8689  -27.6954   19.4691 C   0  0  0  0  0  0
  -23.6318  -29.8224   20.1639 C   0  0  0  0  0  0
  -25.4126  -36.3082   24.0317 C   0  0  1  0  0  0
  -20.5885  -28.3668   23.1297 C   0  0  2  0  0  0
  -20.6773  -26.9399   22.5424 C   0  0  0  0  0  0
  -19.5750  -26.6380   21.5212 C   0  0  0  0  0  0
  -18.1922  -26.7898   22.1618 C   0  0  0  0  0  0
  -19.1531  -28.8829   23.2883 C   0  0  0  0  0  0
  -18.9462  -30.1429   23.8907 C   0  0  0  0  0  0
  -17.6458  -30.6564   24.0554 C   0  0  0  0  0  0
  -25.9056  -34.9439   23.5100 C   0  0  0  0  0  0
  -16.5350  -29.9062   23.6322 C   0  0  0  0  0  0
  -16.7267  -28.6472   23.0364 C   0  0  0  0  0  0
  -26.4506  -31.6574   25.0702 C   0  0  0  0  0  0
  -25.3744  -31.3691   26.1421 C   0  0  0  0  0  0
  -27.0357  -30.2988   24.6166 C   0  0  0  0  0  0
  -27.6057  -32.4311   25.7483 C   0  0  0  0  0  0
  -27.5596  -37.1802   24.8447 C   0  0  0  0  0  0
  -21.4184  -29.3015   22.3693 N   0  0  0  0  0  0
  -26.4291  -37.3776   23.9406 N   0  0  0  0  0  0
  -24.6835  -31.0620   22.1008 N   0  0  0  0  0  0
  -23.4194  -28.8159   23.3038 O   0  0  0  0  0  0
  -28.2994  -26.4475   20.1822 O   0  0  0  0  0  0
  -26.5626  -34.8897   22.4674 O   0  0  0  0  0  0
  -23.5438  -32.1435   23.7408 O   0  0  0  0  0  0
  -30.2435  -20.9183   20.3469 C   0  0  0  0  0  0
  -30.8413  -19.6359   20.2888 C   0  0  0  0  0  0
  -28.8746  -21.0417   20.6718 C   0  0  0  0  0  0
  -30.0838  -18.4668   20.5294 C   0  0  0  0  0  0
  -28.1921  -19.8011   20.9151 C   0  0  0  0  0  0
  -27.2979  -19.9551   23.8377 C   0  0  0  0  0  0
  -25.0147  -19.1096   23.1100 C   0  0  0  0  0  0
  -28.1719  -22.4427   20.8135 C   0  0  0  0  0  0
  -26.7253  -19.7297   21.3318 C   0  0  0  0  0  0
  -30.7796  -17.0781   20.4611 C   0  0  0  0  0  0
  -28.8344  -23.8116   20.3353 C   0  0  0  0  0  0
  -27.9816  -25.0989   20.7128 C   0  0  0  0  0  0
  -26.5110  -19.1798   22.7640 C   0  0  0  0  0  0
  -28.7706  -18.5656   20.8206 N   0  0  0  0  0  0
  -30.0667  -15.7795   20.6845 N   0  0  0  0  0  0
  -31.4578  -12.4354   19.1604 H   0  0  0  0  0  0
  -30.3037  -11.3884   19.9371 H   0  0  0  0  0  0
  -29.7550  -11.7015   17.5002 H   0  0  0  0  0  0
  -29.6444  -13.4311   17.7272 H   0  0  0  0  0  0
  -27.8781  -11.2724   18.9218 H   0  0  0  0  0  0
  -27.3610  -12.5075   17.8056 H   0  0  0  0  0  0
  -27.6516  -14.2464   19.4736 H   0  0  0  0  0  0
  -28.6951  -12.1603   21.4510 H   0  0  0  0  0  0
  -28.4568  -13.8589   21.7784 H   0  0  0  0  0  0
  -25.2762   -9.5700   22.4773 H   0  0  0  0  0  0
  -23.9996   -7.4660   22.7483 H   0  0  0  0  0  0
  -21.0862   -8.8797   19.8941 H   0  0  0  0  0  0
  -22.3719  -10.9694   19.6169 H   0  0  0  0  0  0
  -21.2019   -7.6160   23.9725 H   0  0  0  0  0  0
  -21.1463   -6.0518   25.9069 H   0  0  0  0  0  0
  -22.0607   -2.7628   23.2828 H   0  0  0  0  0  0
  -22.4091  -11.9882   22.4751 H   0  0  0  0  0  0
  -21.1103  -13.1265   22.2573 H   0  0  0  0  0  0
  -24.6673  -15.8512   20.5296 H   0  0  0  0  0  0
  -26.2875  -15.6321   20.1081 H   0  0  0  0  0  0
  -26.7166  -32.5461   23.1091 H   0  0  0  0  0  0
  -24.9992  -33.9691   25.0370 H   0  0  0  0  0  0
  -22.7094  -31.3056   21.4099 H   0  0  0  0  0  0
  -23.3745  -35.9646   23.3255 H   0  0  0  0  0  0
  -24.3582  -36.8973   22.2048 H   0  0  0  0  0  0
  -23.7269  -37.6491   23.6695 H   0  0  0  0  0  0
  -26.0912  -31.5609   20.6152 H   0  0  0  0  0  0
  -26.8329  -30.8374   22.0134 H   0  0  0  0  0  0
  -28.1066  -28.9827   21.2161 H   0  0  0  0  0  0
  -26.0084  -25.9658   18.9504 H   0  0  0  0  0  0
  -23.9789  -27.3293   18.9733 H   0  0  0  0  0  0
  -23.7458  -30.5999   19.4075 H   0  0  0  0  0  0
  -22.7545  -29.2485   19.8641 H   0  0  0  0  0  0
  -25.1315  -36.1913   25.0809 H   0  0  0  0  0  0
  -20.9961  -28.3262   24.1424 H   0  0  0  0  0  0
  -20.5723  -26.2267   23.3616 H   0  0  0  0  0  0
  -21.6646  -26.7468   22.1209 H   0  0  0  0  0  0
  -19.6921  -25.6301   21.1230 H   0  0  0  0  0  0
  -19.6688  -27.3195   20.6741 H   0  0  0  0  0  0
  -17.4217  -26.6646   21.4002 H   0  0  0  0  0  0
  -18.0302  -26.0033   22.9005 H   0  0  0  0  0  0
  -19.7956  -30.7209   24.2310 H   0  0  0  0  0  0
  -17.5032  -31.6265   24.5124 H   0  0  0  0  0  0
  -15.5356  -30.2966   23.7641 H   0  0  0  0  0  0
  -15.8667  -28.0788   22.7091 H   0  0  0  0  0  0
  -24.5945  -30.7019   25.7745 H   0  0  0  0  0  0
  -24.8903  -32.2834   26.4855 H   0  0  0  0  0  0
  -25.8061  -30.8888   27.0209 H   0  0  0  0  0  0
  -26.2935  -29.6693   24.1242 H   0  0  0  0  0  0
  -27.4076  -29.7283   25.4687 H   0  0  0  0  0  0
  -27.8801  -30.4222   23.9373 H   0  0  0  0  0  0
  -27.2671  -33.3621   26.2030 H   0  0  0  0  0  0
  -28.3891  -32.6838   25.0333 H   0  0  0  0  0  0
  -28.0678  -31.8439   26.5435 H   0  0  0  0  0  0
  -28.2586  -38.0129   24.7549 H   0  0  0  0  0  0
  -28.1126  -36.2657   24.6231 H   0  0  0  0  0  0
  -27.2291  -37.1388   25.8837 H   0  0  0  0  0  0
  -20.9346  -29.8762   21.6939 H   0  0  0  0  0  0
  -26.0170  -38.2853   24.1411 H   0  0  0  0  0  0
  -30.8449  -21.7968   20.1592 H   0  0  0  0  0  0
  -31.8958  -19.5564   20.0618 H   0  0  0  0  0  0
  -27.0756  -19.5894   24.8408 H   0  0  0  0  0  0
  -27.0732  -21.0217   23.8139 H   0  0  0  0  0  0
  -28.3729  -19.8412   23.6918 H   0  0  0  0  0  0
  -24.8604  -18.7184   24.1162 H   0  0  0  0  0  0
  -24.4892  -18.4477   22.4200 H   0  0  0  0  0  0
  -24.5436  -20.0928   23.0576 H   0  0  0  0  0  0
  -27.9115  -22.5463   21.8682 H   0  0  0  0  0  0
  -27.2217  -22.3763   20.2853 H   0  0  0  0  0  0
  -26.2086  -19.0877   20.6166 H   0  0  0  0  0  0
  -26.2402  -20.6993   21.2455 H   0  0  0  0  0  0
  -31.6215  -17.1188   21.1555 H   0  0  0  0  0  0
  -31.2248  -17.0382   19.4650 H   0  0  0  0  0  0
  -28.9677  -23.7781   19.2540 H   0  0  0  0  0  0
  -29.8299  -23.9134   20.7686 H   0  0  0  0  0  0
  -28.0103  -25.1947   21.7991 H   0  0  0  0  0  0
  -26.9490  -24.8295   20.5058 H   0  0  0  0  0  0
  -26.8879  -18.1548   22.7808 H   0  0  0  0  0  0
  -29.0774  -15.8072   20.8785 H   0  0  0  0  0  0
  1 25  1  0  0  0
  1 30  2  0  0  0
  1 85  1  0  0  0
  2  3  1  0  0  0
  2 25  1  0  0  0
  2 86  1  0  0  0
  2 87  1  0  0  0
  3  4  1  0  0  0
  3 88  1  0  0  0
  3 89  1  0  0  0
  4  5  1  0  0  0
  4 90  1  0  0  0
  4 91  1  0  0  0
  5  6  1  0  0  0
  5 26  1  0  0  0
  5 92  1  0  0  0
  6 25  1  0  0  0
  6 93  1  0  0  0
  6 94  1  0  0  0
  7  8  2  0  0  0
  7 26  1  0  0  0
  7 29  1  0  0  0
  8  9  1  0  0  0
  8 22  1  0  0  0
  9 10  1  0  0  0
  9 27  2  0  0  0
 10 11  2  0  0  0
 10 15  1  0  0  0
 11 12  1  0  0  0
 11 95  1  0  0  0
 12 13  2  0  0  0
 12 96  1  0  0  0
 13 14  1  0  0  0
 13 31  1  0  0  0
 14 15  2  0  0  0
 14 97  1  0  0  0
 15 98  1  0  0  0
 16 17  2  0  0  0
 16 21  1  0  0  0
 16 31  1  0  0  0
 17 18  1  0  0  0
 17 99  1  0  0  0
 18 19  2  0  0  0
 18100  1  0  0  0
 19 20  1  0  0  0
 19 24  1  0  0  0
 20 21  2  0  0  0
 20101  1  0  0  0
 21 23  1  0  0  0
 22 28  1  0  0  0
 22 32  2  0  0  0
 26 27  1  0  0  0
 28102  1  0  0  0
 28103  1  0  0  0
 29104  1  0  0  0
 29105  1  0  0  0
 33 34  1  0  0  0
 33 66  1  0  0  0
 33 70  2  0  0  0
 34 36  1  0  0  0
 34 59  1  0  0  0
 34106  1  0  0  0
 35 44  2  0  0  0
 35 45  1  0  0  0
 35 68  1  0  0  0
 36 56  1  0  0  0
 36107  1  0  0  0
 37 39  1  0  0  0
 37 47  1  0  0  0
 37 66  1  0  0  0
 37108  1  0  0  0
 38 43  2  0  0  0
 38 46  1  0  0  0
 38 47  1  0  0  0
 39 64  1  0  0  0
 39 67  2  0  0  0
 40 52  1  0  0  0
 40 53  2  0  0  0
 40 58  1  0  0  0
 41109  1  0  0  0
 41110  1  0  0  0
 41111  1  0  0  0
 41 48  1  0  0  0
 42 43  1  0  0  0
 42 66  1  0  0  0
 42112  1  0  0  0
 42113  1  0  0  0
 43 44  1  0  0  0
 44114  1  0  0  0
 45 46  2  0  0  0
 45115  1  0  0  0
 46116  1  0  0  0
 47117  1  0  0  0
 47118  1  0  0  0
 48 56  1  0  0  0
 48 65  1  0  0  0
 48119  1  0  0  0
 49 50  1  0  0  0
 49 53  1  0  0  0
 49 64  1  0  0  0
 49120  1  0  0  0
 50 51  1  0  0  0
 50121  1  0  0  0
 50122  1  0  0  0
 51 52  1  0  0  0
 51123  1  0  0  0
 51124  1  0  0  0
 52125  1  0  0  0
 52126  1  0  0  0
 53 54  1  0  0  0
 54 55  2  0  0  0
 54127  1  0  0  0
 55 57  1  0  0  0
 55128  1  0  0  0
 56 69  2  0  0  0
 57 58  2  0  0  0
 57129  1  0  0  0
 58130  1  0  0  0
 59 60  1  0  0  0
 59 61  1  0  0  0
 59 62  1  0  0  0
 60131  1  0  0  0
 60132  1  0  0  0
 60133  1  0  0  0
 61134  1  0  0  0
 61135  1  0  0  0
 61136  1  0  0  0
 62137  1  0  0  0
 62138  1  0  0  0
 62139  1  0  0  0
 63 65  1  0  0  0
 63140  1  0  0  0
 63141  1  0  0  0
 63142  1  0  0  0
 64143  1  0  0  0
 65144  1  0  0  0
 68 82  1  0  0  0
 71 72  2  0  0  0
 71 73  1  0  0  0
 71145  1  0  0  0
 72 74  1  0  0  0
 72146  1  0  0  0
 73 75  2  0  0  0
 73 78  1  0  0  0
 74 80  1  0  0  0
 74 84  2  0  0  0
 75 79  1  0  0  0
 75 84  1  0  0  0
 76147  1  0  0  0
 76148  1  0  0  0
 76149  1  0  0  0
 76 83  1  0  0  0
 77 83  1  0  0  0
 77150  1  0  0  0
 77151  1  0  0  0
 77152  1  0  0  0
 78 81  1  0  0  0
 78153  1  0  0  0
 78154  1  0  0  0
 79 83  1  0  0  0
 79155  1  0  0  0
 79156  1  0  0  0
 80 85  1  0  0  0
 80157  1  0  0  0
 80158  1  0  0  0
 81 82  1  0  0  0
 81159  1  0  0  0
 81160  1  0  0  0
 82161  1  0  0  0
 82162  1  0  0  0
 83163  1  0  0  0
 85164  1  0  0  0
M  ISO  4   1 100  68 101  82 101  85 100
M  END
> <chiral flag>
0

> <version>
0

> <s_m_source_file>
/data/baiqing/PycharmProjects/Reinvent-master-3.2/result/LINK_invent/BTK/process_docking_weight1_custom_sum_contain_oxygen_bond_distance_aromatic_linkinvent_7_9_3/rearranged_h_0036.sdf

> <i_m_source_file_index>
21

> <r_mmod_Potential_Energy-OPLS-2005>
-172.345123291016

> <r_mmod_Stretch_Energy-OPLS-2005>
70.7287216186523

> <r_mmod_Bend_Energy-OPLS-2005>
147.104888916016

> <r_mmod_Torsional_Energy-OPLS-2005>
212.489318847656

> <r_mmod_Improper_Torsional_Energy-OPLS-2005>
5.32505750656128

> <r_mmod_Van_der_Waal_Energy-OPLS-2005>
149.461395263672

> <r_mmod_Electrostatic_Energy-OPLS-2005>
-605.031677246094

> <r_mmod_Solvation_Energy-OPLS-2005>
-203.323684692383

> <b_mmod_Minimization_Converged-OPLS-2005>
0

> <r_mmod_RMS_Derivative-OPLS-2005>
2.9108190536499

$$$$
21
                    3D
 Structure written by MMmdl.
168176  0  0  1  0            999 V2000
  -30.7674  -14.3573   20.6765 C   0  0  0  0  0  0
  -30.4240  -12.2885   19.3841 C   0  0  0  0  0  0
  -29.4824  -12.5124   18.1858 C   0  0  0  0  0  0
  -28.0064  -12.3752   18.6066 C   0  0  0  0  0  0
  -27.6681  -13.1992   19.8769 C   0  0  2  0  0  0
  -28.7068  -12.9347   20.9884 C   0  0  0  0  0  0
  -25.2617  -13.8158   20.5668 C   0  0  0  0  0  0
  -24.1842  -13.0458   20.9159 C   0  0  0  0  0  0
  -24.6377  -11.6905   20.8727 C   0  0  0  0  0  0
  -23.9022  -10.4299   21.0405 C   0  0  0  0  0  0
  -24.3583   -9.4215   21.9191 C   0  0  0  0  0  0
  -23.6282   -8.2237   22.0748 C   0  0  0  0  0  0
  -22.4271   -8.0266   21.3526 C   0  0  0  0  0  0
  -21.9893   -9.0233   20.4628 C   0  0  0  0  0  0
  -22.7198  -10.2125   20.3057 C   0  0  0  0  0  0
  -21.6848   -6.0726   22.5267 C   0  0  0  0  0  0
  -21.4006   -6.5634   23.8201 C   0  0  0  0  0  0
  -21.3672   -5.6792   24.9166 C   0  0  0  0  0  0
  -21.6054   -4.3053   24.7217 C   0  0  0  0  0  0
  -21.8819   -3.8139   23.4343 C   0  0  0  0  0  0
  -21.9189   -4.6952   22.3395 C   0  0  0  0  0  0
  -22.7860  -13.5242   21.1821 C   0  0  0  0  0  0
  -22.1663   -4.2153   21.0969 F   0  0  0  0  0  0
  -21.5642   -3.4531   25.7727 F   0  0  0  0  0  0
  -30.0504  -13.2269   20.4530 N   0  0  0  0  0  0
  -26.3056  -12.9312   20.3375 N   0  0  0  0  0  0
  -25.9304  -11.6474   20.5749 N   0  0  0  0  0  0
  -22.0474  -12.8264   22.0370 N   0  0  0  0  0  0
  -25.4397  -15.1879   20.4072 N   0  0  0  0  0  0
  -31.7794  -14.6599   20.0364 O   0  0  0  0  0  0
  -21.6634   -6.8865   21.4228 O   0  0  0  0  0  0
  -22.3532  -14.5541   20.6643 O   0  0  0  0  0  0
  -24.6112  -31.8701   23.2120 C   0  0  0  0  0  0
  -25.9023  -32.4824   23.8407 C   0  0  1  0  0  0
  -27.2385  -27.4617   20.0814 C   0  0  0  0  0  0
  -25.5895  -33.8619   24.2355 N   0  0  0  0  0  0
  -23.3964  -30.4952   21.5509 C   0  0  2  0  0  0
  -24.8410  -28.9612   20.1156 C   0  0  0  0  0  0
  -22.7382  -29.4679   22.4990 C   0  0  0  0  0  0
  -18.0277  -28.1386   22.8490 C   0  0  0  0  0  0
  -24.1482  -36.7336   23.2639 C   0  0  0  0  0  0
  -25.9200  -30.8426   21.3570 C   0  0  0  0  0  0
  -25.9965  -29.4737   20.7166 C   0  0  0  0  0  0
  -27.1916  -28.7266   20.7048 C   0  0  0  0  0  0
  -26.0622  -26.9580   19.4755 C   0  0  0  0  0  0
  -24.8672  -27.7006   19.4962 C   0  0  0  0  0  0
  -23.6050  -29.8283   20.1633 C   0  0  0  0  0  0
  -25.4092  -36.3127   24.0355 C   0  0  1  0  0  0
  -20.5853  -28.3665   23.1327 C   0  0  2  0  0  0
  -20.6762  -26.9407   22.5418 C   0  0  0  0  0  0
  -19.5745  -26.6401   21.5207 C   0  0  0  0  0  0
  -18.1924  -26.7931   22.1626 C   0  0  0  0  0  0
  -19.1519  -28.8838   23.2911 C   0  0  0  0  0  0
  -18.9454  -30.1439   23.8933 C   0  0  0  0  0  0
  -17.6457  -30.6586   24.0572 C   0  0  0  0  0  0
  -25.9021  -34.9485   23.5152 C   0  0  0  0  0  0
  -16.5347  -29.9106   23.6312 C   0  0  0  0  0  0
  -16.7266  -28.6523   23.0325 C   0  0  0  0  0  0
  -26.4470  -31.6557   25.0699 C   0  0  0  0  0  0
  -25.3793  -31.3597   26.1475 C   0  0  0  0  0  0
  -27.0267  -30.3025   24.5971 C   0  0  0  0  0  0
  -27.6073  -32.4232   25.7452 C   0  0  0  0  0  0
  -27.5574  -37.1827   24.8468 C   0  0  0  0  0  0
  -21.4109  -29.3049   22.3747 N   0  0  0  0  0  0
  -26.4279  -37.3802   23.9416 N   0  0  0  0  0  0
  -24.6620  -31.0817   22.1010 N   0  0  0  0  0  0
  -23.4167  -28.8215   23.3017 O   0  0  0  0  0  0
  -28.4504  -26.8030   20.0717 O   0  0  0  0  0  0
  -26.5571  -34.8933   22.4709 O   0  0  0  0  0  0
  -23.5319  -32.1458   23.7528 O   0  0  0  0  0  0
  -27.4902  -24.7955   22.0504 C   0  0  0  0  0  0
  -29.2635  -23.4024   21.1583 C   0  0  0  0  0  0
  -28.4151  -24.5183   21.0258 C   0  0  0  0  0  0
  -27.4293  -23.9937   23.2099 C   0  0  0  0  0  0
  -29.2303  -22.5949   22.3141 C   0  0  0  0  0  0
  -28.3063  -22.8845   23.3570 C   0  0  0  0  0  0
  -26.4275  -24.3870   24.2863 C   0  0  0  0  0  0
  -29.1348  -22.6171   25.7515 C   0  0  0  0  0  0
  -30.2218  -21.4403   22.4021 C   0  0  0  0  0  0
  -28.2763  -22.0267   24.6247 C   0  0  0  0  0  0
  -28.5309  -25.4046   19.7881 C   0  0  0  0  0  0
  -29.6303  -20.1100   21.9024 C   0  0  0  0  0  0
  -30.5599  -18.9236   22.1969 C   0  0  0  0  0  0
  -30.0174  -17.5844   21.6784 C   0  0  0  0  0  0
  -30.8948  -16.3959   22.1113 C   0  0  0  0  0  0
  -30.3214  -15.1236   21.6784 N   0  0  0  0  0  0
  -31.4625  -12.4095   19.0694 H   0  0  0  0  0  0
  -30.3454  -11.2625   19.7484 H   0  0  0  0  0  0
  -29.7102  -11.7966   17.3945 H   0  0  0  0  0  0
  -29.6518  -13.5036   17.7625 H   0  0  0  0  0  0
  -27.8099  -11.3175   18.7863 H   0  0  0  0  0  0
  -27.3520  -12.6695   17.7853 H   0  0  0  0  0  0
  -27.7279  -14.2528   19.6020 H   0  0  0  0  0  0
  -28.6629  -11.8876   21.2922 H   0  0  0  0  0  0
  -28.4548  -13.5060   21.8829 H   0  0  0  0  0  0
  -25.2721   -9.5723   22.4757 H   0  0  0  0  0  0
  -24.0016   -7.4636   22.7472 H   0  0  0  0  0  0
  -21.0832   -8.8724   19.8931 H   0  0  0  0  0  0
  -22.3644  -10.9658   19.6163 H   0  0  0  0  0  0
  -21.1980   -7.6140   23.9707 H   0  0  0  0  0  0
  -21.1512   -6.0516   25.9078 H   0  0  0  0  0  0
  -22.0591   -2.7605   23.2828 H   0  0  0  0  0  0
  -22.4066  -11.9958   22.4851 H   0  0  0  0  0  0
  -21.1079  -13.1299   22.2486 H   0  0  0  0  0  0
  -24.6862  -15.8578   20.5182 H   0  0  0  0  0  0
  -26.3071  -15.6180   20.1105 H   0  0  0  0  0  0
  -26.7080  -32.5550   23.1168 H   0  0  0  0  0  0
  -25.0074  -33.9772   25.0523 H   0  0  0  0  0  0
  -22.6852  -31.3117   21.4106 H   0  0  0  0  0  0
  -23.3728  -35.9680   23.3308 H   0  0  0  0  0  0
  -24.3598  -36.8939   22.2053 H   0  0  0  0  0  0
  -23.7244  -37.6559   23.6628 H   0  0  0  0  0  0
  -26.0131  -31.5977   20.5745 H   0  0  0  0  0  0
  -26.8174  -30.9118   21.9595 H   0  0  0  0  0  0
  -28.0830  -29.1256   21.1692 H   0  0  0  0  0  0
  -26.0406  -26.0133   18.9566 H   0  0  0  0  0  0
  -23.9826  -27.3010   19.0190 H   0  0  0  0  0  0
  -23.7231  -30.6050   19.4067 H   0  0  0  0  0  0
  -22.7277  -29.2527   19.8625 H   0  0  0  0  0  0
  -25.1253  -36.2001   25.0844 H   0  0  0  0  0  0
  -20.9948  -28.3228   24.1440 H   0  0  0  0  0  0
  -20.5651  -26.2278   23.3603 H   0  0  0  0  0  0
  -21.6638  -26.7458   22.1206 H   0  0  0  0  0  0
  -19.6905  -25.6320   21.1217 H   0  0  0  0  0  0
  -19.6671  -27.3228   20.6744 H   0  0  0  0  0  0
  -17.4184  -26.6662   21.4040 H   0  0  0  0  0  0
  -18.0339  -26.0079   22.9035 H   0  0  0  0  0  0
  -19.7931  -30.7239   24.2314 H   0  0  0  0  0  0
  -17.5026  -31.6266   24.5182 H   0  0  0  0  0  0
  -15.5355  -30.3028   23.7610 H   0  0  0  0  0  0
  -15.8666  -28.0871   22.6994 H   0  0  0  0  0  0
  -24.6016  -30.6862   25.7852 H   0  0  0  0  0  0
  -24.8909  -32.2723   26.4921 H   0  0  0  0  0  0
  -25.8211  -30.8829   27.0243 H   0  0  0  0  0  0
  -26.2781  -29.6798   24.1064 H   0  0  0  0  0  0
  -27.4130  -29.7200   25.4348 H   0  0  0  0  0  0
  -27.8549  -30.4389   23.9016 H   0  0  0  0  0  0
  -27.2751  -33.3547   26.2047 H   0  0  0  0  0  0
  -28.3891  -32.6747   25.0282 H   0  0  0  0  0  0
  -28.0715  -31.8317   26.5351 H   0  0  0  0  0  0
  -28.2602  -38.0111   24.7490 H   0  0  0  0  0  0
  -28.1051  -36.2653   24.6297 H   0  0  0  0  0  0
  -27.2297  -37.1488   25.8869 H   0  0  0  0  0  0
  -20.9249  -29.8828   21.7031 H   0  0  0  0  0  0
  -26.0179  -38.2887   24.1407 H   0  0  0  0  0  0
  -26.8319  -25.6475   21.9627 H   0  0  0  0  0  0
  -29.9723  -23.1775   20.3717 H   0  0  0  0  0  0
  -25.6606  -25.0447   23.8783 H   0  0  0  0  0  0
  -26.9286  -24.9249   25.0927 H   0  0  0  0  0  0
  -25.9017  -23.5300   24.7031 H   0  0  0  0  0  0
  -29.1704  -21.9359   26.6013 H   0  0  0  0  0  0
  -28.7327  -23.5673   26.1051 H   0  0  0  0  0  0
  -30.1607  -22.7860   25.4201 H   0  0  0  0  0  0
  -30.5936  -21.3442   23.4222 H   0  0  0  0  0  0
  -31.1051  -21.6825   21.8110 H   0  0  0  0  0  0
  -28.6153  -21.0142   24.4171 H   0  0  0  0  0  0
  -27.2537  -21.8773   24.9676 H   0  0  0  0  0  0
  -27.8604  -25.0634   19.0028 H   0  0  0  0  0  0
  -29.5284  -25.2557   19.3732 H   0  0  0  0  0  0
  -29.4270  -20.1769   20.8331 H   0  0  0  0  0  0
  -28.6673  -19.9279   22.3796 H   0  0  0  0  0  0
  -31.5439  -19.1066   21.7617 H   0  0  0  0  0  0
  -30.7055  -18.8574   23.2755 H   0  0  0  0  0  0
  -28.9982  -17.4427   22.0417 H   0  0  0  0  0  0
  -29.9556  -17.6216   20.5895 H   0  0  0  0  0  0
  -30.9782  -16.3729   23.1970 H   0  0  0  0  0  0
  -31.9116  -16.5218   21.7323 H   0  0  0  0  0  0
  -29.5169  -14.7787   22.1823 H   0  0  0  0  0  0
  1 25  1  0  0  0
  1 30  2  0  0  0
  1 86  1  0  0  0
  2  3  1  0  0  0
  2 25  1  0  0  0
  2 87  1  0  0  0
  2 88  1  0  0  0
  3  4  1  0  0  0
  3 89  1  0  0  0
  3 90  1  0  0  0
  4  5  1  0  0  0
  4 91  1  0  0  0
  4 92  1  0  0  0
  5  6  1  0  0  0
  5 26  1  0  0  0
  5 93  1  0  0  0
  6 25  1  0  0  0
  6 94  1  0  0  0
  6 95  1  0  0  0
  7  8  2  0  0  0
  7 26  1  0  0  0
  7 29  1  0  0  0
  8  9  1  0  0  0
  8 22  1  0  0  0
  9 10  1  0  0  0
  9 27  2  0  0  0
 10 11  2  0  0  0
 10 15  1  0  0  0
 11 12  1  0  0  0
 11 96  1  0  0  0
 12 13  2  0  0  0
 12 97  1  0  0  0
 13 14  1  0  0  0
 13 31  1  0  0  0
 14 15  2  0  0  0
 14 98  1  0  0  0
 15 99  1  0  0  0
 16 17  2  0  0  0
 16 21  1  0  0  0
 16 31  1  0  0  0
 17 18  1  0  0  0
 17100  1  0  0  0
 18 19  2  0  0  0
 18101  1  0  0  0
 19 20  1  0  0  0
 19 24  1  0  0  0
 20 21  2  0  0  0
 20102  1  0  0  0
 21 23  1  0  0  0
 22 28  1  0  0  0
 22 32  2  0  0  0
 26 27  1  0  0  0
 28103  1  0  0  0
 28104  1  0  0  0
 29105  1  0  0  0
 29106  1  0  0  0
 33 34  1  0  0  0
 33 66  1  0  0  0
 33 70  2  0  0  0
 34 36  1  0  0  0
 34 59  1  0  0  0
 34107  1  0  0  0
 35 44  2  0  0  0
 35 45  1  0  0  0
 35 68  1  0  0  0
 36 56  1  0  0  0
 36108  1  0  0  0
 37 39  1  0  0  0
 37 47  1  0  0  0
 37 66  1  0  0  0
 37109  1  0  0  0
 38 43  2  0  0  0
 38 46  1  0  0  0
 38 47  1  0  0  0
 39 64  1  0  0  0
 39 67  2  0  0  0
 40 52  1  0  0  0
 40 53  2  0  0  0
 40 58  1  0  0  0
 41110  1  0  0  0
 41111  1  0  0  0
 41112  1  0  0  0
 41 48  1  0  0  0
 42 43  1  0  0  0
 42 66  1  0  0  0
 42113  1  0  0  0
 42114  1  0  0  0
 43 44  1  0  0  0
 44115  1  0  0  0
 45 46  2  0  0  0
 45116  1  0  0  0
 46117  1  0  0  0
 47118  1  0  0  0
 47119  1  0  0  0
 48 56  1  0  0  0
 48 65  1  0  0  0
 48120  1  0  0  0
 49 50  1  0  0  0
 49 53  1  0  0  0
 49 64  1  0  0  0
 49121  1  0  0  0
 50 51  1  0  0  0
 50122  1  0  0  0
 50123  1  0  0  0
 51 52  1  0  0  0
 51124  1  0  0  0
 51125  1  0  0  0
 52126  1  0  0  0
 52127  1  0  0  0
 53 54  1  0  0  0
 54 55  2  0  0  0
 54128  1  0  0  0
 55 57  1  0  0  0
 55129  1  0  0  0
 56 69  2  0  0  0
 57 58  2  0  0  0
 57130  1  0  0  0
 58131  1  0  0  0
 59 60  1  0  0  0
 59 61  1  0  0  0
 59 62  1  0  0  0
 60132  1  0  0  0
 60133  1  0  0  0
 60134  1  0  0  0
 61135  1  0  0  0
 61136  1  0  0  0
 61137  1  0  0  0
 62138  1  0  0  0
 62139  1  0  0  0
 62140  1  0  0  0
 63 65  1  0  0  0
 63141  1  0  0  0
 63142  1  0  0  0
 63143  1  0  0  0
 64144  1  0  0  0
 65145  1  0  0  0
 68 81  1  0  0  0
 71 73  2  0  0  0
 71 74  1  0  0  0
 71146  1  0  0  0
 72 73  1  0  0  0
 72 75  2  0  0  0
 72147  1  0  0  0
 73 81  1  0  0  0
 74 76  2  0  0  0
 74 77  1  0  0  0
 75 76  1  0  0  0
 75 79  1  0  0  0
 76 80  1  0  0  0
 77148  1  0  0  0
 77149  1  0  0  0
 77150  1  0  0  0
 78 80  1  0  0  0
 78151  1  0  0  0
 78152  1  0  0  0
 78153  1  0  0  0
 79 82  1  0  0  0
 79154  1  0  0  0
 79155  1  0  0  0
 80156  1  0  0  0
 80157  1  0  0  0
 81158  1  0  0  0
 81159  1  0  0  0
 82 83  1  0  0  0
 82160  1  0  0  0
 82161  1  0  0  0
 83 84  1  0  0  0
 83162  1  0  0  0
 83163  1  0  0  0
 84 85  1  0  0  0
 84164  1  0  0  0
 84165  1  0  0  0
 85 86  1  0  0  0
 85166  1  0  0  0
 85167  1  0  0  0
 86168  1  0  0  0
M  ISO  4   1 100  68 101  81 101  86 100
M  END
> <chiral flag>
0

> <version>
0

> <s_m_source_file>
/data/baiqing/PycharmProjects/Reinvent-master-3.2/result/LINK_invent/BTK/process_docking_weight1_custom_sum_contain_oxygen_bond_distance_aromatic_linkinvent_7_9_3/rearranged_h_0036.sdf

> <i_m_source_file_index>
22

> <r_mmod_Potential_Energy-OPLS-2005>
-84.6488952636719

> <r_mmod_Stretch_Energy-OPLS-2005>
34.275951385498

> <r_mmod_Bend_Energy-OPLS-2005>
100.261337280273

> <r_mmod_Torsional_Energy-OPLS-2005>
193.650512695312

> <r_mmod_Improper_Torsional_Energy-OPLS-2005>
1.80124175548553

> <r_mmod_Van_der_Waal_Energy-OPLS-2005>
156.753158569336

> <r_mmod_Electrostatic_Energy-OPLS-2005>
-380.950653076172

> <r_mmod_Solvation_Energy-OPLS-2005>
-198.193069458008

> <b_mmod_Minimization_Converged-OPLS-2005>
0

> <r_mmod_RMS_Derivative-OPLS-2005>
2.7273633480072

$$$$
22
                    3D
 Structure written by MMmdl.
167175  0  0  1  0            999 V2000
  -30.7398  -14.4684   20.5951 C   0  0  0  0  0  0
  -30.4179  -12.3185   19.4249 C   0  0  0  0  0  0
  -29.4932  -12.5154   18.2078 C   0  0  0  0  0  0
  -28.0125  -12.3913   18.6155 C   0  0  0  0  0  0
  -27.6598  -13.2222   19.8783 C   0  0  2  0  0  0
  -28.7046  -13.0186   21.0006 C   0  0  0  0  0  0
  -25.2568  -13.8199   20.5702 C   0  0  0  0  0  0
  -24.1828  -13.0449   20.9174 C   0  0  0  0  0  0
  -24.6405  -11.6926   20.8712 C   0  0  0  0  0  0
  -23.9083  -10.4298   21.0383 C   0  0  0  0  0  0
  -24.3639   -9.4213   21.9159 C   0  0  0  0  0  0
  -23.6308   -8.2251   22.0745 C   0  0  0  0  0  0
  -22.4292   -8.0284   21.3541 C   0  0  0  0  0  0
  -21.9930   -9.0251   20.4643 C   0  0  0  0  0  0
  -22.7257  -10.2134   20.3030 C   0  0  0  0  0  0
  -21.6862   -6.0734   22.5281 C   0  0  0  0  0  0
  -21.4019   -6.5635   23.8214 C   0  0  0  0  0  0
  -21.3663   -5.6783   24.9172 C   0  0  0  0  0  0
  -21.6049   -4.3040   24.7220 C   0  0  0  0  0  0
  -21.8826   -3.8141   23.4332 C   0  0  0  0  0  0
  -21.9201   -4.6962   22.3398 C   0  0  0  0  0  0
  -22.7842  -13.5214   21.1830 C   0  0  0  0  0  0
  -22.1660   -4.2155   21.0969 F   0  0  0  0  0  0
  -21.5651   -3.4516   25.7725 F   0  0  0  0  0  0
  -30.0356  -13.3134   20.4408 N   0  0  0  0  0  0
  -26.3025  -12.9398   20.3404 N   0  0  0  0  0  0
  -25.9348  -11.6533   20.5769 N   0  0  0  0  0  0
  -22.0501  -12.8170   22.0377 N   0  0  0  0  0  0
  -25.4299  -15.1903   20.4108 N   0  0  0  0  0  0
  -31.8531  -14.6412   20.0915 O   0  0  0  0  0  0
  -21.6666   -6.8871   21.4233 O   0  0  0  0  0  0
  -22.3497  -14.5510   20.6698 O   0  0  0  0  0  0
  -24.6159  -31.8683   23.2127 C   0  0  0  0  0  0
  -25.9046  -32.4833   23.8417 C   0  0  1  0  0  0
  -27.2287  -27.4290   20.0662 C   0  0  0  0  0  0
  -25.5905  -33.8628   24.2353 N   0  0  0  0  0  0
  -23.4015  -30.4937   21.5553 C   0  0  2  0  0  0
  -24.8428  -28.9615   20.1168 C   0  0  0  0  0  0
  -22.7424  -29.4642   22.5008 C   0  0  0  0  0  0
  -18.0286  -28.1354   22.8490 C   0  0  0  0  0  0
  -24.1482  -36.7308   23.2636 C   0  0  0  0  0  0
  -25.9333  -30.8297   21.3657 C   0  0  0  0  0  0
  -26.0064  -29.4647   20.7077 C   0  0  0  0  0  0
  -27.2007  -28.7058   20.6770 C   0  0  0  0  0  0
  -26.0311  -26.9308   19.4983 C   0  0  0  0  0  0
  -24.8497  -27.6940   19.5145 C   0  0  0  0  0  0
  -23.6095  -29.8344   20.1665 C   0  0  0  0  0  0
  -25.4102  -36.3115   24.0342 C   0  0  1  0  0  0
  -20.5870  -28.3637   23.1335 C   0  0  2  0  0  0
  -20.6765  -26.9372   22.5424 C   0  0  0  0  0  0
  -19.5747  -26.6374   21.5206 C   0  0  0  0  0  0
  -18.1924  -26.7906   22.1614 C   0  0  0  0  0  0
  -19.1529  -28.8813   23.2906 C   0  0  0  0  0  0
  -18.9449  -30.1422   23.8910 C   0  0  0  0  0  0
  -17.6451  -30.6565   24.0556 C   0  0  0  0  0  0
  -25.9033  -34.9479   23.5149 C   0  0  0  0  0  0
  -16.5346  -29.9064   23.6315 C   0  0  0  0  0  0
  -16.7271  -28.6482   23.0338 C   0  0  0  0  0  0
  -26.4485  -31.6593   25.0727 C   0  0  0  0  0  0
  -25.3778  -31.3649   26.1495 C   0  0  0  0  0  0
  -27.0299  -30.3053   24.6038 C   0  0  0  0  0  0
  -27.6080  -32.4295   25.7470 C   0  0  0  0  0  0
  -27.5583  -37.1801   24.8470 C   0  0  0  0  0  0
  -21.4148  -29.3013   22.3756 N   0  0  0  0  0  0
  -26.4285  -37.3803   23.9418 N   0  0  0  0  0  0
  -24.6695  -31.0784   22.1035 N   0  0  0  0  0  0
  -23.4205  -28.8176   23.3029 O   0  0  0  0  0  0
  -28.4236  -26.7276   20.0527 O   0  0  0  0  0  0
  -26.5573  -34.8922   22.4700 O   0  0  0  0  0  0
  -23.5346  -32.1441   23.7512 O   0  0  0  0  0  0
  -29.5025  -22.9346   21.6216 C   0  0  0  0  0  0
  -29.6966  -21.6094   22.0501 C   0  0  0  0  0  0
  -29.7683  -23.2738   20.2790 C   0  0  0  0  0  0
  -30.1593  -20.6529   21.1275 C   0  0  0  0  0  0
  -30.1129  -22.2171   19.3943 C   0  0  0  0  0  0
  -29.0495  -21.9903   17.1077 C   0  0  0  0  0  0
  -29.5867  -26.7229   17.3634 C   0  0  0  0  0  0
  -29.8334  -24.7669   19.9049 C   0  0  0  0  0  0
  -30.7181  -19.3117   21.6052 C   0  0  0  0  0  0
  -30.3036  -22.3997   17.8955 C   0  0  0  0  0  0
  -28.5649  -25.6794   17.8482 C   0  0  0  0  0  0
  -30.0216  -18.0248   21.0984 C   0  0  0  0  0  0
  -30.7411  -16.7562   21.6393 C   0  0  0  0  0  0
  -28.5393  -25.4530   19.3851 C   0  0  2  0  0  0
  -30.3121  -20.9460   19.8196 N   0  0  0  0  0  0
  -30.1273  -15.4676   21.2646 N   0  0  0  0  0  0
  -31.4642  -12.4048   19.1273 H   0  0  0  0  0  0
  -30.3123  -11.3108   19.8303 H   0  0  0  0  0  0
  -29.7279  -11.7945   17.4246 H   0  0  0  0  0  0
  -29.6668  -13.4996   17.7703 H   0  0  0  0  0  0
  -27.7905  -11.3376   18.7808 H   0  0  0  0  0  0
  -27.3815  -12.7075   17.7836 H   0  0  0  0  0  0
  -27.6998  -14.2714   19.5819 H   0  0  0  0  0  0
  -28.6805  -11.9903   21.3610 H   0  0  0  0  0  0
  -28.4697  -13.6366   21.8687 H   0  0  0  0  0  0
  -25.2803   -9.5657   22.4708 H   0  0  0  0  0  0
  -24.0038   -7.4614   22.7425 H   0  0  0  0  0  0
  -21.0890   -8.8730   19.8913 H   0  0  0  0  0  0
  -22.3716  -10.9653   19.6105 H   0  0  0  0  0  0
  -21.2003   -7.6144   23.9710 H   0  0  0  0  0  0
  -21.1492   -6.0515   25.9079 H   0  0  0  0  0  0
  -22.0610   -2.7605   23.2831 H   0  0  0  0  0  0
  -22.4200  -11.9874   22.4784 H   0  0  0  0  0  0
  -21.1091  -13.1101   22.2582 H   0  0  0  0  0  0
  -24.6694  -15.8511   20.5219 H   0  0  0  0  0  0
  -26.2886  -15.6220   20.0925 H   0  0  0  0  0  0
  -26.7101  -32.5535   23.1157 H   0  0  0  0  0  0
  -25.0115  -33.9807   25.0541 H   0  0  0  0  0  0
  -22.6903  -31.3113   21.4210 H   0  0  0  0  0  0
  -23.3754  -35.9634   23.3310 H   0  0  0  0  0  0
  -24.3586  -36.8918   22.2053 H   0  0  0  0  0  0
  -23.7217  -37.6508   23.6645 H   0  0  0  0  0  0
  -26.0473  -31.5992   20.6006 H   0  0  0  0  0  0
  -26.8215  -30.8807   21.9836 H   0  0  0  0  0  0
  -28.1066  -29.0986   21.1170 H   0  0  0  0  0  0
  -25.9787  -25.9592   19.0327 H   0  0  0  0  0  0
  -23.9502  -27.2993   19.0627 H   0  0  0  0  0  0
  -23.7267  -30.6171   19.4160 H   0  0  0  0  0  0
  -22.7298  -29.2656   19.8614 H   0  0  0  0  0  0
  -25.1268  -36.1997   25.0831 H   0  0  0  0  0  0
  -20.9940  -28.3173   24.1464 H   0  0  0  0  0  0
  -20.5669  -26.2220   23.3595 H   0  0  0  0  0  0
  -21.6636  -26.7419   22.1209 H   0  0  0  0  0  0
  -19.6907  -25.6293   21.1216 H   0  0  0  0  0  0
  -19.6697  -27.3204   20.6752 H   0  0  0  0  0  0
  -17.4196  -26.6669   21.4012 H   0  0  0  0  0  0
  -18.0322  -26.0037   22.8999 H   0  0  0  0  0  0
  -19.7921  -30.7234   24.2289 H   0  0  0  0  0  0
  -17.5003  -31.6250   24.5148 H   0  0  0  0  0  0
  -15.5345  -30.2964   23.7628 H   0  0  0  0  0  0
  -15.8677  -28.0811   22.7030 H   0  0  0  0  0  0
  -24.5980  -30.6955   25.7846 H   0  0  0  0  0  0
  -24.8923  -32.2768   26.4981 H   0  0  0  0  0  0
  -25.8182  -30.8821   27.0229 H   0  0  0  0  0  0
  -26.2792  -29.6815   24.1166 H   0  0  0  0  0  0
  -27.4200  -29.7286   25.4434 H   0  0  0  0  0  0
  -27.8582  -30.4420   23.9080 H   0  0  0  0  0  0
  -27.2743  -33.3617   26.2041 H   0  0  0  0  0  0
  -28.3881  -32.6814   25.0272 H   0  0  0  0  0  0
  -28.0742  -31.8405   26.5381 H   0  0  0  0  0  0
  -28.2596  -38.0104   24.7536 H   0  0  0  0  0  0
  -28.1080  -36.2638   24.6269 H   0  0  0  0  0  0
  -27.2310  -37.1428   25.8876 H   0  0  0  0  0  0
  -20.9312  -29.8761   21.7003 H   0  0  0  0  0  0
  -26.0187  -38.2879   24.1445 H   0  0  0  0  0  0
  -29.2334  -23.6966   22.3395 H   0  0  0  0  0  0
  -29.5792  -21.3565   23.0970 H   0  0  0  0  0  0
  -29.1728  -22.2025   16.0461 H   0  0  0  0  0  0
  -28.1659  -22.5249   17.4612 H   0  0  0  0  0  0
  -28.8469  -20.9243   17.2164 H   0  0  0  0  0  0
  -29.5252  -26.8484   16.2820 H   0  0  0  0  0  0
  -30.6139  -26.4362   17.5942 H   0  0  0  0  0  0
  -29.3943  -27.6970   17.8140 H   0  0  0  0  0  0
  -30.6737  -24.9360   19.2333 H   0  0  0  0  0  0
  -30.1388  -25.2897   20.8131 H   0  0  0  0  0  0
  -30.7053  -19.3065   22.6945 H   0  0  0  0  0  0
  -31.7722  -19.2852   21.3241 H   0  0  0  0  0  0
  -31.1390  -21.7792   17.5660 H   0  0  0  0  0  0
  -30.5914  -23.4194   17.6481 H   0  0  0  0  0  0
  -28.7549  -24.7357   17.3434 H   0  0  0  0  0  0
  -27.5817  -25.9870   17.4937 H   0  0  0  0  0  0
  -30.0288  -18.0233   20.0104 H   0  0  0  0  0  0
  -28.9763  -18.0345   21.4048 H   0  0  0  0  0  0
  -30.7665  -16.7976   22.7287 H   0  0  0  0  0  0
  -31.7863  -16.7909   21.3284 H   0  0  0  0  0  0
  -27.6992  -24.8150   19.6644 H   0  0  0  0  0  0
  -29.2051  -15.2726   21.6271 H   0  0  0  0  0  0
  1 25  1  0  0  0
  1 30  2  0  0  0
  1 86  1  0  0  0
  2  3  1  0  0  0
  2 25  1  0  0  0
  2 87  1  0  0  0
  2 88  1  0  0  0
  3  4  1  0  0  0
  3 89  1  0  0  0
  3 90  1  0  0  0
  4  5  1  0  0  0
  4 91  1  0  0  0
  4 92  1  0  0  0
  5  6  1  0  0  0
  5 26  1  0  0  0
  5 93  1  0  0  0
  6 25  1  0  0  0
  6 94  1  0  0  0
  6 95  1  0  0  0
  7  8  2  0  0  0
  7 26  1  0  0  0
  7 29  1  0  0  0
  8  9  1  0  0  0
  8 22  1  0  0  0
  9 10  1  0  0  0
  9 27  2  0  0  0
 10 11  2  0  0  0
 10 15  1  0  0  0
 11 12  1  0  0  0
 11 96  1  0  0  0
 12 13  2  0  0  0
 12 97  1  0  0  0
 13 14  1  0  0  0
 13 31  1  0  0  0
 14 15  2  0  0  0
 14 98  1  0  0  0
 15 99  1  0  0  0
 16 17  2  0  0  0
 16 21  1  0  0  0
 16 31  1  0  0  0
 17 18  1  0  0  0
 17100  1  0  0  0
 18 19  2  0  0  0
 18101  1  0  0  0
 19 20  1  0  0  0
 19 24  1  0  0  0
 20 21  2  0  0  0
 20102  1  0  0  0
 21 23  1  0  0  0
 22 28  1  0  0  0
 22 32  2  0  0  0
 26 27  1  0  0  0
 28103  1  0  0  0
 28104  1  0  0  0
 29105  1  0  0  0
 29106  1  0  0  0
 33 34  1  0  0  0
 33 66  1  0  0  0
 33 70  2  0  0  0
 34 36  1  0  0  0
 34 59  1  0  0  0
 34107  1  0  0  0
 35 44  2  0  0  0
 35 45  1  0  0  0
 35 68  1  0  0  0
 36 56  1  0  0  0
 36108  1  0  0  0
 37 39  1  0  0  0
 37 47  1  0  0  0
 37 66  1  0  0  0
 37109  1  0  0  0
 38 43  2  0  0  0
 38 46  1  0  0  0
 38 47  1  0  0  0
 39 64  1  0  0  0
 39 67  2  0  0  0
 40 52  1  0  0  0
 40 53  2  0  0  0
 40 58  1  0  0  0
 41110  1  0  0  0
 41111  1  0  0  0
 41112  1  0  0  0
 41 48  1  0  0  0
 42 43  1  0  0  0
 42 66  1  0  0  0
 42113  1  0  0  0
 42114  1  0  0  0
 43 44  1  0  0  0
 44115  1  0  0  0
 45 46  2  0  0  0
 45116  1  0  0  0
 46117  1  0  0  0
 47118  1  0  0  0
 47119  1  0  0  0
 48 56  1  0  0  0
 48 65  1  0  0  0
 48120  1  0  0  0
 49 50  1  0  0  0
 49 53  1  0  0  0
 49 64  1  0  0  0
 49121  1  0  0  0
 50 51  1  0  0  0
 50122  1  0  0  0
 50123  1  0  0  0
 51 52  1  0  0  0
 51124  1  0  0  0
 51125  1  0  0  0
 52126  1  0  0  0
 52127  1  0  0  0
 53 54  1  0  0  0
 54 55  2  0  0  0
 54128  1  0  0  0
 55 57  1  0  0  0
 55129  1  0  0  0
 56 69  2  0  0  0
 57 58  2  0  0  0
 57130  1  0  0  0
 58131  1  0  0  0
 59 60  1  0  0  0
 59 61  1  0  0  0
 59 62  1  0  0  0
 60132  1  0  0  0
 60133  1  0  0  0
 60134  1  0  0  0
 61135  1  0  0  0
 61136  1  0  0  0
 61137  1  0  0  0
 62138  1  0  0  0
 62139  1  0  0  0
 62140  1  0  0  0
 63 65  1  0  0  0
 63141  1  0  0  0
 63142  1  0  0  0
 63143  1  0  0  0
 64144  1  0  0  0
 65145  1  0  0  0
 68 84  1  0  0  0
 71 72  2  0  0  0
 71 73  1  0  0  0
 71146  1  0  0  0
 72 74  1  0  0  0
 72147  1  0  0  0
 73 75  2  0  0  0
 73 78  1  0  0  0
 74 79  1  0  0  0
 74 85  2  0  0  0
 75 80  1  0  0  0
 75 85  1  0  0  0
 76 80  1  0  0  0
 76148  1  0  0  0
 76149  1  0  0  0
 76150  1  0  0  0
 77 81  1  0  0  0
 77151  1  0  0  0
 77152  1  0  0  0
 77153  1  0  0  0
 78154  1  0  0  0
 78155  1  0  0  0
 78 84  1  0  0  0
 79 82  1  0  0  0
 79156  1  0  0  0
 79157  1  0  0  0
 80158  1  0  0  0
 80159  1  0  0  0
 81 84  1  0  0  0
 81160  1  0  0  0
 81161  1  0  0  0
 82 83  1  0  0  0
 82162  1  0  0  0
 82163  1  0  0  0
 83 86  1  0  0  0
 83164  1  0  0  0
 83165  1  0  0  0
 84166  1  0  0  0
 86167  1  0  0  0
M  ISO  4   1 100  68 101  84 101  86 100
M  END
> <chiral flag>
0

> <version>
0

> <s_m_source_file>
/data/baiqing/PycharmProjects/Reinvent-master-3.2/result/LINK_invent/BTK/process_docking_weight1_custom_sum_contain_oxygen_bond_distance_aromatic_linkinvent_7_9_3/rearranged_h_0036.sdf

> <i_m_source_file_index>
23

> <r_mmod_Potential_Energy-OPLS-2005>
-257.656372070312

> <r_mmod_Stretch_Energy-OPLS-2005>
40.3842811584473

> <r_mmod_Bend_Energy-OPLS-2005>
112.089012145996

> <r_mmod_Torsional_Energy-OPLS-2005>
194.973175048828

> <r_mmod_Improper_Torsional_Energy-OPLS-2005>
3.84483480453491

> <r_mmod_Van_der_Waal_Energy-OPLS-2005>
155.446563720703

> <r_mmod_Electrostatic_Energy-OPLS-2005>
-563.866577148438

> <r_mmod_Solvation_Energy-OPLS-2005>
-213.554656982422

> <b_mmod_Minimization_Converged-OPLS-2005>
0

> <r_mmod_RMS_Derivative-OPLS-2005>
3.56760573387146

$$$$
23
                    3D
 Structure written by MMmdl.
168176  0  0  1  0            999 V2000
  -30.6046  -14.4137   20.5230 C   0  0  0  0  0  0
  -30.4432  -12.2680   19.3602 C   0  0  0  0  0  0
  -29.4682  -12.4592   18.1722 C   0  0  0  0  0  0
  -27.9934  -12.3141   18.6041 C   0  0  0  0  0  0
  -27.6604  -13.1432   19.8723 C   0  0  2  0  0  0
  -28.7073  -12.8191   20.9664 C   0  0  0  0  0  0
  -25.2632  -13.8038   20.5589 C   0  0  0  0  0  0
  -24.1806  -13.0381   20.9177 C   0  0  0  0  0  0
  -24.6284  -11.6844   20.8797 C   0  0  0  0  0  0
  -23.8919  -10.4258   21.0447 C   0  0  0  0  0  0
  -24.3504   -9.4185   21.9192 C   0  0  0  0  0  0
  -23.6214   -8.2211   22.0759 C   0  0  0  0  0  0
  -22.4211   -8.0240   21.3537 C   0  0  0  0  0  0
  -21.9824   -9.0201   20.4638 C   0  0  0  0  0  0
  -22.7123  -10.2101   20.3052 C   0  0  0  0  0  0
  -21.6853   -6.0681   22.5270 C   0  0  0  0  0  0
  -21.3996   -6.5598   23.8194 C   0  0  0  0  0  0
  -21.3659   -5.6770   24.9173 C   0  0  0  0  0  0
  -21.6048   -4.3032   24.7238 C   0  0  0  0  0  0
  -21.8824   -3.8105   23.4367 C   0  0  0  0  0  0
  -21.9184   -4.6907   22.3407 C   0  0  0  0  0  0
  -22.7853  -13.5286   21.1863 C   0  0  0  0  0  0
  -22.1670   -4.2087   21.0989 F   0  0  0  0  0  0
  -21.5637   -3.4531   25.7759 F   0  0  0  0  0  0
  -30.0315  -13.1917   20.4179 N   0  0  0  0  0  0
  -26.2979  -12.9057   20.3372 N   0  0  0  0  0  0
  -25.9160  -11.6293   20.5744 N   0  0  0  0  0  0
  -22.0451  -12.8289   22.0460 N   0  0  0  0  0  0
  -25.4448  -15.1682   20.3902 N   0  0  0  0  0  0
  -31.7149  -14.7133   20.0694 O   0  0  0  0  0  0
  -21.6632   -6.8801   21.4221 O   0  0  0  0  0  0
  -22.3539  -14.5587   20.6742 O   0  0  0  0  0  0
  -24.6166  -31.8723   23.2182 C   0  0  0  0  0  0
  -25.9029  -32.4859   23.8450 C   0  0  1  0  0  0
  -27.1853  -27.4266   20.0536 C   0  0  0  0  0  0
  -25.5890  -33.8686   24.2339 N   0  0  0  0  0  0
  -23.3900  -30.5137   21.5605 C   0  0  2  0  0  0
  -24.8229  -28.9874   20.1117 C   0  0  0  0  0  0
  -22.7351  -29.4776   22.4973 C   0  0  0  0  0  0
  -18.0327  -28.1511   22.8364 C   0  0  0  0  0  0
  -24.1470  -36.7311   23.2638 C   0  0  0  0  0  0
  -25.9311  -30.8263   21.3810 C   0  0  0  0  0  0
  -25.9914  -29.4699   20.7126 C   0  0  0  0  0  0
  -27.1746  -28.6933   20.6890 C   0  0  0  0  0  0
  -25.9913  -26.9695   19.4410 C   0  0  0  0  0  0
  -24.8170  -27.7379   19.4758 C   0  0  0  0  0  0
  -23.5909  -29.8650   20.1723 C   0  0  0  0  0  0
  -25.4099  -36.3130   24.0332 C   0  0  1  0  0  0
  -20.5922  -28.3604   23.1218 C   0  0  2  0  0  0
  -20.6750  -26.9303   22.5286 C   0  0  0  0  0  0
  -19.5770  -26.6571   21.4989 C   0  0  0  0  0  0
  -18.2005  -26.8191   22.1403 C   0  0  0  0  0  0
  -19.1629  -28.8834   23.2864 C   0  0  0  0  0  0
  -18.9613  -30.1389   23.8920 C   0  0  0  0  0  0
  -17.6665  -30.6543   24.0768 C   0  0  0  0  0  0
  -25.9049  -34.9523   23.5130 C   0  0  0  0  0  0
  -16.5504  -29.9190   23.6452 C   0  0  0  0  0  0
  -16.7397  -28.6712   23.0258 C   0  0  0  0  0  0
  -26.4461  -31.6597   25.0759 C   0  0  0  0  0  0
  -25.3747  -31.3681   26.1507 C   0  0  0  0  0  0
  -27.0310  -30.3041   24.6149 C   0  0  0  0  0  0
  -27.6036  -32.4314   25.7561 C   0  0  0  0  0  0
  -27.5581  -37.1808   24.8464 C   0  0  0  0  0  0
  -21.4114  -29.2954   22.3536 N   0  0  0  0  0  0
  -26.4286  -37.3805   23.9434 N   0  0  0  0  0  0
  -24.6634  -31.0914   22.1051 N   0  0  0  0  0  0
  -23.4090  -28.8508   23.3160 O   0  0  0  0  0  0
  -28.3496  -26.6782   20.0474 O   0  0  0  0  0  0
  -26.5621  -34.8941   22.4702 O   0  0  0  0  0  0
  -23.5374  -32.1488   23.7507 O   0  0  0  0  0  0
  -26.1923  -18.8360   21.4526 C   0  0  0  0  0  0
  -28.4600  -18.5255   20.6385 C   0  0  0  0  0  0
  -27.2523  -19.2510   20.6213 C   0  0  0  0  0  0
  -26.3226  -17.7096   22.2971 C   0  0  0  0  0  0
  -28.6440  -17.4331   21.5077 C   0  0  0  0  0  0
  -27.5763  -17.0188   22.3661 C   0  0  0  0  0  0
  -27.7929  -15.8803   23.3748 C   0  0  0  0  0  0
  -24.4703  -18.2447   24.0123 C   0  0  0  0  0  0
  -27.0687  -20.3852   19.6104 C   0  0  0  0  0  0
  -25.0707  -17.2279   23.0404 C   0  0  0  0  0  0
  -29.9738  -16.6713   21.4522 C   0  0  0  0  0  0
  -26.8046  -21.7950   20.1962 C   0  0  0  0  0  0
  -27.8987  -22.8264   19.8274 C   0  0  0  0  0  0
  -27.6274  -24.2748   20.3005 C   0  0  0  0  0  0
  -28.3513  -25.3634   19.4567 C   0  0  0  0  0  0
  -29.7633  -15.2953   21.0626 N   0  0  0  0  0  0
  -31.4705  -12.4454   19.0353 H   0  0  0  0  0  0
  -30.4165  -11.2359   19.7192 H   0  0  0  0  0  0
  -29.6914  -11.7237   17.3988 H   0  0  0  0  0  0
  -29.6224  -13.4376   17.7086 H   0  0  0  0  0  0
  -27.8251  -11.2571   18.8138 H   0  0  0  0  0  0
  -27.3202  -12.5647   17.7831 H   0  0  0  0  0  0
  -27.7316  -14.1952   19.5987 H   0  0  0  0  0  0
  -28.6809  -11.7473   21.2124 H   0  0  0  0  0  0
  -28.4421  -13.2967   21.9097 H   0  0  0  0  0  0
  -25.2624   -9.5683   22.4790 H   0  0  0  0  0  0
  -23.9944   -7.4599   22.7462 H   0  0  0  0  0  0
  -21.0773   -8.8621   19.8954 H   0  0  0  0  0  0
  -22.3512  -10.9608   19.6159 H   0  0  0  0  0  0
  -21.1993   -7.6110   23.9672 H   0  0  0  0  0  0
  -21.1494   -6.0519   25.9068 H   0  0  0  0  0  0
  -22.0614   -2.7568   23.2889 H   0  0  0  0  0  0
  -22.3965  -11.9863   22.4750 H   0  0  0  0  0  0
  -21.1044  -13.1304   22.2641 H   0  0  0  0  0  0
  -24.6915  -15.8312   20.5117 H   0  0  0  0  0  0
  -26.3317  -15.6308   20.2287 H   0  0  0  0  0  0
  -26.7093  -32.5518   23.1208 H   0  0  0  0  0  0
  -25.0000  -33.9816   25.0460 H   0  0  0  0  0  0
  -22.6771  -31.3296   21.4405 H   0  0  0  0  0  0
  -23.3737  -35.9638   23.3313 H   0  0  0  0  0  0
  -24.3580  -36.8913   22.2059 H   0  0  0  0  0  0
  -23.7208  -37.6502   23.6685 H   0  0  0  0  0  0
  -26.0699  -31.5973   20.6194 H   0  0  0  0  0  0
  -26.8151  -30.8549   22.0066 H   0  0  0  0  0  0
  -28.0762  -29.0675   21.1549 H   0  0  0  0  0  0
  -25.9329  -26.0234   18.9240 H   0  0  0  0  0  0
  -23.9188  -27.3791   18.9919 H   0  0  0  0  0  0
  -23.6872  -30.6542   19.4259 H   0  0  0  0  0  0
  -22.7029  -29.3023   19.8767 H   0  0  0  0  0  0
  -25.1286  -36.1992   25.0833 H   0  0  0  0  0  0
  -21.0099  -28.3094   24.1245 H   0  0  0  0  0  0
  -20.5681  -26.1898   23.3209 H   0  0  0  0  0  0
  -21.6589  -26.7616   22.0964 H   0  0  0  0  0  0
  -19.6929  -27.3715   20.6861 H   0  0  0  0  0  0
  -19.6840  -25.6614   21.0668 H   0  0  0  0  0  0
  -17.4158  -26.7032   21.3831 H   0  0  0  0  0  0
  -18.0229  -26.0433   22.8758 H   0  0  0  0  0  0
  -19.8107  -30.7124   24.2313 H   0  0  0  0  0  0
  -17.5337  -31.6185   24.5464 H   0  0  0  0  0  0
  -15.5533  -30.3140   23.7813 H   0  0  0  0  0  0
  -15.8742  -28.1228   22.6597 H   0  0  0  0  0  0
  -24.5894  -30.7049   25.7840 H   0  0  0  0  0  0
  -24.8966  -32.2830   26.5066 H   0  0  0  0  0  0
  -25.8129  -30.8787   27.0204 H   0  0  0  0  0  0
  -26.2865  -29.6834   24.1138 H   0  0  0  0  0  0
  -27.3981  -29.7246   25.4622 H   0  0  0  0  0  0
  -27.8776  -30.4332   23.9381 H   0  0  0  0  0  0
  -27.2631  -33.3592   26.2185 H   0  0  0  0  0  0
  -28.3887  -32.6876   25.0436 H   0  0  0  0  0  0
  -28.0671  -31.8391   26.5457 H   0  0  0  0  0  0
  -28.2604  -38.0080   24.7534 H   0  0  0  0  0  0
  -28.1037  -36.2644   24.6266 H   0  0  0  0  0  0
  -27.2313  -37.1443   25.8844 H   0  0  0  0  0  0
  -20.9403  -29.8229   21.6337 H   0  0  0  0  0  0
  -26.0167  -38.2900   24.1362 H   0  0  0  0  0  0
  -25.2437  -19.3567   21.4320 H   0  0  0  0  0  0
  -29.2574  -18.7946   19.9622 H   0  0  0  0  0  0
  -26.9208  -15.2668   23.5967 H   0  0  0  0  0  0
  -28.2226  -16.2811   24.2971 H   0  0  0  0  0  0
  -28.4990  -15.1321   23.0580 H   0  0  0  0  0  0
  -24.0495  -19.1103   23.4961 H   0  0  0  0  0  0
  -25.2026  -18.6004   24.7322 H   0  0  0  0  0  0
  -23.6630  -17.7767   24.5827 H   0  0  0  0  0  0
  -26.2508  -20.0954   18.9473 H   0  0  0  0  0  0
  -27.9492  -20.4344   18.9691 H   0  0  0  0  0  0
  -25.2191  -16.3075   23.5901 H   0  0  0  0  0  0
  -24.3114  -16.9729   22.3018 H   0  0  0  0  0  0
  -30.4268  -16.6971   22.4461 H   0  0  0  0  0  0
  -30.6858  -17.1115   20.7473 H   0  0  0  0  0  0
  -26.6241  -21.7720   21.2720 H   0  0  0  0  0  0
  -25.8707  -22.1529   19.7535 H   0  0  0  0  0  0
  -27.9942  -22.8295   18.7445 H   0  0  0  0  0  0
  -28.8724  -22.5007   20.1925 H   0  0  0  0  0  0
  -27.9295  -24.3808   21.3408 H   0  0  0  0  0  0
  -26.5510  -24.4385   20.2748 H   0  0  0  0  0  0
  -27.9569  -25.3892   18.4383 H   0  0  0  0  0  0
  -29.3980  -25.0802   19.3412 H   0  0  0  0  0  0
  -28.8575  -14.9195   21.3028 H   0  0  0  0  0  0
  1 25  1  0  0  0
  1 30  2  0  0  0
  1 86  1  0  0  0
  2  3  1  0  0  0
  2 25  1  0  0  0
  2 87  1  0  0  0
  2 88  1  0  0  0
  3  4  1  0  0  0
  3 89  1  0  0  0
  3 90  1  0  0  0
  4  5  1  0  0  0
  4 91  1  0  0  0
  4 92  1  0  0  0
  5  6  1  0  0  0
  5 26  1  0  0  0
  5 93  1  0  0  0
  6 25  1  0  0  0
  6 94  1  0  0  0
  6 95  1  0  0  0
  7  8  2  0  0  0
  7 26  1  0  0  0
  7 29  1  0  0  0
  8  9  1  0  0  0
  8 22  1  0  0  0
  9 10  1  0  0  0
  9 27  2  0  0  0
 10 11  2  0  0  0
 10 15  1  0  0  0
 11 12  1  0  0  0
 11 96  1  0  0  0
 12 13  2  0  0  0
 12 97  1  0  0  0
 13 14  1  0  0  0
 13 31  1  0  0  0
 14 15  2  0  0  0
 14 98  1  0  0  0
 15 99  1  0  0  0
 16 17  2  0  0  0
 16 21  1  0  0  0
 16 31  1  0  0  0
 17 18  1  0  0  0
 17100  1  0  0  0
 18 19  2  0  0  0
 18101  1  0  0  0
 19 20  1  0  0  0
 19 24  1  0  0  0
 20 21  2  0  0  0
 20102  1  0  0  0
 21 23  1  0  0  0
 22 28  1  0  0  0
 22 32  2  0  0  0
 26 27  1  0  0  0
 28103  1  0  0  0
 28104  1  0  0  0
 29105  1  0  0  0
 29106  1  0  0  0
 33 34  1  0  0  0
 33 66  1  0  0  0
 33 70  2  0  0  0
 34 36  1  0  0  0
 34 59  1  0  0  0
 34107  1  0  0  0
 35 44  2  0  0  0
 35 45  1  0  0  0
 35 68  1  0  0  0
 36 56  1  0  0  0
 36108  1  0  0  0
 37 39  1  0  0  0
 37 47  1  0  0  0
 37 66  1  0  0  0
 37109  1  0  0  0
 38 43  2  0  0  0
 38 46  1  0  0  0
 38 47  1  0  0  0
 39 64  1  0  0  0
 39 67  2  0  0  0
 40 52  1  0  0  0
 40 53  2  0  0  0
 40 58  1  0  0  0
 41110  1  0  0  0
 41111  1  0  0  0
 41112  1  0  0  0
 41 48  1  0  0  0
 42 43  1  0  0  0
 42 66  1  0  0  0
 42113  1  0  0  0
 42114  1  0  0  0
 43 44  1  0  0  0
 44115  1  0  0  0
 45 46  2  0  0  0
 45116  1  0  0  0
 46117  1  0  0  0
 47118  1  0  0  0
 47119  1  0  0  0
 48 56  1  0  0  0
 48 65  1  0  0  0
 48120  1  0  0  0
 49 50  1  0  0  0
 49 53  1  0  0  0
 49 64  1  0  0  0
 49121  1  0  0  0
 50 51  1  0  0  0
 50122  1  0  0  0
 50123  1  0  0  0
 51 52  1  0  0  0
 51124  1  0  0  0
 51125  1  0  0  0
 52126  1  0  0  0
 52127  1  0  0  0
 53 54  1  0  0  0
 54 55  2  0  0  0
 54128  1  0  0  0
 55 57  1  0  0  0
 55129  1  0  0  0
 56 69  2  0  0  0
 57 58  2  0  0  0
 57130  1  0  0  0
 58131  1  0  0  0
 59 60  1  0  0  0
 59 61  1  0  0  0
 59 62  1  0  0  0
 60132  1  0  0  0
 60133  1  0  0  0
 60134  1  0  0  0
 61135  1  0  0  0
 61136  1  0  0  0
 61137  1  0  0  0
 62138  1  0  0  0
 62139  1  0  0  0
 62140  1  0  0  0
 63 65  1  0  0  0
 63141  1  0  0  0
 63142  1  0  0  0
 63143  1  0  0  0
 64144  1  0  0  0
 65145  1  0  0  0
 68 85  1  0  0  0
 71 73  2  0  0  0
 71 74  1  0  0  0
 71146  1  0  0  0
 72 73  1  0  0  0
 72 75  2  0  0  0
 72147  1  0  0  0
 73 79  1  0  0  0
 74 76  2  0  0  0
 74 80  1  0  0  0
 75 76  1  0  0  0
 75 81  1  0  0  0
 76 77  1  0  0  0
 77148  1  0  0  0
 77149  1  0  0  0
 77150  1  0  0  0
 78 80  1  0  0  0
 78151  1  0  0  0
 78152  1  0  0  0
 78153  1  0  0  0
 79 82  1  0  0  0
 79154  1  0  0  0
 79155  1  0  0  0
 80156  1  0  0  0
 80157  1  0  0  0
 81 86  1  0  0  0
 81158  1  0  0  0
 81159  1  0  0  0
 82 83  1  0  0  0
 82160  1  0  0  0
 82161  1  0  0  0
 83 84  1  0  0  0
 83162  1  0  0  0
 83163  1  0  0  0
 84 85  1  0  0  0
 84164  1  0  0  0
 84165  1  0  0  0
 85166  1  0  0  0
 85167  1  0  0  0
 86168  1  0  0  0
M  ISO  4   1 100  68 101  85 101  86 100
M  END
> <chiral flag>
0

> <version>
0

> <s_m_source_file>
/data/baiqing/PycharmProjects/Reinvent-master-3.2/result/LINK_invent/BTK/process_docking_weight1_custom_sum_contain_oxygen_bond_distance_aromatic_linkinvent_7_9_3/rearranged_h_0036.sdf

> <i_m_source_file_index>
24

> <r_mmod_Potential_Energy-OPLS-2005>
-55.3901710510254

> <r_mmod_Stretch_Energy-OPLS-2005>
40.6029472351074

> <r_mmod_Bend_Energy-OPLS-2005>
115.255836486816

> <r_mmod_Torsional_Energy-OPLS-2005>
211.795608520508

> <r_mmod_Improper_Torsional_Energy-OPLS-2005>
4.20426177978516

> <r_mmod_Van_der_Waal_Energy-OPLS-2005>
165.631530761719

> <r_mmod_Electrostatic_Energy-OPLS-2005>
-429.607788085938

> <r_mmod_Solvation_Energy-OPLS-2005>
-186.624176025391

> <b_mmod_Minimization_Converged-OPLS-2005>
0

> <r_mmod_RMS_Derivative-OPLS-2005>
13.9456758499146

$$$$
25
                    3D
 Structure written by MMmdl.
165173  0  0  1  0            999 V2000
  -30.7356  -14.3878   20.4917 C   0  0  0  0  0  0
  -30.4291  -12.2373   19.3836 C   0  0  0  0  0  0
  -29.4894  -12.4495   18.1811 C   0  0  0  0  0  0
  -28.0118  -12.3239   18.6108 C   0  0  0  0  0  0
  -27.6618  -13.1860   19.8553 C   0  0  2  0  0  0
  -28.7202  -12.9837   20.9664 C   0  0  0  0  0  0
  -25.2609  -13.8063   20.5770 C   0  0  0  0  0  0
  -24.1829  -13.0408   20.9206 C   0  0  0  0  0  0
  -24.6338  -11.6862   20.8678 C   0  0  0  0  0  0
  -23.9001  -10.4265   21.0358 C   0  0  0  0  0  0
  -24.3577   -9.4199   21.9146 C   0  0  0  0  0  0
  -23.6275   -8.2222   22.0727 C   0  0  0  0  0  0
  -22.4242   -8.0246   21.3546 C   0  0  0  0  0  0
  -21.9860   -9.0192   20.4634 C   0  0  0  0  0  0
  -22.7157  -10.2088   20.3037 C   0  0  0  0  0  0
  -21.6837   -6.0723   22.5289 C   0  0  0  0  0  0
  -21.3996   -6.5626   23.8215 C   0  0  0  0  0  0
  -21.3668   -5.6782   24.9172 C   0  0  0  0  0  0
  -21.6058   -4.3034   24.7228 C   0  0  0  0  0  0
  -21.8815   -3.8126   23.4335 C   0  0  0  0  0  0
  -21.9183   -4.6949   22.3403 C   0  0  0  0  0  0
  -22.7848  -13.5232   21.1860 C   0  0  0  0  0  0
  -22.1654   -4.2136   21.0982 F   0  0  0  0  0  0
  -21.5636   -3.4515   25.7745 F   0  0  0  0  0  0
  -30.0562  -13.2281   20.3870 N   0  0  0  0  0  0
  -26.3048  -12.9225   20.3345 N   0  0  0  0  0  0
  -25.9266  -11.6411   20.5670 N   0  0  0  0  0  0
  -22.0497  -12.8289   22.0433 N   0  0  0  0  0  0
  -25.4375  -15.1818   20.4367 N   0  0  0  0  0  0
  -31.9451  -14.5412   20.3195 O   0  0  0  0  0  0
  -21.6617   -6.8848   21.4250 O   0  0  0  0  0  0
  -22.3575  -14.5528   20.6618 O   0  0  0  0  0  0
  -24.6004  -31.8765   23.2167 C   0  0  0  0  0  0
  -25.8938  -32.4855   23.8412 C   0  0  1  0  0  0
  -27.2211  -27.4768   20.0986 C   0  0  0  0  0  0
  -25.5861  -33.8668   24.2354 N   0  0  0  0  0  0
  -23.3788  -30.5067   21.5566 C   0  0  2  0  0  0
  -24.8196  -28.9768   20.1190 C   0  0  0  0  0  0
  -22.7262  -29.4739   22.4983 C   0  0  0  0  0  0
  -18.0269  -28.1349   22.8542 C   0  0  0  0  0  0
  -24.1488  -36.7293   23.2632 C   0  0  0  0  0  0
  -25.9086  -30.8480   21.3714 C   0  0  0  0  0  0
  -25.9816  -29.4862   20.7175 C   0  0  0  0  0  0
  -27.1770  -28.7380   20.7216 C   0  0  0  0  0  0
  -26.0440  -26.9812   19.4918 C   0  0  0  0  0  0
  -24.8430  -27.7110   19.5128 C   0  0  0  0  0  0
  -23.5765  -29.8377   20.1732 C   0  0  0  0  0  0
  -25.4110  -36.3111   24.0338 C   0  0  1  0  0  0
  -20.5853  -28.3634   23.1330 C   0  0  2  0  0  0
  -20.6771  -26.9369   22.5435 C   0  0  0  0  0  0
  -19.5774  -26.6375   21.5220 C   0  0  0  0  0  0
  -18.1935  -26.7906   22.1623 C   0  0  0  0  0  0
  -19.1520  -28.8808   23.2951 C   0  0  0  0  0  0
  -18.9449  -30.1427   23.8941 C   0  0  0  0  0  0
  -17.6471  -30.6583   24.0567 C   0  0  0  0  0  0
  -25.9017  -34.9483   23.5141 C   0  0  0  0  0  0
  -16.5355  -29.9082   23.6359 C   0  0  0  0  0  0
  -16.7261  -28.6486   23.0382 C   0  0  0  0  0  0
  -26.4401  -31.6613   25.0714 C   0  0  0  0  0  0
  -25.3708  -31.3739   26.1495 C   0  0  0  0  0  0
  -27.0199  -30.3061   24.6068 C   0  0  0  0  0  0
  -27.5973  -32.4323   25.7464 C   0  0  0  0  0  0
  -27.5587  -37.1806   24.8464 C   0  0  0  0  0  0
  -21.4010  -29.3042   22.3710 N   0  0  0  0  0  0
  -26.4302  -37.3807   23.9395 N   0  0  0  0  0  0
  -24.6462  -31.0879   22.1078 N   0  0  0  0  0  0
  -23.4057  -28.8293   23.3003 O   0  0  0  0  0  0
  -28.4087  -26.7754   20.0972 O   0  0  0  0  0  0
  -26.5580  -34.8937   22.4707 O   0  0  0  0  0  0
  -23.5212  -32.1515   23.7592 O   0  0  0  0  0  0
  -27.5386  -22.2098   20.1158 C   0  0  0  0  0  0
  -27.2261  -23.3621   19.3736 C   0  0  0  0  0  0
  -26.4348  -21.4412   20.5349 C   0  0  0  0  0  0
  -25.0055  -22.8103   19.4205 C   0  0  0  0  0  0
  -28.9901  -21.8896   20.4644 C   0  0  0  0  0  0
  -23.5840  -23.1810   19.0617 C   0  0  0  0  0  0
  -28.2206  -24.4898   19.1410 C   0  0  0  0  0  0
  -28.0231  -18.3827   21.5295 C   0  0  0  0  0  0
  -28.6888  -17.3737   20.6162 C   0  0  0  0  0  0
  -27.0379  -19.1810   20.6734 C   0  0  0  0  0  0
  -29.7092  -16.4724   21.2900 C   0  0  0  0  0  0
  -28.3080  -25.3837   20.3985 C   0  0  0  0  0  0
  -25.9604  -23.6225   19.0023 N   0  0  0  0  0  0
  -25.1824  -21.7455   20.1877 N   0  0  0  0  0  0
  -26.5471  -20.3460   21.3802 N   0  0  0  0  0  0
  -29.9243  -15.4173   20.3327 N   0  0  0  0  0  0
  -31.4727  -12.3301   19.0776 H   0  0  0  0  0  0
  -30.3216  -11.2308   19.7919 H   0  0  0  0  0  0
  -29.7101  -11.7188   17.4032 H   0  0  0  0  0  0
  -29.6662  -13.4290   17.7393 H   0  0  0  0  0  0
  -27.8232  -11.2702   18.8314 H   0  0  0  0  0  0
  -27.3518  -12.5796   17.7808 H   0  0  0  0  0  0
  -27.6864  -14.2271   19.5355 H   0  0  0  0  0  0
  -28.6774  -11.9638   21.3549 H   0  0  0  0  0  0
  -28.5247  -13.6394   21.8171 H   0  0  0  0  0  0
  -25.2722   -9.5692   22.4693 H   0  0  0  0  0  0
  -23.9961   -7.4641   22.7476 H   0  0  0  0  0  0
  -21.0768   -8.8724   19.8976 H   0  0  0  0  0  0
  -22.3596  -10.9623   19.6128 H   0  0  0  0  0  0
  -21.1985   -7.6125   23.9720 H   0  0  0  0  0  0
  -21.1501   -6.0508   25.9098 H   0  0  0  0  0  0
  -22.0589   -2.7597   23.2852 H   0  0  0  0  0  0
  -22.4108  -11.9947   22.4845 H   0  0  0  0  0  0
  -21.1113  -13.1305   22.2581 H   0  0  0  0  0  0
  -24.6872  -15.8362   20.6307 H   0  0  0  0  0  0
  -26.3194  -15.6333   20.2420 H   0  0  0  0  0  0
  -26.6964  -32.5559   23.1119 H   0  0  0  0  0  0
  -25.0072  -33.9866   25.0535 H   0  0  0  0  0  0
  -22.6672  -31.3263   21.4267 H   0  0  0  0  0  0
  -23.3764  -35.9620   23.3324 H   0  0  0  0  0  0
  -24.3578  -36.8865   22.2038 H   0  0  0  0  0  0
  -23.7227  -37.6515   23.6617 H   0  0  0  0  0  0
  -26.0250  -31.6168   20.6061 H   0  0  0  0  0  0
  -26.7986  -30.8897   21.9912 H   0  0  0  0  0  0
  -28.0587  -29.1184   21.2160 H   0  0  0  0  0  0
  -26.0216  -26.0383   18.9807 H   0  0  0  0  0  0
  -23.9538  -27.2999   19.0534 H   0  0  0  0  0  0
  -23.6592  -30.6175   19.4148 H   0  0  0  0  0  0
  -22.7032  -29.2478   19.8861 H   0  0  0  0  0  0
  -25.1282  -36.1998   25.0839 H   0  0  0  0  0  0
  -21.0003  -28.3248   24.1429 H   0  0  0  0  0  0
  -20.5697  -26.2232   23.3605 H   0  0  0  0  0  0
  -21.6630  -26.7469   22.1219 H   0  0  0  0  0  0
  -19.6933  -25.6300   21.1226 H   0  0  0  0  0  0
  -19.6711  -27.3210   20.6762 H   0  0  0  0  0  0
  -17.4201  -26.6697   21.3999 H   0  0  0  0  0  0
  -18.0326  -26.0012   22.8985 H   0  0  0  0  0  0
  -19.7934  -30.7234   24.2265 H   0  0  0  0  0  0
  -17.5036  -31.6269   24.5119 H   0  0  0  0  0  0
  -15.5355  -30.2985   23.7650 H   0  0  0  0  0  0
  -15.8656  -28.0788   22.7088 H   0  0  0  0  0  0
  -24.5851  -30.7092   25.7887 H   0  0  0  0  0  0
  -24.8919  -32.2908   26.4974 H   0  0  0  0  0  0
  -25.8095  -30.8921   27.0246 H   0  0  0  0  0  0
  -26.2763  -29.6914   24.0986 H   0  0  0  0  0  0
  -27.3826  -29.7200   25.4518 H   0  0  0  0  0  0
  -27.8661  -30.4372   23.9314 H   0  0  0  0  0  0
  -27.2597  -33.3627   26.2074 H   0  0  0  0  0  0
  -28.3782  -32.6907   25.0285 H   0  0  0  0  0  0
  -28.0652  -31.8430   26.5370 H   0  0  0  0  0  0
  -28.2613  -38.0097   24.7512 H   0  0  0  0  0  0
  -28.1069  -36.2627   24.6280 H   0  0  0  0  0  0
  -27.2297  -37.1439   25.8870 H   0  0  0  0  0  0
  -20.9055  -29.8639   21.6920 H   0  0  0  0  0  0
  -26.0182  -38.2895   24.1421 H   0  0  0  0  0  0
  -29.4091  -22.6303   21.1501 H   0  0  0  0  0  0
  -29.6054  -21.8892   19.5610 H   0  0  0  0  0  0
  -29.1083  -20.9078   20.9105 H   0  0  0  0  0  0
  -23.5383  -24.1650   18.5913 H   0  0  0  0  0  0
  -22.9636  -23.2046   19.9591 H   0  0  0  0  0  0
  -23.1629  -22.4506   18.3724 H   0  0  0  0  0  0
  -27.8841  -25.0754   18.2829 H   0  0  0  0  0  0
  -29.2017  -24.1073   18.8576 H   0  0  0  0  0  0
  -28.7780  -19.0231   21.9871 H   0  0  0  0  0  0
  -27.5001  -17.8826   22.3480 H   0  0  0  0  0  0
  -29.1856  -17.8918   19.7898 H   0  0  0  0  0  0
  -27.8999  -16.7613   20.1709 H   0  0  0  0  0  0
  -26.1904  -18.5492   20.4012 H   0  0  0  0  0  0
  -27.5112  -19.4678   19.7318 H   0  0  0  0  0  0
  -29.2962  -16.0315   22.1985 H   0  0  0  0  0  0
  -30.6234  -17.0088   21.5464 H   0  0  0  0  0  0
  -29.1584  -25.0913   21.0124 H   0  0  0  0  0  0
  -27.4402  -25.2214   21.0458 H   0  0  0  0  0  0
  -25.6434  -20.1433   21.7924 H   0  0  0  0  0  0
  -29.0963  -15.1746   19.8137 H   0  0  0  0  0  0
  1 25  1  0  0  0
  1 30  2  0  0  0
  1 86  1  0  0  0
  2  3  1  0  0  0
  2 25  1  0  0  0
  2 87  1  0  0  0
  2 88  1  0  0  0
  3  4  1  0  0  0
  3 89  1  0  0  0
  3 90  1  0  0  0
  4  5  1  0  0  0
  4 91  1  0  0  0
  4 92  1  0  0  0
  5  6  1  0  0  0
  5 26  1  0  0  0
  5 93  1  0  0  0
  6 25  1  0  0  0
  6 94  1  0  0  0
  6 95  1  0  0  0
  7  8  2  0  0  0
  7 26  1  0  0  0
  7 29  1  0  0  0
  8  9  1  0  0  0
  8 22  1  0  0  0
  9 10  1  0  0  0
  9 27  2  0  0  0
 10 11  2  0  0  0
 10 15  1  0  0  0
 11 12  1  0  0  0
 11 96  1  0  0  0
 12 13  2  0  0  0
 12 97  1  0  0  0
 13 14  1  0  0  0
 13 31  1  0  0  0
 14 15  2  0  0  0
 14 98  1  0  0  0
 15 99  1  0  0  0
 16 17  2  0  0  0
 16 21  1  0  0  0
 16 31  1  0  0  0
 17 18  1  0  0  0
 17100  1  0  0  0
 18 19  2  0  0  0
 18101  1  0  0  0
 19 20  1  0  0  0
 19 24  1  0  0  0
 20 21  2  0  0  0
 20102  1  0  0  0
 21 23  1  0  0  0
 22 28  1  0  0  0
 22 32  2  0  0  0
 26 27  1  0  0  0
 28103  1  0  0  0
 28104  1  0  0  0
 29105  1  0  0  0
 29106  1  0  0  0
 33 34  1  0  0  0
 33 66  1  0  0  0
 33 70  2  0  0  0
 34 36  1  0  0  0
 34 59  1  0  0  0
 34107  1  0  0  0
 35 44  2  0  0  0
 35 45  1  0  0  0
 35 68  1  0  0  0
 36 56  1  0  0  0
 36108  1  0  0  0
 37 39  1  0  0  0
 37 47  1  0  0  0
 37 66  1  0  0  0
 37109  1  0  0  0
 38 43  2  0  0  0
 38 46  1  0  0  0
 38 47  1  0  0  0
 39 64  1  0  0  0
 39 67  2  0  0  0
 40 52  1  0  0  0
 40 53  2  0  0  0
 40 58  1  0  0  0
 41110  1  0  0  0
 41111  1  0  0  0
 41112  1  0  0  0
 41 48  1  0  0  0
 42 43  1  0  0  0
 42 66  1  0  0  0
 42113  1  0  0  0
 42114  1  0  0  0
 43 44  1  0  0  0
 44115  1  0  0  0
 45 46  2  0  0  0
 45116  1  0  0  0
 46117  1  0  0  0
 47118  1  0  0  0
 47119  1  0  0  0
 48 56  1  0  0  0
 48 65  1  0  0  0
 48120  1  0  0  0
 49 50  1  0  0  0
 49 53  1  0  0  0
 49 64  1  0  0  0
 49121  1  0  0  0
 50 51  1  0  0  0
 50122  1  0  0  0
 50123  1  0  0  0
 51 52  1  0  0  0
 51124  1  0  0  0
 51125  1  0  0  0
 52126  1  0  0  0
 52127  1  0  0  0
 53 54  1  0  0  0
 54 55  2  0  0  0
 54128  1  0  0  0
 55 57  1  0  0  0
 55129  1  0  0  0
 56 69  2  0  0  0
 57 58  2  0  0  0
 57130  1  0  0  0
 58131  1  0  0  0
 59 60  1  0  0  0
 59 61  1  0  0  0
 59 62  1  0  0  0
 60132  1  0  0  0
 60133  1  0  0  0
 60134  1  0  0  0
 61135  1  0  0  0
 61136  1  0  0  0
 61137  1  0  0  0
 62138  1  0  0  0
 62139  1  0  0  0
 62140  1  0  0  0
 63 65  1  0  0  0
 63141  1  0  0  0
 63142  1  0  0  0
 63143  1  0  0  0
 64144  1  0  0  0
 65145  1  0  0  0
 68 82  1  0  0  0
 71 72  2  0  0  0
 71 73  1  0  0  0
 71 75  1  0  0  0
 72 77  1  0  0  0
 72 83  1  0  0  0
 73 84  2  0  0  0
 73 85  1  0  0  0
 74 76  1  0  0  0
 74 83  2  0  0  0
 74 84  1  0  0  0
 75146  1  0  0  0
 75147  1  0  0  0
 75148  1  0  0  0
 76149  1  0  0  0
 76150  1  0  0  0
 76151  1  0  0  0
 77 82  1  0  0  0
 77152  1  0  0  0
 77153  1  0  0  0
 78 79  1  0  0  0
 78 80  1  0  0  0
 78154  1  0  0  0
 78155  1  0  0  0
 79 81  1  0  0  0
 79156  1  0  0  0
 79157  1  0  0  0
 80 85  1  0  0  0
 80158  1  0  0  0
 80159  1  0  0  0
 81 86  1  0  0  0
 81160  1  0  0  0
 81161  1  0  0  0
 82162  1  0  0  0
 82163  1  0  0  0
 85164  1  0  0  0
 86165  1  0  0  0
M  ISO  4   1 100  68 101  82 101  86 100
M  END
> <chiral flag>
0

> <version>
0

> <s_m_source_file>
/data/baiqing/PycharmProjects/Reinvent-master-3.2/result/LINK_invent/BTK/process_docking_weight1_custom_sum_contain_oxygen_bond_distance_aromatic_linkinvent_7_9_3/rearranged_h_0036.sdf

> <i_m_source_file_index>
25

> <r_mmod_Potential_Energy-OPLS-2005>
-477.320190429688

> <r_mmod_Stretch_Energy-OPLS-2005>
30.0987339019775

> <r_mmod_Bend_Energy-OPLS-2005>
105.693969726562

> <r_mmod_Torsional_Energy-OPLS-2005>
293.225189208984

> <r_mmod_Improper_Torsional_Energy-OPLS-2005>
22.948600769043

> <r_mmod_Van_der_Waal_Energy-OPLS-2005>
165.946624755859

> <r_mmod_Electrostatic_Energy-OPLS-2005>
-881.810913085938

> <r_mmod_Solvation_Energy-OPLS-2005>
-237.825546264648

> <b_mmod_Minimization_Converged-OPLS-2005>
0

> <r_mmod_RMS_Derivative-OPLS-2005>
7.97050523757935

$$$$
26
                    3D
 Structure written by MMmdl.
161169  0  0  1  0            999 V2000
  -30.5820  -14.7512   20.4552 C   0  0  0  0  0  0
  -30.4405  -12.4659   19.4402 C   0  0  0  0  0  0
  -29.4911  -12.4776   18.2208 C   0  0  0  0  0  0
  -28.0187  -12.3189   18.6492 C   0  0  0  0  0  0
  -27.6384  -13.2241   19.8492 C   0  0  2  0  0  0
  -28.6902  -13.1532   20.9718 C   0  0  0  0  0  0
  -25.2515  -13.8201   20.5756 C   0  0  0  0  0  0
  -24.1801  -13.0471   20.9257 C   0  0  0  0  0  0
  -24.6387  -11.6933   20.8800 C   0  0  0  0  0  0
  -23.9067  -10.4324   21.0463 C   0  0  0  0  0  0
  -24.3619   -9.4229   21.9223 C   0  0  0  0  0  0
  -23.6318   -8.2251   22.0762 C   0  0  0  0  0  0
  -22.4304   -8.0309   21.3552 C   0  0  0  0  0  0
  -21.9954   -9.0273   20.4640 C   0  0  0  0  0  0
  -22.7263  -10.2163   20.3087 C   0  0  0  0  0  0
  -21.6852   -6.0766   22.5275 C   0  0  0  0  0  0
  -21.4006   -6.5658   23.8211 C   0  0  0  0  0  0
  -21.3650   -5.6800   24.9170 C   0  0  0  0  0  0
  -21.6039   -4.3063   24.7220 C   0  0  0  0  0  0
  -21.8819   -3.8165   23.4339 C   0  0  0  0  0  0
  -21.9210   -4.6996   22.3397 C   0  0  0  0  0  0
  -22.7821  -13.5235   21.1909 C   0  0  0  0  0  0
  -22.1678   -4.2176   21.0982 F   0  0  0  0  0  0
  -21.5636   -3.4550   25.7740 F   0  0  0  0  0  0
  -29.9793  -13.5167   20.3721 N   0  0  0  0  0  0
  -26.2937  -12.9374   20.3351 N   0  0  0  0  0  0
  -25.9317  -11.6538   20.5837 N   0  0  0  0  0  0
  -22.0466  -12.8196   22.0431 N   0  0  0  0  0  0
  -25.4239  -15.1927   20.4165 N   0  0  0  0  0  0
  -31.7872  -14.8667   20.2210 O   0  0  0  0  0  0
  -21.6656   -6.8917   21.4244 O   0  0  0  0  0  0
  -22.3517  -14.5562   20.6793 O   0  0  0  0  0  0
  -24.6321  -31.8553   23.1978 C   0  0  0  0  0  0
  -25.9147  -32.4756   23.8313 C   0  0  1  0  0  0
  -27.2120  -27.2560   20.1300 C   0  0  0  0  0  0
  -25.5953  -33.8551   24.2247 N   0  0  0  0  0  0
  -23.4251  -30.4777   21.5451 C   0  0  2  0  0  0
  -24.8712  -28.9276   20.1101 C   0  0  0  0  0  0
  -22.7480  -29.4621   22.4971 C   0  0  0  0  0  0
  -18.0258  -28.1348   22.8509 C   0  0  0  0  0  0
  -24.1477  -36.7219   23.2652 C   0  0  0  0  0  0
  -25.9729  -30.7727   21.3762 C   0  0  0  0  0  0
  -26.0467  -29.3990   20.7062 C   0  0  0  0  0  0
  -27.2201  -28.5767   20.6969 C   0  0  0  0  0  0
  -26.0006  -26.8401   19.5325 C   0  0  0  0  0  0
  -24.8532  -27.6566   19.5177 C   0  0  0  0  0  0
  -23.6339  -29.8032   20.1659 C   0  0  0  0  0  0
  -25.4123  -36.3039   24.0324 C   0  0  1  0  0  0
  -20.5887  -28.3652   23.1285 C   0  0  2  0  0  0
  -20.6771  -26.9376   22.5405 C   0  0  0  0  0  0
  -19.5739  -26.6348   21.5228 C   0  0  0  0  0  0
  -18.1898  -26.7916   22.1612 C   0  0  0  0  0  0
  -19.1527  -28.8831   23.2869 C   0  0  0  0  0  0
  -18.9451  -30.1460   23.8844 C   0  0  0  0  0  0
  -17.6455  -30.6584   24.0536 C   0  0  0  0  0  0
  -25.9051  -34.9436   23.5074 C   0  0  0  0  0  0
  -16.5347  -29.9050   23.6381 C   0  0  0  0  0  0
  -16.7252  -28.6461   23.0419 C   0  0  0  0  0  0
  -26.4500  -31.6640   25.0746 C   0  0  0  0  0  0
  -25.3669  -31.3778   26.1406 C   0  0  0  0  0  0
  -27.0499  -30.3085   24.6360 C   0  0  0  0  0  0
  -27.5979  -32.4497   25.7545 C   0  0  0  0  0  0
  -27.5572  -37.1760   24.8478 C   0  0  0  0  0  0
  -21.4199  -29.3014   22.3680 N   0  0  0  0  0  0
  -26.4298  -37.3745   23.9411 N   0  0  0  0  0  0
  -24.6957  -31.0532   22.0946 N   0  0  0  0  0  0
  -23.4194  -28.8156   23.3049 O   0  0  0  0  0  0
  -28.3214  -26.3858   20.2110 O   0  0  0  0  0  0
  -26.5612  -34.8897   22.4624 O   0  0  0  0  0  0
  -23.5477  -32.1393   23.7278 O   0  0  0  0  0  0
  -28.6698  -22.3452   19.9164 C   0  0  0  0  0  0
  -28.5223  -21.1211   20.6860 C   0  0  0  0  0  0
  -27.9926  -21.3191   21.9821 C   0  0  0  0  0  0
  -28.2908  -23.6546   20.4345 C   0  0  0  0  0  0
  -27.6032  -22.6152   22.4147 C   0  0  0  0  0  0
  -24.5242  -22.7864   24.8713 C   0  0  0  0  0  0
  -28.6104  -19.6139   20.1354 C   0  0  0  0  0  0
  -26.8668  -22.7845   23.7416 C   0  0  0  0  0  0
  -28.3792  -25.0124   19.5894 C   0  0  0  0  0  0
  -25.3297  -22.7831   23.5611 C   0  0  0  0  0  0
  -29.9039  -18.6448   20.1620 C   0  0  0  0  0  0
  -30.0747  -17.2944   21.0587 C   0  0  0  0  0  0
  -27.7528  -23.7458   21.6727 N   0  0  0  0  0  0
  -29.7634  -15.8633   20.6071 N   0  0  0  0  0  0
  -27.7715  -20.2451   22.7796 F   0  0  0  0  0  0
  -31.4670  -12.6365   19.1032 H   0  0  0  0  0  0
  -30.4393  -11.4922   19.9300 H   0  0  0  0  0  0
  -29.7513  -11.6724   17.5315 H   0  0  0  0  0  0
  -29.6093  -13.4072   17.6648 H   0  0  0  0  0  0
  -27.8608  -11.2735   18.9100 H   0  0  0  0  0  0
  -27.3543  -12.5188   17.8079 H   0  0  0  0  0  0
  -27.6297  -14.2433   19.4661 H   0  0  0  0  0  0
  -28.7343  -12.1533   21.4008 H   0  0  0  0  0  0
  -28.4326  -13.8295   21.7899 H   0  0  0  0  0  0
  -25.2774   -9.5689   22.4793 H   0  0  0  0  0  0
  -24.0023   -7.4635   22.7469 H   0  0  0  0  0  0
  -21.0899   -8.8803   19.8914 H   0  0  0  0  0  0
  -22.3755  -10.9721   19.6192 H   0  0  0  0  0  0
  -21.1968   -7.6161   23.9721 H   0  0  0  0  0  0
  -21.1468   -6.0534   25.9070 H   0  0  0  0  0  0
  -22.0601   -2.7635   23.2843 H   0  0  0  0  0  0
  -22.4084  -11.9842   22.4775 H   0  0  0  0  0  0
  -21.1095  -13.1179   22.2668 H   0  0  0  0  0  0
  -24.6569  -15.8488   20.5249 H   0  0  0  0  0  0
  -26.2718  -15.6319   20.0811 H   0  0  0  0  0  0
  -26.7222  -32.5408   23.1076 H   0  0  0  0  0  0
  -25.0152  -33.9688   25.0430 H   0  0  0  0  0  0
  -22.7181  -31.2957   21.3991 H   0  0  0  0  0  0
  -23.3797  -35.9496   23.3309 H   0  0  0  0  0  0
  -24.3522  -36.8866   22.2065 H   0  0  0  0  0  0
  -23.7232  -37.6399   23.6703 H   0  0  0  0  0  0
  -26.1267  -31.5500   20.6264 H   0  0  0  0  0  0
  -26.8402  -30.8008   22.0265 H   0  0  0  0  0  0
  -28.1248  -28.9353   21.1694 H   0  0  0  0  0  0
  -25.8835  -25.8511   19.1185 H   0  0  0  0  0  0
  -23.9401  -27.2813   19.0788 H   0  0  0  0  0  0
  -23.7129  -30.5670   19.3900 H   0  0  0  0  0  0
  -22.7591  -29.2069   19.9018 H   0  0  0  0  0  0
  -25.1340  -36.1840   25.0827 H   0  0  0  0  0  0
  -20.9953  -28.3223   24.1426 H   0  0  0  0  0  0
  -20.5719  -26.2226   23.3579 H   0  0  0  0  0  0
  -21.6617  -26.7418   22.1174 H   0  0  0  0  0  0
  -19.6874  -25.6252   21.1264 H   0  0  0  0  0  0
  -19.6710  -27.3141   20.6750 H   0  0  0  0  0  0
  -17.4192  -26.6745   21.3963 H   0  0  0  0  0  0
  -18.0207  -26.0027   22.8959 H   0  0  0  0  0  0
  -19.7928  -30.7303   24.2177 H   0  0  0  0  0  0
  -17.5001  -31.6276   24.5106 H   0  0  0  0  0  0
  -15.5341  -30.2909   23.7783 H   0  0  0  0  0  0
  -15.8651  -28.0761   22.7204 H   0  0  0  0  0  0
  -24.5811  -30.7217   25.7641 H   0  0  0  0  0  0
  -24.8871  -32.2931   26.4862 H   0  0  0  0  0  0
  -25.7861  -30.8862   27.0183 H   0  0  0  0  0  0
  -26.3203  -29.6689   24.1383 H   0  0  0  0  0  0
  -27.4185  -29.7504   25.4977 H   0  0  0  0  0  0
  -27.8996  -30.4402   23.9665 H   0  0  0  0  0  0
  -27.2539  -33.3837   26.2014 H   0  0  0  0  0  0
  -28.3817  -32.7077   25.0405 H   0  0  0  0  0  0
  -28.0630  -31.8750   26.5570 H   0  0  0  0  0  0
  -28.2597  -38.0044   24.7568 H   0  0  0  0  0  0
  -28.1077  -36.2597   24.6320 H   0  0  0  0  0  0
  -27.2224  -37.1400   25.8851 H   0  0  0  0  0  0
  -20.9359  -29.8692   21.6884 H   0  0  0  0  0  0
  -26.0165  -38.2807   24.1413 H   0  0  0  0  0  0
  -29.0306  -22.2844   18.8989 H   0  0  0  0  0  0
  -23.4603  -22.9339   24.6701 H   0  0  0  0  0  0
  -24.8455  -23.5882   25.5406 H   0  0  0  0  0  0
  -24.6193  -21.8392   25.4057 H   0  0  0  0  0  0
  -28.3284  -19.7002   19.0858 H   0  0  0  0  0  0
  -27.7830  -19.0518   20.5706 H   0  0  0  0  0  0
  -27.1956  -23.7019   24.2302 H   0  0  0  0  0  0
  -27.1479  -21.9745   24.4136 H   0  0  0  0  0  0
  -27.7022  -24.9250   18.7419 H   0  0  0  0  0  0
  -29.3609  -24.9771   19.1184 H   0  0  0  0  0  0
  -25.0353  -23.6453   22.9617 H   0  0  0  0  0  0
  -25.0473  -21.8949   22.9937 H   0  0  0  0  0  0
  -30.7332  -19.2994   20.4249 H   0  0  0  0  0  0
  -30.1198  -18.3677   19.1283 H   0  0  0  0  0  0
  -29.5628  -17.4594   22.0066 H   0  0  0  0  0  0
  -31.1295  -17.2611   21.3355 H   0  0  0  0  0  0
  -28.7826  -15.6267   20.6345 H   0  0  0  0  0  0
  1 25  1  0  0  0
  1 30  2  0  0  0
  1 84  1  0  0  0
  2  3  1  0  0  0
  2 25  1  0  0  0
  2 86  1  0  0  0
  2 87  1  0  0  0
  3  4  1  0  0  0
  3 88  1  0  0  0
  3 89  1  0  0  0
  4  5  1  0  0  0
  4 90  1  0  0  0
  4 91  1  0  0  0
  5  6  1  0  0  0
  5 26  1  0  0  0
  5 92  1  0  0  0
  6 25  1  0  0  0
  6 93  1  0  0  0
  6 94  1  0  0  0
  7  8  2  0  0  0
  7 26  1  0  0  0
  7 29  1  0  0  0
  8  9  1  0  0  0
  8 22  1  0  0  0
  9 10  1  0  0  0
  9 27  2  0  0  0
 10 11  2  0  0  0
 10 15  1  0  0  0
 11 12  1  0  0  0
 11 95  1  0  0  0
 12 13  2  0  0  0
 12 96  1  0  0  0
 13 14  1  0  0  0
 13 31  1  0  0  0
 14 15  2  0  0  0
 14 97  1  0  0  0
 15 98  1  0  0  0
 16 17  2  0  0  0
 16 21  1  0  0  0
 16 31  1  0  0  0
 17 18  1  0  0  0
 17 99  1  0  0  0
 18 19  2  0  0  0
 18100  1  0  0  0
 19 20  1  0  0  0
 19 24  1  0  0  0
 20 21  2  0  0  0
 20101  1  0  0  0
 21 23  1  0  0  0
 22 28  1  0  0  0
 22 32  2  0  0  0
 26 27  1  0  0  0
 28102  1  0  0  0
 28103  1  0  0  0
 29104  1  0  0  0
 29105  1  0  0  0
 33 34  1  0  0  0
 33 66  1  0  0  0
 33 70  2  0  0  0
 34 36  1  0  0  0
 34 59  1  0  0  0
 34106  1  0  0  0
 35 44  2  0  0  0
 35 45  1  0  0  0
 35 68  1  0  0  0
 36 56  1  0  0  0
 36107  1  0  0  0
 37 39  1  0  0  0
 37 47  1  0  0  0
 37 66  1  0  0  0
 37108  1  0  0  0
 38 43  2  0  0  0
 38 46  1  0  0  0
 38 47  1  0  0  0
 39 64  1  0  0  0
 39 67  2  0  0  0
 40 52  1  0  0  0
 40 53  2  0  0  0
 40 58  1  0  0  0
 41109  1  0  0  0
 41110  1  0  0  0
 41111  1  0  0  0
 41 48  1  0  0  0
 42 43  1  0  0  0
 42 66  1  0  0  0
 42112  1  0  0  0
 42113  1  0  0  0
 43 44  1  0  0  0
 44114  1  0  0  0
 45 46  2  0  0  0
 45115  1  0  0  0
 46116  1  0  0  0
 47117  1  0  0  0
 47118  1  0  0  0
 48 56  1  0  0  0
 48 65  1  0  0  0
 48119  1  0  0  0
 49 50  1  0  0  0
 49 53  1  0  0  0
 49 64  1  0  0  0
 49120  1  0  0  0
 50 51  1  0  0  0
 50121  1  0  0  0
 50122  1  0  0  0
 51 52  1  0  0  0
 51123  1  0  0  0
 51124  1  0  0  0
 52125  1  0  0  0
 52126  1  0  0  0
 53 54  1  0  0  0
 54 55  2  0  0  0
 54127  1  0  0  0
 55 57  1  0  0  0
 55128  1  0  0  0
 56 69  2  0  0  0
 57 58  2  0  0  0
 57129  1  0  0  0
 58130  1  0  0  0
 59 60  1  0  0  0
 59 61  1  0  0  0
 59 62  1  0  0  0
 60131  1  0  0  0
 60132  1  0  0  0
 60133  1  0  0  0
 61134  1  0  0  0
 61135  1  0  0  0
 61136  1  0  0  0
 62137  1  0  0  0
 62138  1  0  0  0
 62139  1  0  0  0
 63 65  1  0  0  0
 63140  1  0  0  0
 63141  1  0  0  0
 63142  1  0  0  0
 64143  1  0  0  0
 65144  1  0  0  0
 68 79  1  0  0  0
 71 72  2  0  0  0
 71 74  1  0  0  0
 71145  1  0  0  0
 72 73  1  0  0  0
 72 77  1  0  0  0
 73 75  2  0  0  0
 73 85  1  0  0  0
 74 79  1  0  0  0
 74 83  2  0  0  0
 75 78  1  0  0  0
 75 83  1  0  0  0
 76 80  1  0  0  0
 76146  1  0  0  0
 76147  1  0  0  0
 76148  1  0  0  0
 77 81  1  0  0  0
 77149  1  0  0  0
 77150  1  0  0  0
 78 80  1  0  0  0
 78151  1  0  0  0
 78152  1  0  0  0
 79153  1  0  0  0
 79154  1  0  0  0
 80155  1  0  0  0
 80156  1  0  0  0
 81 82  1  0  0  0
 81157  1  0  0  0
 81158  1  0  0  0
 82 84  1  0  0  0
 82159  1  0  0  0
 82160  1  0  0  0
 84161  1  0  0  0
M  ISO  4   1 100  68 101  79 101  84 100
M  END
> <chiral flag>
0

> <version>
0

> <s_m_source_file>
/data/baiqing/PycharmProjects/Reinvent-master-3.2/result/LINK_invent/BTK/process_docking_weight1_custom_sum_contain_oxygen_bond_distance_aromatic_linkinvent_7_9_3/rearranged_h_0036.sdf

> <i_m_source_file_index>
26

> <r_mmod_Potential_Energy-OPLS-2005>
175.389617919922

> <r_mmod_Stretch_Energy-OPLS-2005>
130.025344848633

> <r_mmod_Bend_Energy-OPLS-2005>
209.704391479492

> <r_mmod_Torsional_Energy-OPLS-2005>
231.013031005859

> <r_mmod_Improper_Torsional_Energy-OPLS-2005>
7.49416828155518

> <r_mmod_Van_der_Waal_Energy-OPLS-2005>
133.656463623047

> <r_mmod_Electrostatic_Energy-OPLS-2005>
-408.276306152344

> <r_mmod_Solvation_Energy-OPLS-2005>
-218.853500366211

> <b_mmod_Minimization_Converged-OPLS-2005>
0

> <r_mmod_RMS_Derivative-OPLS-2005>
5.05494165420532

$$$$
27
                    3D
 Structure written by MMmdl.
176185  0  0  1  0            999 V2000
  -30.8793  -14.1956   20.8182 C   0  0  0  0  0  0
  -30.3992  -12.2899   19.3457 C   0  0  0  0  0  0
  -29.4556  -12.5449   18.1649 C   0  0  0  0  0  0
  -27.9921  -12.3799   18.6031 C   0  0  0  0  0  0
  -27.6614  -13.2053   19.8728 C   0  0  2  0  0  0
  -28.7017  -12.9665   20.9884 C   0  0  0  0  0  0
  -25.2585  -13.8172   20.5692 C   0  0  0  0  0  0
  -24.1838  -13.0436   20.9177 C   0  0  0  0  0  0
  -24.6390  -11.6907   20.8724 C   0  0  0  0  0  0
  -23.9067  -10.4287   21.0385 C   0  0  0  0  0  0
  -24.3618   -9.4205   21.9164 C   0  0  0  0  0  0
  -23.6299   -8.2240   22.0734 C   0  0  0  0  0  0
  -22.4281   -8.0277   21.3533 C   0  0  0  0  0  0
  -21.9918   -9.0245   20.4627 C   0  0  0  0  0  0
  -22.7241  -10.2128   20.3030 C   0  0  0  0  0  0
  -21.6851   -6.0734   22.5273 C   0  0  0  0  0  0
  -21.4004   -6.5633   23.8205 C   0  0  0  0  0  0
  -21.3657   -5.6792   24.9165 C   0  0  0  0  0  0
  -21.6050   -4.3051   24.7219 C   0  0  0  0  0  0
  -21.8833   -3.8143   23.4339 C   0  0  0  0  0  0
  -21.9203   -4.6956   22.3397 C   0  0  0  0  0  0
  -22.7856  -13.5219   21.1870 C   0  0  0  0  0  0
  -22.1671   -4.2144   21.0974 F   0  0  0  0  0  0
  -21.5644   -3.4541   25.7726 F   0  0  0  0  0  0
  -30.0512  -13.1977   20.4440 N   0  0  0  0  0  0
  -26.3023  -12.9341   20.3375 N   0  0  0  0  0  0
  -25.9314  -11.6498   20.5760 N   0  0  0  0  0  0
  -22.0520  -12.8179   22.0410 N   0  0  0  0  0  0
  -25.4318  -15.1891   20.4119 N   0  0  0  0  0  0
  -31.7468  -14.6891   20.0876 O   0  0  0  0  0  0
  -21.6645   -6.8870   21.4232 O   0  0  0  0  0  0
  -22.3530  -14.5533   20.6734 O   0  0  0  0  0  0
  -24.6085  -31.8695   23.2114 C   0  0  0  0  0  0
  -25.8990  -32.4832   23.8401 C   0  0  1  0  0  0
  -27.2423  -27.4872   20.0933 C   0  0  0  0  0  0
  -25.5845  -33.8627   24.2329 N   0  0  0  0  0  0
  -23.3960  -30.4897   21.5499 C   0  0  2  0  0  0
  -24.8455  -28.9649   20.1071 C   0  0  0  0  0  0
  -22.7381  -29.4643   22.4994 C   0  0  0  0  0  0
  -18.0261  -28.1374   22.8496 C   0  0  0  0  0  0
  -24.1454  -36.7310   23.2633 C   0  0  0  0  0  0
  -25.9159  -30.8561   21.3527 C   0  0  0  0  0  0
  -25.9975  -29.4947   20.7008 C   0  0  0  0  0  0
  -27.1990  -28.7633   20.6922 C   0  0  0  0  0  0
  -26.0854  -26.9653   19.4810 C   0  0  0  0  0  0
  -24.8815  -27.6981   19.4941 C   0  0  0  0  0  0
  -23.6010  -29.8202   20.1632 C   0  0  0  0  0  0
  -25.4066  -36.3107   24.0339 C   0  0  1  0  0  0
  -20.5849  -28.3644   23.1322 C   0  0  2  0  0  0
  -20.6750  -26.9386   22.5417 C   0  0  0  0  0  0
  -19.5730  -26.6388   21.5207 C   0  0  0  0  0  0
  -18.1910  -26.7923   22.1620 C   0  0  0  0  0  0
  -19.1515  -28.8830   23.2910 C   0  0  0  0  0  0
  -18.9453  -30.1431   23.8934 C   0  0  0  0  0  0
  -17.6463  -30.6577   24.0585 C   0  0  0  0  0  0
  -25.9021  -34.9482   23.5142 C   0  0  0  0  0  0
  -16.5349  -29.9101   23.6317 C   0  0  0  0  0  0
  -16.7253  -28.6508   23.0347 C   0  0  0  0  0  0
  -26.4430  -31.6607   25.0721 C   0  0  0  0  0  0
  -25.3712  -31.3722   26.1482 C   0  0  0  0  0  0
  -27.0251  -30.3060   24.6061 C   0  0  0  0  0  0
  -27.6021  -32.4317   25.7463 C   0  0  0  0  0  0
  -27.5573  -37.1758   24.8416 C   0  0  0  0  0  0
  -21.4116  -29.3004   22.3727 N   0  0  0  0  0  0
  -26.4224  -37.3820   23.9457 N   0  0  0  0  0  0
  -24.6580  -31.0840   22.0981 N   0  0  0  0  0  0
  -23.4168  -28.8204   23.3038 O   0  0  0  0  0  0
  -28.3842  -26.7297   20.1387 O   0  0  0  0  0  0
  -26.5621  -34.8935   22.4730 O   0  0  0  0  0  0
  -23.5291  -32.1415   23.7543 O   0  0  0  0  0  0
  -30.2022  -21.9852   26.3283 C   0  0  0  0  0  0
  -29.2966  -20.2924   24.3680 C   0  0  0  0  0  0
  -30.1066  -20.6109   26.6281 C   0  0  0  0  0  0
  -29.6623  -19.7396   25.6079 C   0  0  0  0  0  0
  -29.8593  -22.4355   25.0423 C   0  0  0  0  0  0
  -30.5416  -25.5146   23.0093 C   0  0  0  0  0  0
  -28.1950  -24.5962   23.2611 C   0  0  0  0  0  0
  -30.2063  -25.9930   21.5850 C   0  0  0  0  0  0
  -27.8456  -25.1020   21.8568 C   0  0  0  0  0  0
  -29.6986  -24.2802   23.3771 C   0  0  2  0  0  0
  -28.7097  -26.3182   21.4687 C   0  0  2  0  0  0
  -30.5061  -20.1034   28.0010 C   0  0  0  0  0  0
  -29.6606  -18.2256   25.7437 C   0  0  0  0  0  0
  -30.9711  -17.6590   25.1708 C   0  0  0  0  0  0
  -30.8359  -16.3003   24.4696 C   0  0  0  0  0  0
  -32.0558  -16.0418   23.5687 C   0  0  0  0  0  0
  -32.1022  -14.6456   22.9404 C   0  0  0  0  0  0
  -29.3970  -21.6037   24.0892 N   0  0  0  0  0  0
  -30.0258  -23.7847   24.7100 N   0  0  0  0  0  0
  -30.9143  -14.3231   22.1510 N   0  0  0  0  0  0
  -31.4377  -12.4052   19.0265 H   0  0  0  0  0  0
  -30.3063  -11.2587   19.6895 H   0  0  0  0  0  0
  -29.6814  -11.8579   17.3481 H   0  0  0  0  0  0
  -29.6129  -13.5522   17.7759 H   0  0  0  0  0  0
  -27.8142  -11.3207   18.7901 H   0  0  0  0  0  0
  -27.3242  -12.6611   17.7881 H   0  0  0  0  0  0
  -27.7174  -14.2574   19.5928 H   0  0  0  0  0  0
  -28.6369  -11.9453   21.3663 H   0  0  0  0  0  0
  -28.4716  -13.6222   21.8301 H   0  0  0  0  0  0
  -25.2760   -9.5685   22.4749 H   0  0  0  0  0  0
  -24.0022   -7.4619   22.7436 H   0  0  0  0  0  0
  -21.0870   -8.8759   19.8910 H   0  0  0  0  0  0
  -22.3710  -10.9670   19.6142 H   0  0  0  0  0  0
  -21.1973   -7.6140   23.9703 H   0  0  0  0  0  0
  -21.1475   -6.0515   25.9072 H   0  0  0  0  0  0
  -22.0624   -2.7603   23.2842 H   0  0  0  0  0  0
  -22.4148  -11.9804   22.4729 H   0  0  0  0  0  0
  -21.1126  -13.1165   22.2644 H   0  0  0  0  0  0
  -24.6693  -15.8493   20.5205 H   0  0  0  0  0  0
  -26.2966  -15.6296   20.1204 H   0  0  0  0  0  0
  -26.7080  -32.5564   23.1194 H   0  0  0  0  0  0
  -24.9889  -33.9775   25.0400 H   0  0  0  0  0  0
  -22.6818  -31.3032   21.4112 H   0  0  0  0  0  0
  -23.3734  -35.9619   23.3216 H   0  0  0  0  0  0
  -24.3584  -36.9016   22.2069 H   0  0  0  0  0  0
  -23.7167  -37.6468   23.6712 H   0  0  0  0  0  0
  -26.0148  -31.6221   20.5826 H   0  0  0  0  0  0
  -26.8096  -30.9173   21.9633 H   0  0  0  0  0  0
  -28.0873  -29.1706   21.1554 H   0  0  0  0  0  0
  -26.1136  -25.9873   19.0214 H   0  0  0  0  0  0
  -23.9953  -27.2830   19.0336 H   0  0  0  0  0  0
  -23.6978  -30.5949   19.4016 H   0  0  0  0  0  0
  -22.7293  -29.2308   19.8737 H   0  0  0  0  0  0
  -25.1224  -36.1952   25.0824 H   0  0  0  0  0  0
  -20.9928  -28.3217   24.1446 H   0  0  0  0  0  0
  -20.5632  -26.2261   23.3597 H   0  0  0  0  0  0
  -21.6628  -26.7417   22.1228 H   0  0  0  0  0  0
  -19.6897  -25.6312   21.1205 H   0  0  0  0  0  0
  -19.6668  -27.3221   20.6760 H   0  0  0  0  0  0
  -17.4172  -26.6658   21.4033 H   0  0  0  0  0  0
  -18.0314  -26.0058   22.9006 H   0  0  0  0  0  0
  -19.7934  -30.7238   24.2322 H   0  0  0  0  0  0
  -17.5019  -31.6248   24.5205 H   0  0  0  0  0  0
  -15.5362  -30.3038   23.7610 H   0  0  0  0  0  0
  -15.8638  -28.0852   22.7057 H   0  0  0  0  0  0
  -24.5817  -30.7152   25.7812 H   0  0  0  0  0  0
  -24.8987  -32.2893   26.5015 H   0  0  0  0  0  0
  -25.8051  -30.8793   27.0190 H   0  0  0  0  0  0
  -26.2791  -29.6836   24.1102 H   0  0  0  0  0  0
  -27.4024  -29.7281   25.4509 H   0  0  0  0  0  0
  -27.8617  -30.4406   23.9202 H   0  0  0  0  0  0
  -27.2652  -33.3597   26.2096 H   0  0  0  0  0  0
  -28.3789  -32.6903   25.0258 H   0  0  0  0  0  0
  -28.0722  -31.8403   26.5330 H   0  0  0  0  0  0
  -28.2460  -38.0184   24.7676 H   0  0  0  0  0  0
  -28.1188  -36.2741   24.5931 H   0  0  0  0  0  0
  -27.2339  -37.1030   25.8815 H   0  0  0  0  0  0
  -20.9282  -29.8712   21.6937 H   0  0  0  0  0  0
  -26.0088  -38.2846   24.1637 H   0  0  0  0  0  0
  -30.5648  -22.6782   27.0767 H   0  0  0  0  0  0
  -28.9656  -19.6617   23.5561 H   0  0  0  0  0  0
  -30.3552  -26.3239   23.7173 H   0  0  0  0  0  0
  -31.6045  -25.2807   23.0743 H   0  0  0  0  0  0
  -27.6008  -23.7074   23.4779 H   0  0  0  0  0  0
  -27.9090  -25.3451   24.0014 H   0  0  0  0  0  0
  -30.4813  -25.2254   20.8600 H   0  0  0  0  0  0
  -30.7981  -26.8773   21.3462 H   0  0  0  0  0  0
  -26.7875  -25.3627   21.8268 H   0  0  0  0  0  0
  -27.9888  -24.2986   21.1334 H   0  0  0  0  0  0
  -29.9480  -23.5101   22.6451 H   0  0  0  0  0  0
  -28.5087  -27.1155   22.1871 H   0  0  0  0  0  0
  -30.8390  -20.9170   28.6464 H   0  0  0  0  0  0
  -31.3212  -19.3843   27.9224 H   0  0  0  0  0  0
  -29.6602  -19.6203   28.4905 H   0  0  0  0  0  0
  -28.8039  -17.8411   25.1876 H   0  0  0  0  0  0
  -29.5098  -17.9053   26.7747 H   0  0  0  0  0  0
  -31.7381  -17.6231   25.9464 H   0  0  0  0  0  0
  -31.3506  -18.3568   24.4221 H   0  0  0  0  0  0
  -29.9341  -16.2874   23.8558 H   0  0  0  0  0  0
  -30.7247  -15.5082   25.2121 H   0  0  0  0  0  0
  -32.9673  -16.1808   24.1534 H   0  0  0  0  0  0
  -32.0916  -16.7915   22.7761 H   0  0  0  0  0  0
  -32.1891  -13.8973   23.7292 H   0  0  0  0  0  0
  -33.0090  -14.5472   22.3394 H   0  0  0  0  0  0
  -30.3697  -24.4338   25.4094 H   0  0  0  0  0  0
  -30.1763  -13.8385   22.6422 H   0  0  0  0  0  0
  1 25  1  0  0  0
  1 30  2  0  0  0
  1 90  1  0  0  0
  2  3  1  0  0  0
  2 25  1  0  0  0
  2 91  1  0  0  0
  2 92  1  0  0  0
  3  4  1  0  0  0
  3 93  1  0  0  0
  3 94  1  0  0  0
  4  5  1  0  0  0
  4 95  1  0  0  0
  4 96  1  0  0  0
  5  6  1  0  0  0
  5 26  1  0  0  0
  5 97  1  0  0  0
  6 25  1  0  0  0
  6 98  1  0  0  0
  6 99  1  0  0  0
  7  8  2  0  0  0
  7 26  1  0  0  0
  7 29  1  0  0  0
  8  9  1  0  0  0
  8 22  1  0  0  0
  9 10  1  0  0  0
  9 27  2  0  0  0
 10 11  2  0  0  0
 10 15  1  0  0  0
 11 12  1  0  0  0
 11100  1  0  0  0
 12 13  2  0  0  0
 12101  1  0  0  0
 13 14  1  0  0  0
 13 31  1  0  0  0
 14 15  2  0  0  0
 14102  1  0  0  0
 15103  1  0  0  0
 16 17  2  0  0  0
 16 21  1  0  0  0
 16 31  1  0  0  0
 17 18  1  0  0  0
 17104  1  0  0  0
 18 19  2  0  0  0
 18105  1  0  0  0
 19 20  1  0  0  0
 19 24  1  0  0  0
 20 21  2  0  0  0
 20106  1  0  0  0
 21 23  1  0  0  0
 22 28  1  0  0  0
 22 32  2  0  0  0
 26 27  1  0  0  0
 28107  1  0  0  0
 28108  1  0  0  0
 29109  1  0  0  0
 29110  1  0  0  0
 33 34  1  0  0  0
 33 66  1  0  0  0
 33 70  2  0  0  0
 34 36  1  0  0  0
 34 59  1  0  0  0
 34111  1  0  0  0
 35 44  2  0  0  0
 35 45  1  0  0  0
 35 68  1  0  0  0
 36 56  1  0  0  0
 36112  1  0  0  0
 37 39  1  0  0  0
 37 47  1  0  0  0
 37 66  1  0  0  0
 37113  1  0  0  0
 38 43  2  0  0  0
 38 46  1  0  0  0
 38 47  1  0  0  0
 39 64  1  0  0  0
 39 67  2  0  0  0
 40 52  1  0  0  0
 40 53  2  0  0  0
 40 58  1  0  0  0
 41114  1  0  0  0
 41115  1  0  0  0
 41116  1  0  0  0
 41 48  1  0  0  0
 42 43  1  0  0  0
 42 66  1  0  0  0
 42117  1  0  0  0
 42118  1  0  0  0
 43 44  1  0  0  0
 44119  1  0  0  0
 45 46  2  0  0  0
 45120  1  0  0  0
 46121  1  0  0  0
 47122  1  0  0  0
 47123  1  0  0  0
 48 56  1  0  0  0
 48 65  1  0  0  0
 48124  1  0  0  0
 49 50  1  0  0  0
 49 53  1  0  0  0
 49 64  1  0  0  0
 49125  1  0  0  0
 50 51  1  0  0  0
 50126  1  0  0  0
 50127  1  0  0  0
 51 52  1  0  0  0
 51128  1  0  0  0
 51129  1  0  0  0
 52130  1  0  0  0
 52131  1  0  0  0
 53 54  1  0  0  0
 54 55  2  0  0  0
 54132  1  0  0  0
 55 57  1  0  0  0
 55133  1  0  0  0
 56 69  2  0  0  0
 57 58  2  0  0  0
 57134  1  0  0  0
 58135  1  0  0  0
 59 60  1  0  0  0
 59 61  1  0  0  0
 59 62  1  0  0  0
 60136  1  0  0  0
 60137  1  0  0  0
 60138  1  0  0  0
 61139  1  0  0  0
 61140  1  0  0  0
 61141  1  0  0  0
 62142  1  0  0  0
 62143  1  0  0  0
 62144  1  0  0  0
 63 65  1  0  0  0
 63145  1  0  0  0
 63146  1  0  0  0
 63147  1  0  0  0
 64148  1  0  0  0
 65149  1  0  0  0
 68 81  1  0  0  0
 71 73  2  0  0  0
 71 75  1  0  0  0
 71150  1  0  0  0
 72 74  2  0  0  0
 72 88  1  0  0  0
 72151  1  0  0  0
 73 74  1  0  0  0
 73 82  1  0  0  0
 74 83  1  0  0  0
 75 88  2  0  0  0
 75 89  1  0  0  0
 76 78  1  0  0  0
 76 80  1  0  0  0
 76152  1  0  0  0
 76153  1  0  0  0
 77 79  1  0  0  0
 77 80  1  0  0  0
 77154  1  0  0  0
 77155  1  0  0  0
 78 81  1  0  0  0
 78156  1  0  0  0
 78157  1  0  0  0
 79 81  1  0  0  0
 79158  1  0  0  0
 79159  1  0  0  0
 80 89  1  0  0  0
 80160  1  0  0  0
 81161  1  0  0  0
 82162  1  0  0  0
 82163  1  0  0  0
 82164  1  0  0  0
 83 84  1  0  0  0
 83165  1  0  0  0
 83166  1  0  0  0
 84 85  1  0  0  0
 84167  1  0  0  0
 84168  1  0  0  0
 85 86  1  0  0  0
 85169  1  0  0  0
 85170  1  0  0  0
 86 87  1  0  0  0
 86171  1  0  0  0
 86172  1  0  0  0
 87 90  1  0  0  0
 87173  1  0  0  0
 87174  1  0  0  0
 89175  1  0  0  0
 90176  1  0  0  0
M  ISO  4   1 100  68 101  81 101  90 100
M  END
> <chiral flag>
0

> <version>
0

> <s_m_source_file>
/data/baiqing/PycharmProjects/Reinvent-master-3.2/result/LINK_invent/BTK/process_docking_weight1_custom_sum_contain_oxygen_bond_distance_aromatic_linkinvent_7_9_3/rearranged_h_0036.sdf

> <i_m_source_file_index>
27

> <r_mmod_Potential_Energy-OPLS-2005>
-258.871643066406

> <r_mmod_Stretch_Energy-OPLS-2005>
29.9148368835449

> <r_mmod_Bend_Energy-OPLS-2005>
100.146842956543

> <r_mmod_Torsional_Energy-OPLS-2005>
252.979019165039

> <r_mmod_Improper_Torsional_Energy-OPLS-2005>
10.5811815261841

> <r_mmod_Van_der_Waal_Energy-OPLS-2005>
164.894989013672

> <r_mmod_Electrostatic_Energy-OPLS-2005>
-601.978088378906

> <r_mmod_Solvation_Energy-OPLS-2005>
-229.948379516602

> <b_mmod_Minimization_Converged-OPLS-2005>
0

> <r_mmod_RMS_Derivative-OPLS-2005>
1.74370741844177

$$$$
28
                    3D
 Structure written by MMmdl.
167175  0  0  1  0            999 V2000
  -29.8265  -15.9452   20.8735 C   0  0  0  0  0  0
  -30.3262  -13.4124   19.7561 C   0  0  0  0  0  0
  -29.5729  -12.8418   18.4903 C   0  0  0  0  0  0
  -28.1662  -12.3479   18.8473 C   0  0  0  0  0  0
  -27.5510  -13.3199   19.8705 C   0  0  2  0  0  0
  -28.4447  -13.6442   21.0853 C   0  0  0  0  0  0
  -25.1992  -13.8254   20.5735 C   0  0  0  0  0  0
  -24.1459  -13.0382   20.9274 C   0  0  0  0  0  0
  -24.6199  -11.6901   20.8734 C   0  0  0  0  0  0
  -23.8981  -10.4253   21.0393 C   0  0  0  0  0  0
  -24.3577   -9.4188   21.9168 C   0  0  0  0  0  0
  -23.6272   -8.2212   22.0735 C   0  0  0  0  0  0
  -22.4252   -8.0244   21.3531 C   0  0  0  0  0  0
  -21.9866   -9.0198   20.4625 C   0  0  0  0  0  0
  -22.7168  -10.2080   20.3028 C   0  0  0  0  0  0
  -21.6850   -6.0719   22.5285 C   0  0  0  0  0  0
  -21.4014   -6.5631   23.8219 C   0  0  0  0  0  0
  -21.3652   -5.6786   24.9179 C   0  0  0  0  0  0
  -21.6037   -4.3047   24.7230 C   0  0  0  0  0  0
  -21.8818   -3.8136   23.4355 C   0  0  0  0  0  0
  -21.9191   -4.6951   22.3409 C   0  0  0  0  0  0
  -22.7518  -13.5126   21.1962 C   0  0  0  0  0  0
  -22.1664   -4.2135   21.0988 F   0  0  0  0  0  0
  -21.5620   -3.4539   25.7747 F   0  0  0  0  0  0
  -29.5307  -14.4949   20.5852 N   0  0  0  0  0  0
  -26.2336  -12.9540   20.3119 N   0  0  0  0  0  0
  -25.9103  -11.6615   20.5596 N   0  0  0  0  0  0
  -22.0235  -12.8095   22.0534 N   0  0  0  0  0  0
  -25.3671  -15.2004   20.4254 N   0  0  0  0  0  0
  -31.0569  -15.9854   20.5787 O   0  0  0  0  0  0
  -21.6624   -6.8842   21.4236 O   0  0  0  0  0  0
  -22.3216  -14.5446   20.6818 O   0  0  0  0  0  0
  -25.2569  -31.3980   23.3425 C   0  0  0  0  0  0
  -26.3464  -32.3394   23.8486 C   0  0  1  0  0  0
  -26.9689  -29.0496   19.2379 C   0  0  0  0  0  0
  -25.8415  -33.7385   24.1621 N   0  0  0  0  0  0
  -24.1331  -28.8205   21.7269 C   0  0  2  0  0  0
  -25.2645  -27.9527   20.3715 C   0  0  0  0  0  0
  -22.6003  -28.2459   22.0646 C   0  0  0  0  0  0
  -17.8886  -28.1795   22.7686 C   0  0  0  0  0  0
  -24.1648  -36.6352   23.2639 C   0  0  0  0  0  0
  -26.5379  -29.9408   21.8896 C   0  0  0  0  0  0
  -26.4455  -28.6464   21.0777 C   0  0  0  0  0  0
  -27.5928  -28.6616   20.3871 C   0  0  0  0  0  0
  -26.5738  -27.7892   18.6442 C   0  0  0  0  0  0
  -25.4605  -27.2401   19.2277 C   0  0  0  0  0  0
  -23.9297  -28.4974   20.3103 C   0  0  0  0  0  0
  -25.4398  -36.2083   24.0130 C   0  0  1  0  0  0
  -20.4034  -28.1598   23.0449 C   0  0  2  0  0  0
  -20.2090  -26.6527   22.6945 C   0  0  0  0  0  0
  -19.3155  -26.5145   21.5001 C   0  0  0  0  0  0
  -17.9317  -26.8582   22.0134 C   0  0  0  0  0  0
  -19.0611  -28.8505   23.1994 C   0  0  0  0  0  0
  -18.9508  -30.1023   23.8439 C   0  0  0  0  0  0
  -17.6794  -30.6700   24.0633 C   0  0  0  0  0  0
  -25.9899  -34.8659   23.4484 C   0  0  0  0  0  0
  -16.5205  -29.9818   23.6613 C   0  0  0  0  0  0
  -16.6281  -28.7369   23.0226 C   0  0  0  0  0  0
  -26.7331  -31.6764   25.2221 C   0  0  0  0  0  0
  -25.6167  -31.5162   26.3138 C   0  0  0  0  0  0
  -27.3618  -30.2850   25.0092 C   0  0  0  0  0  0
  -27.8258  -32.5479   25.8436 C   0  0  0  0  0  0
  -27.5558  -37.1550   24.8504 C   0  0  0  0  0  0
  -21.3526  -28.7788   22.1102 N   0  0  0  0  0  0
  -26.4188  -37.3210   23.9495 N   0  0  0  0  0  0
  -25.3323  -30.1157   22.4802 N   0  0  0  0  0  0
  -22.7400  -27.3000   22.7800 O   0  0  0  0  0  0
  -25.8124  -30.0649   19.3888 O   0  0  0  0  0  0
  -26.5985  -34.8701   22.3806 O   0  0  0  0  0  0
  -24.2378  -31.8906   23.9191 O   0  0  0  0  0  0
  -25.6726  -22.6299   23.2600 C   0  0  0  0  0  0
  -26.2921  -21.2122   22.8899 C   0  0  0  0  0  0
  -26.1127  -24.1029   23.1697 C   0  0  0  0  0  0
  -27.6222  -20.7902   22.2635 C   0  0  0  0  0  0
  -27.4217  -23.5773   22.5380 C   0  0  0  0  0  0
  -25.3758  -20.0428   23.2082 C   0  0  0  0  0  0
  -28.1557  -24.9951   20.5856 C   0  0  0  0  0  0
  -25.1369  -25.8931   23.3720 C   0  0  0  0  0  0
  -28.3480  -24.6849   22.0745 C   0  0  0  0  0  0
  -28.6944  -19.1116   21.7986 C   0  0  0  0  0  0
  -23.1137  -30.8152   22.1000 C   0  0  0  0  0  0
  -23.6755  -29.2967   24.0289 C   0  0  0  0  0  0
  -24.4878  -31.0191   20.4137 C   0  0  0  0  0  0
  -28.0299  -22.2130   22.1929 N   0  0  0  0  0  0
  -28.8819  -17.2425   21.3353 N   0  0  0  0  0  0
  -24.7662  -27.6119   24.2143 N   0  3  0  0  0  0
  -31.2661  -13.8418   19.4095 H   0  0  0  0  0  0
  -30.6310  -12.5942   20.4104 H   0  0  0  0  0  0
  -30.1520  -12.0432   18.0258 H   0  0  0  0  0  0
  -29.4915  -13.6329   17.7438 H   0  0  0  0  0  0
  -28.2442  -11.3516   19.2867 H   0  0  0  0  0  0
  -27.5417  -12.2572   17.9577 H   0  0  0  0  0  0
  -27.4249  -14.2459   19.3077 H   0  0  0  0  0  0
  -28.7854  -12.7441   21.5985 H   0  0  0  0  0  0
  -27.8846  -14.2137   21.8288 H   0  0  0  0  0  0
  -25.2712   -9.5695   22.4753 H   0  0  0  0  0  0
  -23.9990   -7.4603   22.7449 H   0  0  0  0  0  0
  -21.0801   -8.8699   19.8938 H   0  0  0  0  0  0
  -22.3609  -10.9618   19.6144 H   0  0  0  0  0  0
  -21.2020   -7.6143   23.9719 H   0  0  0  0  0  0
  -21.1472   -6.0520   25.9081 H   0  0  0  0  0  0
  -22.0606   -2.7597   23.2865 H   0  0  0  0  0  0
  -22.3919  -11.9768   22.4887 H   0  0  0  0  0  0
  -21.0852  -13.1071   22.2787 H   0  0  0  0  0  0
  -24.5827  -15.8396   20.4970 H   0  0  0  0  0  0
  -26.1773  -15.6177   19.9869 H   0  0  0  0  0  0
  -27.1852  -32.3733   23.1531 H   0  0  0  0  0  0
  -25.2728  -33.7960   24.9936 H   0  0  0  0  0  0
  -24.5342  -27.9879   22.1919 H   0  0  0  0  0  0
  -23.4131  -35.8443   23.2959 H   0  0  0  0  0  0
  -24.3709  -36.8473   22.2134 H   0  0  0  0  0  0
  -23.7159  -37.5250   23.7059 H   0  0  0  0  0  0
  -26.8788  -30.8267   21.3444 H   0  0  0  0  0  0
  -27.3167  -29.7444   22.6083 H   0  0  0  0  0  0
  -28.4400  -29.2462   20.7276 H   0  0  0  0  0  0
  -26.8179  -27.5602   17.6170 H   0  0  0  0  0  0
  -24.7396  -26.6572   18.6691 H   0  0  0  0  0  0
  -23.6412  -29.1562   19.4962 H   0  0  0  0  0  0
  -23.3189  -27.6147   20.0542 H   0  0  0  0  0  0
  -25.1652  -36.0496   25.0580 H   0  0  0  0  0  0
  -20.8190  -28.1947   24.0523 H   0  0  0  0  0  0
  -19.7406  -26.1763   23.5581 H   0  0  0  0  0  0
  -21.0391  -25.9775   22.5159 H   0  0  0  0  0  0
  -19.3272  -25.4967   21.1095 H   0  0  0  0  0  0
  -19.6231  -27.1777   20.6909 H   0  0  0  0  0  0
  -17.2386  -26.9031   21.1715 H   0  0  0  0  0  0
  -17.5580  -26.0708   22.6695 H   0  0  0  0  0  0
  -19.8353  -30.6208   24.1867 H   0  0  0  0  0  0
  -17.5946  -31.6275   24.5599 H   0  0  0  0  0  0
  -15.5461  -30.4161   23.8401 H   0  0  0  0  0  0
  -15.7307  -28.2221   22.7052 H   0  0  0  0  0  0
  -25.1758  -30.5277   26.3610 H   0  0  0  0  0  0
  -24.8308  -32.2691   26.2601 H   0  0  0  0  0  0
  -26.0430  -31.6379   27.3104 H   0  0  0  0  0  0
  -26.6779  -29.5140   24.6704 H   0  0  0  0  0  0
  -27.7381  -29.9076   25.9619 H   0  0  0  0  0  0
  -28.2407  -30.3357   24.3661 H   0  0  0  0  0  0
  -27.4499  -33.5149   26.1791 H   0  0  0  0  0  0
  -28.6305  -32.7451   25.1334 H   0  0  0  0  0  0
  -28.2776  -32.0743   26.7163 H   0  0  0  0  0  0
  -28.2241  -38.0137   24.7697 H   0  0  0  0  0  0
  -28.1398  -36.2644   24.6134 H   0  0  0  0  0  0
  -27.2317  -37.0846   25.8903 H   0  0  0  0  0  0
  -21.1231  -29.6597   21.6737 H   0  0  0  0  0  0
  -25.9718  -38.2083   24.1615 H   0  0  0  0  0  0
  -24.6683  -22.5491   23.6501 H   0  0  0  0  0  0
  -24.3330  -20.2920   23.0058 H   0  0  0  0  0  0
  -25.4620  -19.7640   24.2592 H   0  0  0  0  0  0
  -25.6268  -19.1685   22.6040 H   0  0  0  0  0  0
  -28.7947  -25.8204   20.2684 H   0  0  0  0  0  0
  -27.1221  -25.2763   20.3848 H   0  0  0  0  0  0
  -28.3918  -24.1266   19.9703 H   0  0  0  0  0  0
  -24.1390  -25.4632   23.4180 H   0  0  0  0  0  0
  -25.2871  -26.1524   22.3304 H   0  0  0  0  0  0
  -29.3841  -24.4037   22.2704 H   0  0  0  0  0  0
  -28.1643  -25.5806   22.6687 H   0  0  0  0  0  0
  -29.3097  -19.0952   22.6975 H   0  0  0  0  0  0
  -29.3580  -19.5404   21.0496 H   0  0  0  0  0  0
  -22.7083  -31.7873   22.3890 H   0  0  0  0  0  0
  -22.2059  -30.7172   21.5242 H   0  0  0  0  0  0
  -22.7234  -29.0568   24.5003 H   0  0  0  0  0  0
  -23.9957  -29.8402   24.9006 H   0  0  0  0  0  0
  -25.0204  -31.9463   20.6381 H   0  0  0  0  0  0
  -23.8317  -31.3798   19.6215 H   0  0  0  0  0  0
  -27.9553  -16.8534   21.4434 H   0  0  0  0  0  0
  -24.5143  -27.3143   25.1432 H   0  0  0  0  0  0
  -25.6988  -27.9708   24.3192 H   0  0  0  0  0  0
  1 25  1  0  0  0
  1 30  2  0  0  0
  1 85  1  0  0  0
  2  3  1  0  0  0
  2 25  1  0  0  0
  2 87  1  0  0  0
  2 88  1  0  0  0
  3  4  1  0  0  0
  3 89  1  0  0  0
  3 90  1  0  0  0
  4  5  1  0  0  0
  4 91  1  0  0  0
  4 92  1  0  0  0
  5  6  1  0  0  0
  5 26  1  0  0  0
  5 93  1  0  0  0
  6 25  1  0  0  0
  6 94  1  0  0  0
  6 95  1  0  0  0
  7  8  2  0  0  0
  7 26  1  0  0  0
  7 29  1  0  0  0
  8  9  1  0  0  0
  8 22  1  0  0  0
  9 10  1  0  0  0
  9 27  2  0  0  0
 10 11  2  0  0  0
 10 15  1  0  0  0
 11 12  1  0  0  0
 11 96  1  0  0  0
 12 13  2  0  0  0
 12 97  1  0  0  0
 13 14  1  0  0  0
 13 31  1  0  0  0
 14 15  2  0  0  0
 14 98  1  0  0  0
 15 99  1  0  0  0
 16 17  2  0  0  0
 16 21  1  0  0  0
 16 31  1  0  0  0
 17 18  1  0  0  0
 17100  1  0  0  0
 18 19  2  0  0  0
 18101  1  0  0  0
 19 20  1  0  0  0
 19 24  1  0  0  0
 20 21  2  0  0  0
 20102  1  0  0  0
 21 23  1  0  0  0
 22 28  1  0  0  0
 22 32  2  0  0  0
 26 27  1  0  0  0
 28103  1  0  0  0
 28104  1  0  0  0
 29105  1  0  0  0
 29106  1  0  0  0
 33 34  1  0  0  0
 33 66  1  0  0  0
 33 70  2  0  0  0
 34 36  1  0  0  0
 34 59  1  0  0  0
 34107  1  0  0  0
 35 44  2  0  0  0
 35 45  1  0  0  0
 35 68  1  0  0  0
 36 56  1  0  0  0
 36108  1  0  0  0
 37 39  1  0  0  0
 37 47  1  0  0  0
 37 66  1  0  0  0
 37109  1  0  0  0
 38 43  2  0  0  0
 38 46  1  0  0  0
 38 47  1  0  0  0
 39 64  1  0  0  0
 39 67  2  0  0  0
 40 52  1  0  0  0
 40 53  2  0  0  0
 40 58  1  0  0  0
 41110  1  0  0  0
 41111  1  0  0  0
 41112  1  0  0  0
 41 48  1  0  0  0
 42 43  1  0  0  0
 42 66  1  0  0  0
 42113  1  0  0  0
 42114  1  0  0  0
 43 44  1  0  0  0
 44115  1  0  0  0
 45 46  2  0  0  0
 45116  1  0  0  0
 46117  1  0  0  0
 47118  1  0  0  0
 47119  1  0  0  0
 48 56  1  0  0  0
 48 65  1  0  0  0
 48120  1  0  0  0
 49 50  1  0  0  0
 49 53  1  0  0  0
 49 64  1  0  0  0
 49121  1  0  0  0
 50 51  1  0  0  0
 50122  1  0  0  0
 50123  1  0  0  0
 51 52  1  0  0  0
 51124  1  0  0  0
 51125  1  0  0  0
 52126  1  0  0  0
 52127  1  0  0  0
 53 54  1  0  0  0
 54 55  2  0  0  0
 54128  1  0  0  0
 55 57  1  0  0  0
 55129  1  0  0  0
 56 69  2  0  0  0
 57 58  2  0  0  0
 57130  1  0  0  0
 58131  1  0  0  0
 59 60  1  0  0  0
 59 61  1  0  0  0
 59 62  1  0  0  0
 60132  1  0  0  0
 60133  1  0  0  0
 60134  1  0  0  0
 61135  1  0  0  0
 61136  1  0  0  0
 61137  1  0  0  0
 62138  1  0  0  0
 62139  1  0  0  0
 62140  1  0  0  0
 63 65  1  0  0  0
 63141  1  0  0  0
 63142  1  0  0  0
 63143  1  0  0  0
 64144  1  0  0  0
 65145  1  0  0  0
 68 83  1  0  0  0
 71 72  2  0  0  0
 71 73  1  0  0  0
 71146  1  0  0  0
 72 74  1  0  0  0
 72 76  1  0  0  0
 73 75  2  0  0  0
 73 78  1  0  0  0
 74 80  1  0  0  0
 74 84  2  0  0  0
 75 79  1  0  0  0
 75 84  1  0  0  0
 76147  1  0  0  0
 76148  1  0  0  0
 76149  1  0  0  0
 77 79  1  0  0  0
 77150  1  0  0  0
 77151  1  0  0  0
 77152  1  0  0  0
 78 86  1  0  0  0
 78153  1  0  0  0
 78154  1  0  0  0
 79155  1  0  0  0
 79156  1  0  0  0
 80 85  1  0  0  0
 80157  1  0  0  0
 80158  1  0  0  0
 81 82  1  0  0  0
 81 83  1  0  0  0
 81159  1  0  0  0
 81160  1  0  0  0
 82 86  1  0  0  0
 82161  1  0  0  0
 82162  1  0  0  0
 83163  1  0  0  0
 83164  1  0  0  0
 85165  1  0  0  0
 86166  1  0  0  0
 86167  1  0  0  0
M  CHG  1  86   1
M  ISO  4   1 100  68 101  83 101  85 100
M  END
> <chiral flag>
0

> <version>
0

> <s_m_source_file>
/data/baiqing/PycharmProjects/Reinvent-master-3.2/result/LINK_invent/BTK/process_docking_weight1_custom_sum_contain_oxygen_bond_distance_aromatic_linkinvent_7_9_3/rearranged_h_0036.sdf

> <i_m_source_file_index>
28

> <r_mmod_Potential_Energy-OPLS-2005>
14073.4462890625

> <r_mmod_Stretch_Energy-OPLS-2005>
5080.88623046875

> <r_mmod_Bend_Energy-OPLS-2005>
2180.7353515625

> <r_mmod_Torsional_Energy-OPLS-2005>
564.232666015625

> <r_mmod_Improper_Torsional_Energy-OPLS-2005>
82.4297103881836

> <r_mmod_Van_der_Waal_Energy-OPLS-2005>
1871.02941894531

> <r_mmod_Electrostatic_Energy-OPLS-2005>
-541.91162109375

> <r_mmod_Solvation_Energy-OPLS-2005>
-434.92333984375

> <b_mmod_Minimization_Converged-OPLS-2005>
0

> <r_mmod_RMS_Derivative-OPLS-2005>
3.41576051712036

$$$$
29
                    3D
 Structure written by MMmdl.
155163  0  0  1  0            999 V2000
  -30.4706  -15.1989   20.3782 C   0  0  0  0  0  0
  -30.4375  -12.7633   19.5158 C   0  0  0  0  0  0
  -29.5295  -12.5626   18.2779 C   0  0  0  0  0  0
  -28.0751  -12.3008   18.7068 C   0  0  0  0  0  0
  -27.6137  -13.2704   19.8241 C   0  0  2  0  0  0
  -28.6514  -13.4210   20.9566 C   0  0  0  0  0  0
  -25.2398  -13.8243   20.5745 C   0  0  0  0  0  0
  -24.1746  -13.0436   20.9256 C   0  0  0  0  0  0
  -24.6397  -11.6932   20.8765 C   0  0  0  0  0  0
  -23.9092  -10.4294   21.0407 C   0  0  0  0  0  0
  -24.3638   -9.4207   21.9185 C   0  0  0  0  0  0
  -23.6305   -8.2244   22.0756 C   0  0  0  0  0  0
  -22.4287   -8.0284   21.3545 C   0  0  0  0  0  0
  -21.9929   -9.0258   20.4647 C   0  0  0  0  0  0
  -22.7263  -10.2133   20.3054 C   0  0  0  0  0  0
  -21.6856   -6.0738   22.5278 C   0  0  0  0  0  0
  -21.4017   -6.5641   23.8211 C   0  0  0  0  0  0
  -21.3660   -5.6793   24.9173 C   0  0  0  0  0  0
  -21.6043   -4.3055   24.7223 C   0  0  0  0  0  0
  -21.8820   -3.8148   23.4343 C   0  0  0  0  0  0
  -21.9193   -4.6966   22.3400 C   0  0  0  0  0  0
  -22.7763  -13.5190   21.1900 C   0  0  0  0  0  0
  -22.1662   -4.2150   21.0978 F   0  0  0  0  0  0
  -21.5628   -3.4539   25.7736 F   0  0  0  0  0  0
  -29.8898  -13.9066   20.3290 N   0  0  0  0  0  0
  -26.2826  -12.9512   20.3228 N   0  0  0  0  0  0
  -25.9332  -11.6621   20.5732 N   0  0  0  0  0  0
  -22.0424  -12.8170   22.0455 N   0  0  0  0  0  0
  -25.4029  -15.1978   20.4179 N   0  0  0  0  0  0
  -31.6922  -15.1958   20.1752 O   0  0  0  0  0  0
  -21.6645   -6.8884   21.4241 O   0  0  0  0  0  0
  -22.3440  -14.5488   20.6737 O   0  0  0  0  0  0
  -24.6599  -31.8280   23.1755 C   0  0  0  0  0  0
  -25.9297  -32.4611   23.8198 C   0  0  1  0  0  0
  -27.2120  -26.9648   20.1731 C   0  0  0  0  0  0
  -25.5981  -33.8425   24.2105 N   0  0  0  0  0  0
  -23.4722  -30.4436   21.5246 C   0  0  2  0  0  0
  -24.9237  -28.8419   20.1125 C   0  0  0  0  0  0
  -22.7649  -29.4471   22.4800 C   0  0  0  0  0  0
  -18.0319  -28.1410   22.8471 C   0  0  0  0  0  0
  -24.1491  -36.7215   23.2646 C   0  0  0  0  0  0
  -26.0408  -30.6467   21.4007 C   0  0  0  0  0  0
  -26.1086  -29.2412   20.7433 C   0  0  0  0  0  0
  -27.2500  -28.3235   20.7511 C   0  0  0  0  0  0
  -25.9977  -26.7159   19.4923 C   0  0  0  0  0  0
  -24.8920  -27.5984   19.4670 C   0  0  0  0  0  0
  -23.7091  -29.7654   20.1487 C   0  0  0  0  0  0
  -25.4131  -36.2981   24.0302 C   0  0  1  0  0  0
  -20.5942  -28.3751   23.1197 C   0  0  2  0  0  0
  -20.6797  -26.9435   22.5402 C   0  0  0  0  0  0
  -19.5769  -26.6381   21.5215 C   0  0  0  0  0  0
  -18.1951  -26.7946   22.1624 C   0  0  0  0  0  0
  -19.1580  -28.8900   23.2823 C   0  0  0  0  0  0
  -18.9492  -30.1491   23.8855 C   0  0  0  0  0  0
  -17.6485  -30.6601   24.0556 C   0  0  0  0  0  0
  -25.9095  -34.9361   23.5021 C   0  0  0  0  0  0
  -16.5376  -29.9088   23.6344 C   0  0  0  0  0  0
  -16.7299  -28.6508   23.0365 C   0  0  0  0  0  0
  -26.4558  -31.6542   25.0709 C   0  0  0  0  0  0
  -25.3693  -31.3786   26.1370 C   0  0  0  0  0  0
  -27.0451  -30.2913   24.6419 C   0  0  0  0  0  0
  -27.6058  -32.4343   25.7509 C   0  0  0  0  0  0
  -27.5569  -37.1766   24.8466 C   0  0  0  0  0  0
  -21.4322  -29.3051   22.3551 N   0  0  0  0  0  0
  -26.4280  -37.3713   23.9407 N   0  0  0  0  0  0
  -24.7455  -30.9981   22.0873 N   0  0  0  0  0  0
  -23.4217  -28.8028   23.3016 O   0  0  0  0  0  0
  -28.2021  -25.8583   20.2447 O   0  0  0  0  0  0
  -26.5698  -34.8891   22.4614 O   0  0  0  0  0  0
  -23.5675  -32.1227   23.6874 O   0  0  0  0  0  0
  -28.8614  -21.8643   19.0671 C   0  0  0  0  0  0
  -29.2402  -20.4341   19.1156 C   0  0  0  0  0  0
  -29.3995  -19.6389   20.3256 C   0  0  0  0  0  0
  -28.5984  -22.7379   20.1927 C   0  0  0  0  0  0
  -29.1032  -20.5794   21.4113 C   0  0  0  0  0  0
  -29.2366  -20.0752   22.8336 C   0  0  0  0  0  0
  -30.9189  -20.0658   17.2565 C   0  0  0  0  0  0
  -29.5107  -19.7615   17.7808 C   0  0  0  0  0  0
  -30.1535  -18.0642   20.4454 C   0  0  0  0  0  0
  -27.7987  -24.2841   20.1038 C   0  0  0  0  0  0
  -28.7190  -21.9552   21.3448 N   0  0  0  0  0  0
  -29.7260  -16.4700   20.4524 N   0  0  0  0  0  0
  -31.4593  -12.9556   19.1858 H   0  0  0  0  0  0
  -30.4897  -11.8510   20.1122 H   0  0  0  0  0  0
  -29.8958  -11.7368   17.6665 H   0  0  0  0  0  0
  -29.5706  -13.4532   17.6487 H   0  0  0  0  0  0
  -28.0200  -11.2735   19.0692 H   0  0  0  0  0  0
  -27.4057  -12.3578   17.8476 H   0  0  0  0  0  0
  -27.5364  -14.2434   19.3371 H   0  0  0  0  0  0
  -28.8058  -12.4797   21.4862 H   0  0  0  0  0  0
  -28.3049  -14.1436   21.6973 H   0  0  0  0  0  0
  -25.2781   -9.5678   22.4764 H   0  0  0  0  0  0
  -24.0009   -7.4634   22.7478 H   0  0  0  0  0  0
  -21.0859   -8.8781   19.8951 H   0  0  0  0  0  0
  -22.3725  -10.9674   19.6163 H   0  0  0  0  0  0
  -21.2011   -7.6150   23.9715 H   0  0  0  0  0  0
  -21.1481   -6.0523   25.9076 H   0  0  0  0  0  0
  -22.0599   -2.7610   23.2842 H   0  0  0  0  0  0
  -22.4062  -11.9839   22.4840 H   0  0  0  0  0  0
  -21.1033  -13.1170   22.2661 H   0  0  0  0  0  0
  -24.6312  -15.8462   20.5317 H   0  0  0  0  0  0
  -26.2414  -15.6413   20.0667 H   0  0  0  0  0  0
  -26.7363  -32.5160   23.0911 H   0  0  0  0  0  0
  -25.0081  -33.9510   25.0224 H   0  0  0  0  0  0
  -22.7837  -31.2750   21.3587 H   0  0  0  0  0  0
  -23.3765  -35.9535   23.3282 H   0  0  0  0  0  0
  -24.3570  -36.8883   22.2066 H   0  0  0  0  0  0
  -23.7235  -37.6393   23.6714 H   0  0  0  0  0  0
  -26.2175  -31.3904   20.6226 H   0  0  0  0  0  0
  -26.9031  -30.7014   22.0535 H   0  0  0  0  0  0
  -28.1457  -28.6262   21.2750 H   0  0  0  0  0  0
  -25.8541  -25.7727   18.9894 H   0  0  0  0  0  0
  -23.9919  -27.2882   18.9541 H   0  0  0  0  0  0
  -23.8626  -30.5366   19.3929 H   0  0  0  0  0  0
  -22.8190  -29.2197   19.8298 H   0  0  0  0  0  0
  -25.1328  -36.1781   25.0793 H   0  0  0  0  0  0
  -21.0033  -28.3352   24.1320 H   0  0  0  0  0  0
  -20.5685  -26.2367   23.3640 H   0  0  0  0  0  0
  -21.6661  -26.7421   22.1204 H   0  0  0  0  0  0
  -19.6927  -25.6281   21.1272 H   0  0  0  0  0  0
  -19.6706  -27.3170   20.6729 H   0  0  0  0  0  0
  -17.4221  -26.6690   21.4027 H   0  0  0  0  0  0
  -18.0344  -26.0100   22.9031 H   0  0  0  0  0  0
  -19.7966  -30.7322   24.2207 H   0  0  0  0  0  0
  -17.5035  -31.6277   24.5166 H   0  0  0  0  0  0
  -15.5374  -30.2976   23.7696 H   0  0  0  0  0  0
  -15.8699  -28.0812   22.7107 H   0  0  0  0  0  0
  -24.5894  -30.7111   25.7684 H   0  0  0  0  0  0
  -24.8859  -32.2984   26.4672 H   0  0  0  0  0  0
  -25.7931  -30.9037   27.0228 H   0  0  0  0  0  0
  -26.3112  -29.6598   24.1401 H   0  0  0  0  0  0
  -27.3968  -29.7266   25.5064 H   0  0  0  0  0  0
  -27.9058  -30.4105   23.9838 H   0  0  0  0  0  0
  -27.2636  -33.3693   26.1959 H   0  0  0  0  0  0
  -28.3938  -32.6822   25.0384 H   0  0  0  0  0  0
  -28.0648  -31.8548   26.5528 H   0  0  0  0  0  0
  -28.2573  -38.0077   24.7516 H   0  0  0  0  0  0
  -28.1078  -36.2603   24.6290 H   0  0  0  0  0  0
  -27.2285  -37.1406   25.8869 H   0  0  0  0  0  0
  -20.9566  -29.8744   21.6688 H   0  0  0  0  0  0
  -26.0126  -38.2770   24.1422 H   0  0  0  0  0  0
  -28.7368  -22.3081   18.0882 H   0  0  0  0  0  0
  -30.2753  -20.1340   23.1587 H   0  0  0  0  0  0
  -28.9104  -19.0378   22.9099 H   0  0  0  0  0  0
  -28.6301  -20.6627   23.5238 H   0  0  0  0  0  0
  -31.0962  -19.5658   16.3044 H   0  0  0  0  0  0
  -31.6830  -19.7302   17.9577 H   0  0  0  0  0  0
  -31.0563  -21.1361   17.1009 H   0  0  0  0  0  0
  -28.7680  -20.0984   17.0563 H   0  0  0  0  0  0
  -29.3675  -18.6841   17.8671 H   0  0  0  0  0  0
  -30.7458  -18.1478   21.3569 H   0  0  0  0  0  0
  -30.9149  -18.0963   19.6658 H   0  0  0  0  0  0
  -26.9523  -24.1709   20.7811 H   0  0  0  0  0  0
  -27.3569  -24.2302   19.1101 H   0  0  0  0  0  0
  -28.7331  -16.3229   20.5551 H   0  0  0  0  0  0
  1 25  1  0  0  0
  1 30  2  0  0  0
  1 82  1  0  0  0
  2  3  1  0  0  0
  2 25  1  0  0  0
  2 83  1  0  0  0
  2 84  1  0  0  0
  3  4  1  0  0  0
  3 85  1  0  0  0
  3 86  1  0  0  0
  4  5  1  0  0  0
  4 87  1  0  0  0
  4 88  1  0  0  0
  5  6  1  0  0  0
  5 26  1  0  0  0
  5 89  1  0  0  0
  6 25  1  0  0  0
  6 90  1  0  0  0
  6 91  1  0  0  0
  7  8  2  0  0  0
  7 26  1  0  0  0
  7 29  1  0  0  0
  8  9  1  0  0  0
  8 22  1  0  0  0
  9 10  1  0  0  0
  9 27  2  0  0  0
 10 11  2  0  0  0
 10 15  1  0  0  0
 11 12  1  0  0  0
 11 92  1  0  0  0
 12 13  2  0  0  0
 12 93  1  0  0  0
 13 14  1  0  0  0
 13 31  1  0  0  0
 14 15  2  0  0  0
 14 94  1  0  0  0
 15 95  1  0  0  0
 16 17  2  0  0  0
 16 21  1  0  0  0
 16 31  1  0  0  0
 17 18  1  0  0  0
 17 96  1  0  0  0
 18 19  2  0  0  0
 18 97  1  0  0  0
 19 20  1  0  0  0
 19 24  1  0  0  0
 20 21  2  0  0  0
 20 98  1  0  0  0
 21 23  1  0  0  0
 22 28  1  0  0  0
 22 32  2  0  0  0
 26 27  1  0  0  0
 28 99  1  0  0  0
 28100  1  0  0  0
 29101  1  0  0  0
 29102  1  0  0  0
 33 34  1  0  0  0
 33 66  1  0  0  0
 33 70  2  0  0  0
 34 36  1  0  0  0
 34 59  1  0  0  0
 34103  1  0  0  0
 35 44  2  0  0  0
 35 45  1  0  0  0
 35 68  1  0  0  0
 36 56  1  0  0  0
 36104  1  0  0  0
 37 39  1  0  0  0
 37 47  1  0  0  0
 37 66  1  0  0  0
 37105  1  0  0  0
 38 43  2  0  0  0
 38 46  1  0  0  0
 38 47  1  0  0  0
 39 64  1  0  0  0
 39 67  2  0  0  0
 40 52  1  0  0  0
 40 53  2  0  0  0
 40 58  1  0  0  0
 41106  1  0  0  0
 41107  1  0  0  0
 41108  1  0  0  0
 41 48  1  0  0  0
 42 43  1  0  0  0
 42 66  1  0  0  0
 42109  1  0  0  0
 42110  1  0  0  0
 43 44  1  0  0  0
 44111  1  0  0  0
 45 46  2  0  0  0
 45112  1  0  0  0
 46113  1  0  0  0
 47114  1  0  0  0
 47115  1  0  0  0
 48 56  1  0  0  0
 48 65  1  0  0  0
 48116  1  0  0  0
 49 50  1  0  0  0
 49 53  1  0  0  0
 49 64  1  0  0  0
 49117  1  0  0  0
 50 51  1  0  0  0
 50118  1  0  0  0
 50119  1  0  0  0
 51 52  1  0  0  0
 51120  1  0  0  0
 51121  1  0  0  0
 52122  1  0  0  0
 52123  1  0  0  0
 53 54  1  0  0  0
 54 55  2  0  0  0
 54124  1  0  0  0
 55 57  1  0  0  0
 55125  1  0  0  0
 56 69  2  0  0  0
 57 58  2  0  0  0
 57126  1  0  0  0
 58127  1  0  0  0
 59 60  1  0  0  0
 59 61  1  0  0  0
 59 62  1  0  0  0
 60128  1  0  0  0
 60129  1  0  0  0
 60130  1  0  0  0
 61131  1  0  0  0
 61132  1  0  0  0
 61133  1  0  0  0
 62134  1  0  0  0
 62135  1  0  0  0
 62136  1  0  0  0
 63 65  1  0  0  0
 63137  1  0  0  0
 63138  1  0  0  0
 63139  1  0  0  0
 64140  1  0  0  0
 65141  1  0  0  0
 68 80  1  0  0  0
 71 72  2  0  0  0
 71 74  1  0  0  0
 71142  1  0  0  0
 72 73  1  0  0  0
 72 78  1  0  0  0
 73 75  2  0  0  0
 73 79  1  0  0  0
 74 80  1  0  0  0
 74 81  2  0  0  0
 75 76  1  0  0  0
 75 81  1  0  0  0
 76143  1  0  0  0
 76144  1  0  0  0
 76145  1  0  0  0
 77 78  1  0  0  0
 77146  1  0  0  0
 77147  1  0  0  0
 77148  1  0  0  0
 78149  1  0  0  0
 78150  1  0  0  0
 79 82  1  0  0  0
 79151  1  0  0  0
 79152  1  0  0  0
 80153  1  0  0  0
 80154  1  0  0  0
 82155  1  0  0  0
M  ISO  4   1 100  68 101  80 101  82 100
M  END
> <chiral flag>
0

> <version>
0

> <s_m_source_file>
/data/baiqing/PycharmProjects/Reinvent-master-3.2/result/LINK_invent/BTK/process_docking_weight1_custom_sum_contain_oxygen_bond_distance_aromatic_linkinvent_7_9_3/rearranged_h_0036.sdf

> <i_m_source_file_index>
29

> <r_mmod_Potential_Energy-OPLS-2005>
942.025512695312

> <r_mmod_Stretch_Energy-OPLS-2005>
469.043853759766

> <r_mmod_Bend_Energy-OPLS-2005>
421.002593994141

> <r_mmod_Torsional_Energy-OPLS-2005>
227.14714050293

> <r_mmod_Improper_Torsional_Energy-OPLS-2005>
9.86504745483398

> <r_mmod_Van_der_Waal_Energy-OPLS-2005>
131.659072875977

> <r_mmod_Electrostatic_Energy-OPLS-2005>
-486.86376953125

> <r_mmod_Solvation_Energy-OPLS-2005>
-229.45751953125

> <b_mmod_Minimization_Converged-OPLS-2005>
0

> <r_mmod_RMS_Derivative-OPLS-2005>
0.521403431892395

$$$$
30
                    3D
 Structure written by MMmdl.
161169  0  0  1  0            999 V2000
  -30.7381  -14.3416   20.6975 C   0  0  0  0  0  0
  -30.4373  -12.2780   19.3817 C   0  0  0  0  0  0
  -29.4950  -12.5181   18.1869 C   0  0  0  0  0  0
  -28.0135  -12.3926   18.5989 C   0  0  0  0  0  0
  -27.6745  -13.1906   19.8845 C   0  0  2  0  0  0
  -28.7106  -12.8806   20.9875 C   0  0  0  0  0  0
  -25.2645  -13.8130   20.5691 C   0  0  0  0  0  0
  -24.1874  -13.0412   20.9198 C   0  0  0  0  0  0
  -24.6387  -11.6884   20.8721 C   0  0  0  0  0  0
  -23.9023  -10.4284   21.0377 C   0  0  0  0  0  0
  -24.3574   -9.4218   21.9152 C   0  0  0  0  0  0
  -23.6277   -8.2241   22.0735 C   0  0  0  0  0  0
  -22.4258   -8.0270   21.3547 C   0  0  0  0  0  0
  -21.9870   -9.0232   20.4647 C   0  0  0  0  0  0
  -22.7177  -10.2125   20.3051 C   0  0  0  0  0  0
  -21.6854   -6.0733   22.5290 C   0  0  0  0  0  0
  -21.4019   -6.5633   23.8225 C   0  0  0  0  0  0
  -21.3669   -5.6786   24.9186 C   0  0  0  0  0  0
  -21.6047   -4.3046   24.7243 C   0  0  0  0  0  0
  -21.8807   -3.8140   23.4355 C   0  0  0  0  0  0
  -21.9190   -4.6956   22.3415 C   0  0  0  0  0  0
  -22.7894  -13.5231   21.1864 C   0  0  0  0  0  0
  -22.1647   -4.2138   21.0993 F   0  0  0  0  0  0
  -21.5629   -3.4533   25.7760 F   0  0  0  0  0  0
  -30.0585  -13.1923   20.4650 N   0  0  0  0  0  0
  -26.3079  -12.9259   20.3382 N   0  0  0  0  0  0
  -25.9303  -11.6440   20.5736 N   0  0  0  0  0  0
  -22.0503  -12.8264   22.0433 N   0  0  0  0  0  0
  -25.4387  -15.1837   20.4102 N   0  0  0  0  0  0
  -31.7398  -14.6978   20.0668 O   0  0  0  0  0  0
  -21.6629   -6.8858   21.4250 O   0  0  0  0  0  0
  -22.3584  -14.5533   20.6706 O   0  0  0  0  0  0
  -24.6107  -31.8716   23.2139 C   0  0  0  0  0  0
  -25.9011  -32.4855   23.8418 C   0  0  1  0  0  0
  -27.2363  -27.4579   20.0866 C   0  0  0  0  0  0
  -25.5894  -33.8650   24.2349 N   0  0  0  0  0  0
  -23.3964  -30.4967   21.5547 C   0  0  2  0  0  0
  -24.8402  -28.9664   20.1194 C   0  0  0  0  0  0
  -22.7380  -29.4670   22.5008 C   0  0  0  0  0  0
  -18.0272  -28.1383   22.8502 C   0  0  0  0  0  0
  -24.1486  -36.7321   23.2637 C   0  0  0  0  0  0
  -25.9223  -30.8446   21.3632 C   0  0  0  0  0  0
  -25.9980  -29.4783   20.7161 C   0  0  0  0  0  0
  -27.1948  -28.7298   20.6989 C   0  0  0  0  0  0
  -26.0562  -26.9600   19.4821 C   0  0  0  0  0  0
  -24.8639  -27.7059   19.5013 C   0  0  0  0  0  0
  -23.6009  -29.8301   20.1690 C   0  0  0  0  0  0
  -25.4111  -36.3133   24.0341 C   0  0  1  0  0  0
  -20.5853  -28.3641   23.1349 C   0  0  2  0  0  0
  -20.6757  -26.9387   22.5428 C   0  0  0  0  0  0
  -19.5740  -26.6390   21.5219 C   0  0  0  0  0  0
  -18.1918  -26.7936   22.1625 C   0  0  0  0  0  0
  -19.1519  -28.8829   23.2925 C   0  0  0  0  0  0
  -18.9440  -30.1444   23.8924 C   0  0  0  0  0  0
  -17.6439  -30.6588   24.0564 C   0  0  0  0  0  0
  -25.9031  -34.9494   23.5140 C   0  0  0  0  0  0
  -16.5332  -29.9089   23.6330 C   0  0  0  0  0  0
  -16.7258  -28.6511   23.0346 C   0  0  0  0  0  0
  -26.4444  -31.6627   25.0733 C   0  0  0  0  0  0
  -25.3715  -31.3739   26.1486 C   0  0  0  0  0  0
  -27.0242  -30.3075   24.6073 C   0  0  0  0  0  0
  -27.6042  -32.4320   25.7484 C   0  0  0  0  0  0
  -27.5580  -37.1820   24.8464 C   0  0  0  0  0  0
  -21.4106  -29.3027   22.3757 N   0  0  0  0  0  0
  -26.4297  -37.3812   23.9410 N   0  0  0  0  0  0
  -24.6619  -31.0836   22.1037 N   0  0  0  0  0  0
  -23.4166  -28.8197   23.3018 O   0  0  0  0  0  0
  -28.4478  -26.7965   20.0558 O   0  0  0  0  0  0
  -26.5577  -34.8932   22.4690 O   0  0  0  0  0  0
  -23.5303  -32.1438   23.7558 O   0  0  0  0  0  0
  -29.3155  -19.3882   21.4429 C   0  0  0  0  0  0
  -29.1889  -20.7839   21.5511 C   0  0  0  0  0  0
  -28.1074  -20.5153   23.7099 C   0  0  0  0  0  0
  -28.8423  -18.5391   22.4652 C   0  0  0  0  0  0
  -28.2325  -19.1119   23.6121 C   0  0  0  0  0  0
  -28.5551  -21.3591   22.6738 C   0  0  0  0  0  0
  -27.6613  -18.2578   24.7336 C   0  0  0  0  0  0
  -28.9348  -17.0319   22.2582 C   0  0  0  0  0  0
  -28.7079  -24.7702   21.3880 C   0  0  0  0  0  0
  -30.3379  -16.5010   21.8962 C   0  0  0  0  0  0
  -27.9350  -23.4566   21.5747 C   0  0  0  0  0  0
  -28.4818  -25.3698   19.9886 C   0  0  0  0  0  0
  -28.3376  -22.7402   22.7838 N   0  0  0  0  0  0
  -30.2097  -15.0696   21.6806 N   0  0  0  0  0  0
  -31.4782  -12.4092   19.0762 H   0  0  0  0  0  0
  -30.3638  -11.2455   19.7246 H   0  0  0  0  0  0
  -29.7206  -11.8059   17.3916 H   0  0  0  0  0  0
  -29.6797  -13.5087   17.7695 H   0  0  0  0  0  0
  -27.7970  -11.3352   18.7543 H   0  0  0  0  0  0
  -27.3738  -12.7142   17.7773 H   0  0  0  0  0  0
  -27.7460  -14.2511   19.6419 H   0  0  0  0  0  0
  -28.6736  -11.8201   21.2419 H   0  0  0  0  0  0
  -28.4462  -13.3967   21.9117 H   0  0  0  0  0  0
  -25.2706   -9.5730   22.4720 H   0  0  0  0  0  0
  -24.0014   -7.4638   22.7444 H   0  0  0  0  0  0
  -21.0792   -8.8715   19.8964 H   0  0  0  0  0  0
  -22.3577  -10.9650   19.6171 H   0  0  0  0  0  0
  -21.2008   -7.6138   23.9734 H   0  0  0  0  0  0
  -21.1506   -6.0514   25.9093 H   0  0  0  0  0  0
  -22.0587   -2.7601   23.2866 H   0  0  0  0  0  0
  -22.4064  -11.9935   22.4866 H   0  0  0  0  0  0
  -21.1144  -13.1369   22.2611 H   0  0  0  0  0  0
  -24.6785  -15.8439   20.5309 H   0  0  0  0  0  0
  -26.2893  -15.6188   20.0740 H   0  0  0  0  0  0
  -26.7083  -32.5567   23.1184 H   0  0  0  0  0  0
  -25.0079  -33.9835   25.0516 H   0  0  0  0  0  0
  -22.6839  -31.3127   21.4188 H   0  0  0  0  0  0
  -23.3746  -35.9651   23.3329 H   0  0  0  0  0  0
  -24.3576  -36.8905   22.2045 H   0  0  0  0  0  0
  -23.7236  -37.6540   23.6621 H   0  0  0  0  0  0
  -26.0244  -31.6082   20.5913 H   0  0  0  0  0  0
  -26.8169  -30.9036   21.9720 H   0  0  0  0  0  0
  -28.0915  -29.1266   21.1531 H   0  0  0  0  0  0
  -26.0250  -26.0214   18.9535 H   0  0  0  0  0  0
  -23.9761  -27.3129   19.0265 H   0  0  0  0  0  0
  -23.7037  -30.6063   19.4102 H   0  0  0  0  0  0
  -22.7256  -29.2482   19.8743 H   0  0  0  0  0  0
  -25.1287  -36.2009   25.0833 H   0  0  0  0  0  0
  -20.9948  -28.3195   24.1463 H   0  0  0  0  0  0
  -20.5674  -26.2228   23.3592 H   0  0  0  0  0  0
  -21.6622  -26.7449   22.1197 H   0  0  0  0  0  0
  -19.6896  -25.6309   21.1233 H   0  0  0  0  0  0
  -19.6701  -27.3210   20.6762 H   0  0  0  0  0  0
  -17.4184  -26.6688   21.4034 H   0  0  0  0  0  0
  -18.0317  -26.0083   22.9025 H   0  0  0  0  0  0
  -19.7911  -30.7267   24.2289 H   0  0  0  0  0  0
  -17.4993  -31.6276   24.5150 H   0  0  0  0  0  0
  -15.5333  -30.2990   23.7659 H   0  0  0  0  0  0
  -15.8656  -28.0846   22.7034 H   0  0  0  0  0  0
  -24.5870  -30.7111   25.7824 H   0  0  0  0  0  0
  -24.8915  -32.2895   26.4950 H   0  0  0  0  0  0
  -25.8062  -30.8890   27.0232 H   0  0  0  0  0  0
  -26.2768  -29.6896   24.1085 H   0  0  0  0  0  0
  -27.3977  -29.7265   25.4512 H   0  0  0  0  0  0
  -27.8621  -30.4416   23.9228 H   0  0  0  0  0  0
  -27.2700  -33.3621   26.2092 H   0  0  0  0  0  0
  -28.3840  -32.6882   25.0300 H   0  0  0  0  0  0
  -28.0712  -31.8413   26.5375 H   0  0  0  0  0  0
  -28.2611  -38.0102   24.7504 H   0  0  0  0  0  0
  -28.1064  -36.2640   24.6304 H   0  0  0  0  0  0
  -27.2293  -37.1492   25.8863 H   0  0  0  0  0  0
  -20.9231  -29.8750   21.7005 H   0  0  0  0  0  0
  -26.0196  -38.2892   24.1409 H   0  0  0  0  0  0
  -29.7639  -18.9750   20.5503 H   0  0  0  0  0  0
  -29.5740  -21.3951   20.7473 H   0  0  0  0  0  0
  -27.6314  -20.9444   24.5808 H   0  0  0  0  0  0
  -28.4259  -17.6193   25.1748 H   0  0  0  0  0  0
  -26.8561  -17.6267   24.3577 H   0  0  0  0  0  0
  -27.2445  -18.8692   25.5343 H   0  0  0  0  0  0
  -28.2320  -16.7809   21.4615 H   0  0  0  0  0  0
  -28.5803  -16.4959   23.1365 H   0  0  0  0  0  0
  -29.7791  -24.6142   21.5285 H   0  0  0  0  0  0
  -28.3999  -25.4789   22.1583 H   0  0  0  0  0  0
  -31.0542  -16.6926   22.6968 H   0  0  0  0  0  0
  -30.7190  -16.9804   20.9935 H   0  0  0  0  0  0
  -28.0312  -22.8463   20.6775 H   0  0  0  0  0  0
  -26.8703  -23.6836   21.6439 H   0  0  0  0  0  0
  -27.6162  -24.9130   19.5178 H   0  0  0  0  0  0
  -29.3178  -25.0857   19.3488 H   0  0  0  0  0  0
  -27.8352  -23.0197   23.6246 H   0  0  0  0  0  0
  -29.4572  -14.6167   22.1783 H   0  0  0  0  0  0
  1 25  1  0  0  0
  1 30  2  0  0  0
  1 84  1  0  0  0
  2  3  1  0  0  0
  2 25  1  0  0  0
  2 85  1  0  0  0
  2 86  1  0  0  0
  3  4  1  0  0  0
  3 87  1  0  0  0
  3 88  1  0  0  0
  4  5  1  0  0  0
  4 89  1  0  0  0
  4 90  1  0  0  0
  5  6  1  0  0  0
  5 26  1  0  0  0
  5 91  1  0  0  0
  6 25  1  0  0  0
  6 92  1  0  0  0
  6 93  1  0  0  0
  7  8  2  0  0  0
  7 26  1  0  0  0
  7 29  1  0  0  0
  8  9  1  0  0  0
  8 22  1  0  0  0
  9 10  1  0  0  0
  9 27  2  0  0  0
 10 11  2  0  0  0
 10 15  1  0  0  0
 11 12  1  0  0  0
 11 94  1  0  0  0
 12 13  2  0  0  0
 12 95  1  0  0  0
 13 14  1  0  0  0
 13 31  1  0  0  0
 14 15  2  0  0  0
 14 96  1  0  0  0
 15 97  1  0  0  0
 16 17  2  0  0  0
 16 21  1  0  0  0
 16 31  1  0  0  0
 17 18  1  0  0  0
 17 98  1  0  0  0
 18 19  2  0  0  0
 18 99  1  0  0  0
 19 20  1  0  0  0
 19 24  1  0  0  0
 20 21  2  0  0  0
 20100  1  0  0  0
 21 23  1  0  0  0
 22 28  1  0  0  0
 22 32  2  0  0  0
 26 27  1  0  0  0
 28101  1  0  0  0
 28102  1  0  0  0
 29103  1  0  0  0
 29104  1  0  0  0
 33 34  1  0  0  0
 33 66  1  0  0  0
 33 70  2  0  0  0
 34 36  1  0  0  0
 34 59  1  0  0  0
 34105  1  0  0  0
 35 44  2  0  0  0
 35 45  1  0  0  0
 35 68  1  0  0  0
 36 56  1  0  0  0
 36106  1  0  0  0
 37 39  1  0  0  0
 37 47  1  0  0  0
 37 66  1  0  0  0
 37107  1  0  0  0
 38 43  2  0  0  0
 38 46  1  0  0  0
 38 47  1  0  0  0
 39 64  1  0  0  0
 39 67  2  0  0  0
 40 52  1  0  0  0
 40 53  2  0  0  0
 40 58  1  0  0  0
 41108  1  0  0  0
 41109  1  0  0  0
 41110  1  0  0  0
 41 48  1  0  0  0
 42 43  1  0  0  0
 42 66  1  0  0  0
 42111  1  0  0  0
 42112  1  0  0  0
 43 44  1  0  0  0
 44113  1  0  0  0
 45 46  2  0  0  0
 45114  1  0  0  0
 46115  1  0  0  0
 47116  1  0  0  0
 47117  1  0  0  0
 48 56  1  0  0  0
 48 65  1  0  0  0
 48118  1  0  0  0
 49 50  1  0  0  0
 49 53  1  0  0  0
 49 64  1  0  0  0
 49119  1  0  0  0
 50 51  1  0  0  0
 50120  1  0  0  0
 50121  1  0  0  0
 51 52  1  0  0  0
 51122  1  0  0  0
 51123  1  0  0  0
 52124  1  0  0  0
 52125  1  0  0  0
 53 54  1  0  0  0
 54 55  2  0  0  0
 54126  1  0  0  0
 55 57  1  0  0  0
 55127  1  0  0  0
 56 69  2  0  0  0
 57 58  2  0  0  0
 57128  1  0  0  0
 58129  1  0  0  0
 59 60  1  0  0  0
 59 61  1  0  0  0
 59 62  1  0  0  0
 60130  1  0  0  0
 60131  1  0  0  0
 60132  1  0  0  0
 61133  1  0  0  0
 61134  1  0  0  0
 61135  1  0  0  0
 62136  1  0  0  0
 62137  1  0  0  0
 62138  1  0  0  0
 63 65  1  0  0  0
 63139  1  0  0  0
 63140  1  0  0  0
 63141  1  0  0  0
 64142  1  0  0  0
 65143  1  0  0  0
 68 82  1  0  0  0
 71 72  2  0  0  0
 71 74  1  0  0  0
 71144  1  0  0  0
 72 76  1  0  0  0
 72145  1  0  0  0
 73 75  1  0  0  0
 73 76  2  0  0  0
 73146  1  0  0  0
 74 75  2  0  0  0
 74 78  1  0  0  0
 75 77  1  0  0  0
 76 83  1  0  0  0
 77147  1  0  0  0
 77148  1  0  0  0
 77149  1  0  0  0
 78 80  1  0  0  0
 78150  1  0  0  0
 78151  1  0  0  0
 79 81  1  0  0  0
 79 82  1  0  0  0
 79152  1  0  0  0
 79153  1  0  0  0
 80 84  1  0  0  0
 80154  1  0  0  0
 80155  1  0  0  0
 81 83  1  0  0  0
 81156  1  0  0  0
 81157  1  0  0  0
 82158  1  0  0  0
 82159  1  0  0  0
 83160  1  0  0  0
 84161  1  0  0  0
M  ISO  4   1 100  68 101  82 101  84 100
M  END
> <chiral flag>
0

> <version>
0

> <s_m_source_file>
/data/baiqing/PycharmProjects/Reinvent-master-3.2/result/LINK_invent/BTK/process_docking_weight1_custom_sum_contain_oxygen_bond_distance_aromatic_linkinvent_7_9_3/rearranged_h_0036.sdf

> <i_m_source_file_index>
30

> <r_mmod_Potential_Energy-OPLS-2005>
-81.5060729980469

> <r_mmod_Stretch_Energy-OPLS-2005>
32.5123863220215

> <r_mmod_Bend_Energy-OPLS-2005>
102.205406188965

> <r_mmod_Torsional_Energy-OPLS-2005>
207.775421142578

> <r_mmod_Improper_Torsional_Energy-OPLS-2005>
6.66162586212158

> <r_mmod_Van_der_Waal_Energy-OPLS-2005>
164.535247802734

> <r_mmod_Electrostatic_Energy-OPLS-2005>
-380.963409423828

> <r_mmod_Solvation_Energy-OPLS-2005>
-222.830703735352

> <b_mmod_Minimization_Converged-OPLS-2005>
0

> <r_mmod_RMS_Derivative-OPLS-2005>
2.28418946266174

$$$$
31
                    3D
 Structure written by MMmdl.
154162  0  0  1  0            999 V2000
  -30.6147  -14.7273   20.4757 C   0  0  0  0  0  0
  -30.4364  -12.4472   19.4598 C   0  0  0  0  0  0
  -29.5086  -12.4884   18.2272 C   0  0  0  0  0  0
  -28.0366  -12.3055   18.6439 C   0  0  0  0  0  0
  -27.6355  -13.2212   19.8311 C   0  0  2  0  0  0
  -28.6804  -13.1637   20.9665 C   0  0  0  0  0  0
  -25.2474  -13.8188   20.5619 C   0  0  0  0  0  0
  -24.1759  -13.0453   20.9202 C   0  0  0  0  0  0
  -24.6327  -11.6922   20.8731 C   0  0  0  0  0  0
  -23.9002  -10.4303   21.0430 C   0  0  0  0  0  0
  -24.3590   -9.4222   21.9203 C   0  0  0  0  0  0
  -23.6308   -8.2231   22.0767 C   0  0  0  0  0  0
  -22.4288   -8.0245   21.3543 C   0  0  0  0  0  0
  -21.9900   -9.0213   20.4643 C   0  0  0  0  0  0
  -22.7196  -10.2102   20.3065 C   0  0  0  0  0  0
  -21.6843   -6.0725   22.5294 C   0  0  0  0  0  0
  -21.4004   -6.5654   23.8221 C   0  0  0  0  0  0
  -21.3645   -5.6806   24.9192 C   0  0  0  0  0  0
  -21.6055   -4.3070   24.7231 C   0  0  0  0  0  0
  -21.8825   -3.8141   23.4356 C   0  0  0  0  0  0
  -21.9181   -4.6956   22.3400 C   0  0  0  0  0  0
  -22.7775  -13.5235   21.1871 C   0  0  0  0  0  0
  -22.1651   -4.2153   21.0973 F   0  0  0  0  0  0
  -21.5623   -3.4543   25.7734 F   0  0  0  0  0  0
  -29.9824  -13.5089   20.3825 N   0  0  0  0  0  0
  -26.2880  -12.9366   20.3166 N   0  0  0  0  0  0
  -25.9249  -11.6528   20.5726 N   0  0  0  0  0  0
  -22.0371  -12.8250   22.0419 N   0  0  0  0  0  0
  -25.4149  -15.1926   20.3998 N   0  0  0  0  0  0
  -31.8181  -14.8273   20.2253 O   0  0  0  0  0  0
  -21.6630   -6.8860   21.4249 O   0  0  0  0  0  0
  -22.3447  -14.5523   20.6686 O   0  0  0  0  0  0
  -24.6380  -31.8513   23.1912 C   0  0  0  0  0  0
  -25.9252  -32.4671   23.8247 C   0  0  1  0  0  0
  -27.2161  -27.2532   20.1211 C   0  0  0  0  0  0
  -25.6085  -33.8468   24.2211 N   0  0  0  0  0  0
  -23.4286  -30.4813   21.5305 C   0  0  2  0  0  0
  -24.8708  -28.9284   20.0976 C   0  0  0  0  0  0
  -22.7467  -29.4682   22.4822 C   0  0  0  0  0  0
  -18.0302  -28.1399   22.8463 C   0  0  0  0  0  0
  -24.1542  -36.7230   23.2621 C   0  0  0  0  0  0
  -25.9753  -30.7635   21.3719 C   0  0  0  0  0  0
  -26.0417  -29.3892   20.7086 C   0  0  0  0  0  0
  -27.2149  -28.5659   20.7079 C   0  0  0  0  0  0
  -26.0170  -26.8699   19.4743 C   0  0  0  0  0  0
  -24.8662  -27.6761   19.4660 C   0  0  0  0  0  0
  -23.6404  -29.8101   20.1491 C   0  0  0  0  0  0
  -25.4165  -36.2980   24.0303 C   0  0  1  0  0  0
  -20.5905  -28.3734   23.1187 C   0  0  2  0  0  0
  -20.6827  -26.9441   22.5352 C   0  0  0  0  0  0
  -19.5819  -26.6401   21.5160 C   0  0  0  0  0  0
  -18.1978  -26.7963   22.1548 C   0  0  0  0  0  0
  -19.1548  -28.8881   23.2825 C   0  0  0  0  0  0
  -18.9471  -30.1481   23.8849 C   0  0  0  0  0  0
  -17.6472  -30.6569   24.0576 C   0  0  0  0  0  0
  -25.9121  -34.9374   23.5022 C   0  0  0  0  0  0
  -16.5361  -29.9066   23.6375 C   0  0  0  0  0  0
  -16.7290  -28.6493   23.0380 C   0  0  0  0  0  0
  -26.4643  -31.6466   25.0613 C   0  0  0  0  0  0
  -25.3887  -31.3618   26.1335 C   0  0  0  0  0  0
  -27.0537  -30.2872   24.6164 C   0  0  0  0  0  0
  -27.6209  -32.4192   25.7373 C   0  0  0  0  0  0
  -27.5590  -37.1746   24.8441 C   0  0  0  0  0  0
  -21.4183  -29.3079   22.3545 N   0  0  0  0  0  0
  -26.4299  -37.3714   23.9384 N   0  0  0  0  0  0
  -24.6989  -31.0528   22.0856 N   0  0  0  0  0  0
  -23.4159  -28.8314   23.3000 O   0  0  0  0  0  0
  -28.3241  -26.3728   20.2288 O   0  0  0  0  0  0
  -26.5602  -34.8860   22.4528 O   0  0  0  0  0  0
  -23.5551  -32.1348   23.7225 O   0  0  0  0  0  0
  -28.6758  -22.3303   20.0231 C   0  0  0  0  0  0
  -29.0030  -21.2114   20.8676 C   0  0  0  0  0  0
  -28.6844  -23.6768   20.5413 C   0  0  0  0  0  0
  -29.2892  -22.7582   22.5704 C   0  0  0  0  0  0
  -29.5280  -22.9938   24.0478 C   0  0  0  0  0  0
  -28.7554  -19.6672   20.5296 C   0  0  0  0  0  0
  -28.3454  -24.9712   19.6701 C   0  0  0  0  0  0
  -29.8977  -18.5778   20.1795 C   0  0  0  0  0  0
  -30.2034  -17.2715   21.0902 C   0  0  0  0  0  0
  -29.3223  -21.4874   22.1479 N   0  0  0  0  0  0
  -28.9961  -23.8402   21.8446 N   0  0  0  0  0  0
  -29.8300  -15.8516   20.6637 N   0  0  0  0  0  0
  -31.4742  -12.5852   19.1521 H   0  0  0  0  0  0
  -30.3926  -11.4700   19.9468 H   0  0  0  0  0  0
  -29.8003  -11.7160   17.5154 H   0  0  0  0  0  0
  -29.6232  -13.4388   17.7066 H   0  0  0  0  0  0
  -27.9089  -11.2615   18.9316 H   0  0  0  0  0  0
  -27.3745  -12.4603   17.7917 H   0  0  0  0  0  0
  -27.6309  -14.2353   19.4313 H   0  0  0  0  0  0
  -28.7123  -12.1712   21.4226 H   0  0  0  0  0  0
  -28.4102  -13.8540   21.7655 H   0  0  0  0  0  0
  -25.2740   -9.5726   22.4764 H   0  0  0  0  0  0
  -24.0027   -7.4644   22.7504 H   0  0  0  0  0  0
  -21.0834   -8.8711   19.8972 H   0  0  0  0  0  0
  -22.3664  -10.9618   19.6153 H   0  0  0  0  0  0
  -21.1994   -7.6168   23.9732 H   0  0  0  0  0  0
  -21.1463   -6.0530   25.9102 H   0  0  0  0  0  0
  -22.0603   -2.7610   23.2836 H   0  0  0  0  0  0
  -22.3939  -11.9943   22.4896 H   0  0  0  0  0  0
  -21.0962  -13.1270   22.2499 H   0  0  0  0  0  0
  -24.6457  -15.8452   20.5186 H   0  0  0  0  0  0
  -26.2558  -15.6361   20.0532 H   0  0  0  0  0  0
  -26.7316  -32.5325   23.0981 H   0  0  0  0  0  0
  -25.0529  -33.9605   25.0567 H   0  0  0  0  0  0
  -22.7278  -31.3052   21.3807 H   0  0  0  0  0  0
  -23.3795  -35.9563   23.3204 H   0  0  0  0  0  0
  -24.3690  -36.8935   22.2057 H   0  0  0  0  0  0
  -23.7285  -37.6402   23.6705 H   0  0  0  0  0  0
  -26.1222  -31.5356   20.6154 H   0  0  0  0  0  0
  -26.8497  -30.7921   22.0109 H   0  0  0  0  0  0
  -28.1094  -28.9209   21.1962 H   0  0  0  0  0  0
  -25.8992  -25.9206   18.9796 H   0  0  0  0  0  0
  -23.9704  -27.3132   18.9753 H   0  0  0  0  0  0
  -23.7400  -30.5748   19.3785 H   0  0  0  0  0  0
  -22.7620  -29.2299   19.8632 H   0  0  0  0  0  0
  -25.1331  -36.1798   25.0795 H   0  0  0  0  0  0
  -21.0015  -28.3349   24.1307 H   0  0  0  0  0  0
  -20.5730  -26.2349   23.3572 H   0  0  0  0  0  0
  -21.6710  -26.7514   22.1162 H   0  0  0  0  0  0
  -19.6984  -25.6300   21.1222 H   0  0  0  0  0  0
  -19.6786  -27.3187   20.6674 H   0  0  0  0  0  0
  -17.4289  -26.6739   21.3904 H   0  0  0  0  0  0
  -18.0343  -26.0058   22.8886 H   0  0  0  0  0  0
  -19.7949  -30.7311   24.2157 H   0  0  0  0  0  0
  -17.5039  -31.6247   24.5166 H   0  0  0  0  0  0
  -15.5358  -30.2957   23.7722 H   0  0  0  0  0  0
  -15.8710  -28.0802   22.7112 H   0  0  0  0  0  0
  -24.6129  -30.6880   25.7668 H   0  0  0  0  0  0
  -24.9029  -32.2792   26.4639 H   0  0  0  0  0  0
  -25.8253  -30.8892   27.0144 H   0  0  0  0  0  0
  -26.3137  -29.6452   24.1380 H   0  0  0  0  0  0
  -27.4407  -29.7269   25.4681 H   0  0  0  0  0  0
  -27.8916  -30.4049   23.9295 H   0  0  0  0  0  0
  -27.2883  -33.3573   26.1801 H   0  0  0  0  0  0
  -28.4118  -32.6578   25.0250 H   0  0  0  0  0  0
  -28.0776  -31.8386   26.5399 H   0  0  0  0  0  0
  -28.2526  -38.0116   24.7584 H   0  0  0  0  0  0
  -28.1168  -36.2652   24.6163 H   0  0  0  0  0  0
  -27.2321  -37.1248   25.8841 H   0  0  0  0  0  0
  -20.9329  -29.8700   21.6691 H   0  0  0  0  0  0
  -26.0137  -38.2747   24.1463 H   0  0  0  0  0  0
  -28.3779  -22.1707   18.9950 H   0  0  0  0  0  0
  -29.9634  -22.1211   24.5388 H   0  0  0  0  0  0
  -28.5864  -23.2179   24.5482 H   0  0  0  0  0  0
  -30.1981  -23.8415   24.1988 H   0  0  0  0  0  0
  -28.0741  -19.6829   19.6803 H   0  0  0  0  0  0
  -28.1460  -19.2514   21.3306 H   0  0  0  0  0  0
  -27.4677  -24.7092   19.0895 H   0  0  0  0  0  0
  -29.1458  -24.9881   18.9271 H   0  0  0  0  0  0
  -30.8305  -19.1273   20.0525 H   0  0  0  0  0  0
  -29.6852  -18.2068   19.1765 H   0  0  0  0  0  0
  -29.7508  -17.4244   22.0705 H   0  0  0  0  0  0
  -31.2786  -17.2654   21.2942 H   0  0  0  0  0  0
  -28.8417  -15.6527   20.6800 H   0  0  0  0  0  0
  1 25  1  0  0  0
  1 30  2  0  0  0
  1 82  1  0  0  0
  2  3  1  0  0  0
  2 25  1  0  0  0
  2 83  1  0  0  0
  2 84  1  0  0  0
  3  4  1  0  0  0
  3 85  1  0  0  0
  3 86  1  0  0  0
  4  5  1  0  0  0
  4 87  1  0  0  0
  4 88  1  0  0  0
  5  6  1  0  0  0
  5 26  1  0  0  0
  5 89  1  0  0  0
  6 25  1  0  0  0
  6 90  1  0  0  0
  6 91  1  0  0  0
  7  8  2  0  0  0
  7 26  1  0  0  0
  7 29  1  0  0  0
  8  9  1  0  0  0
  8 22  1  0  0  0
  9 10  1  0  0  0
  9 27  2  0  0  0
 10 11  2  0  0  0
 10 15  1  0  0  0
 11 12  1  0  0  0
 11 92  1  0  0  0
 12 13  2  0  0  0
 12 93  1  0  0  0
 13 14  1  0  0  0
 13 31  1  0  0  0
 14 15  2  0  0  0
 14 94  1  0  0  0
 15 95  1  0  0  0
 16 17  2  0  0  0
 16 21  1  0  0  0
 16 31  1  0  0  0
 17 18  1  0  0  0
 17 96  1  0  0  0
 18 19  2  0  0  0
 18 97  1  0  0  0
 19 20  1  0  0  0
 19 24  1  0  0  0
 20 21  2  0  0  0
 20 98  1  0  0  0
 21 23  1  0  0  0
 22 28  1  0  0  0
 22 32  2  0  0  0
 26 27  1  0  0  0
 28 99  1  0  0  0
 28100  1  0  0  0
 29101  1  0  0  0
 29102  1  0  0  0
 33 34  1  0  0  0
 33 66  1  0  0  0
 33 70  2  0  0  0
 34 36  1  0  0  0
 34 59  1  0  0  0
 34103  1  0  0  0
 35 44  2  0  0  0
 35 45  1  0  0  0
 35 68  1  0  0  0
 36 56  1  0  0  0
 36104  1  0  0  0
 37 39  1  0  0  0
 37 47  1  0  0  0
 37 66  1  0  0  0
 37105  1  0  0  0
 38 43  2  0  0  0
 38 46  1  0  0  0
 38 47  1  0  0  0
 39 64  1  0  0  0
 39 67  2  0  0  0
 40 52  1  0  0  0
 40 53  2  0  0  0
 40 58  1  0  0  0
 41106  1  0  0  0
 41107  1  0  0  0
 41108  1  0  0  0
 41 48  1  0  0  0
 42 43  1  0  0  0
 42 66  1  0  0  0
 42109  1  0  0  0
 42110  1  0  0  0
 43 44  1  0  0  0
 44111  1  0  0  0
 45 46  2  0  0  0
 45112  1  0  0  0
 46113  1  0  0  0
 47114  1  0  0  0
 47115  1  0  0  0
 48 56  1  0  0  0
 48 65  1  0  0  0
 48116  1  0  0  0
 49 50  1  0  0  0
 49 53  1  0  0  0
 49 64  1  0  0  0
 49117  1  0  0  0
 50 51  1  0  0  0
 50118  1  0  0  0
 50119  1  0  0  0
 51 52  1  0  0  0
 51120  1  0  0  0
 51121  1  0  0  0
 52122  1  0  0  0
 52123  1  0  0  0
 53 54  1  0  0  0
 54 55  2  0  0  0
 54124  1  0  0  0
 55 57  1  0  0  0
 55125  1  0  0  0
 56 69  2  0  0  0
 57 58  2  0  0  0
 57126  1  0  0  0
 58127  1  0  0  0
 59 60  1  0  0  0
 59 61  1  0  0  0
 59 62  1  0  0  0
 60128  1  0  0  0
 60129  1  0  0  0
 60130  1  0  0  0
 61131  1  0  0  0
 61132  1  0  0  0
 61133  1  0  0  0
 62134  1  0  0  0
 62135  1  0  0  0
 62136  1  0  0  0
 63 65  1  0  0  0
 63137  1  0  0  0
 63138  1  0  0  0
 63139  1  0  0  0
 64140  1  0  0  0
 65141  1  0  0  0
 68 77  1  0  0  0
 71 72  2  0  0  0
 71 73  1  0  0  0
 71142  1  0  0  0
 72 76  1  0  0  0
 72 80  1  0  0  0
 73 77  1  0  0  0
 73 81  2  0  0  0
 74 75  1  0  0  0
 74 80  2  0  0  0
 74 81  1  0  0  0
 75143  1  0  0  0
 75144  1  0  0  0
 75145  1  0  0  0
 76 78  1  0  0  0
 76146  1  0  0  0
 76147  1  0  0  0
 77148  1  0  0  0
 77149  1  0  0  0
 78 79  1  0  0  0
 78150  1  0  0  0
 78151  1  0  0  0
 79 82  1  0  0  0
 79152  1  0  0  0
 79153  1  0  0  0
 82154  1  0  0  0
M  ISO  4   1 100  68 101  77 101  82 100
M  END
> <chiral flag>
0

> <version>
0

> <s_m_source_file>
/data/baiqing/PycharmProjects/Reinvent-master-3.2/result/LINK_invent/BTK/process_docking_weight1_custom_sum_contain_oxygen_bond_distance_aromatic_linkinvent_7_9_3/rearranged_h_0036.sdf

> <i_m_source_file_index>
31

> <r_mmod_Potential_Energy-OPLS-2005>
-236.02848815918

> <r_mmod_Stretch_Energy-OPLS-2005>
117.47119140625

> <r_mmod_Bend_Energy-OPLS-2005>
195.022109985352

> <r_mmod_Torsional_Energy-OPLS-2005>
229.389007568359

> <r_mmod_Improper_Torsional_Energy-OPLS-2005>
5.73525142669678

> <r_mmod_Van_der_Waal_Energy-OPLS-2005>
145.755386352539

> <r_mmod_Electrostatic_Energy-OPLS-2005>
-768.122985839844

> <r_mmod_Solvation_Energy-OPLS-2005>
-249.380844116211

> <b_mmod_Minimization_Converged-OPLS-2005>
0

> <r_mmod_RMS_Derivative-OPLS-2005>
5.36236190795898

$$$$
32
                    3D
 Structure written by MMmdl.
165173  0  0  1  0            999 V2000
  -30.7325  -14.4729   20.5842 C   0  0  0  0  0  0
  -30.4350  -12.3205   19.4326 C   0  0  0  0  0  0
  -29.5084  -12.5089   18.2148 C   0  0  0  0  0  0
  -28.0223  -12.3863   18.6155 C   0  0  0  0  0  0
  -27.6649  -13.2249   19.8742 C   0  0  2  0  0  0
  -28.7042  -13.0216   21.0023 C   0  0  0  0  0  0
  -25.2596  -13.8231   20.5683 C   0  0  0  0  0  0
  -24.1828  -13.0466   20.9149 C   0  0  0  0  0  0
  -24.6424  -11.6946   20.8697 C   0  0  0  0  0  0
  -23.9100  -10.4290   21.0364 C   0  0  0  0  0  0
  -24.3649   -9.4214   21.9149 C   0  0  0  0  0  0
  -23.6310   -8.2260   22.0739 C   0  0  0  0  0  0
  -22.4278   -8.0304   21.3574 C   0  0  0  0  0  0
  -21.9938   -9.0260   20.4655 C   0  0  0  0  0  0
  -22.7280  -10.2127   20.3037 C   0  0  0  0  0  0
  -21.6836   -6.0743   22.5272 C   0  0  0  0  0  0
  -21.3999   -6.5619   23.8206 C   0  0  0  0  0  0
  -21.3672   -5.6792   24.9175 C   0  0  0  0  0  0
  -21.6024   -4.3036   24.7215 C   0  0  0  0  0  0
  -21.8838   -3.8138   23.4337 C   0  0  0  0  0  0
  -21.9196   -4.6975   22.3399 C   0  0  0  0  0  0
  -22.7846  -13.5216   21.1824 C   0  0  0  0  0  0
  -22.1672   -4.2153   21.0984 F   0  0  0  0  0  0
  -21.5645   -3.4521   25.7733 F   0  0  0  0  0  0
  -30.0401  -13.3094   20.4519 N   0  0  0  0  0  0
  -26.3046  -12.9412   20.3362 N   0  0  0  0  0  0
  -25.9362  -11.6551   20.5772 N   0  0  0  0  0  0
  -22.0477  -12.8197   22.0389 N   0  0  0  0  0  0
  -25.4295  -15.1946   20.4135 N   0  0  0  0  0  0
  -31.8484  -14.6374   20.0897 O   0  0  0  0  0  0
  -21.6661   -6.8906   21.4242 O   0  0  0  0  0  0
  -22.3501  -14.5514   20.6683 O   0  0  0  0  0  0
  -24.6094  -31.8664   23.2069 C   0  0  0  0  0  0
  -25.8972  -32.4829   23.8387 C   0  0  1  0  0  0
  -27.2840  -27.4810   20.1050 C   0  0  0  0  0  0
  -25.5852  -33.8630   24.2331 N   0  0  0  0  0  0
  -23.4066  -30.4802   21.5387 C   0  0  2  0  0  0
  -24.8763  -28.9486   20.1133 C   0  0  0  0  0  0
  -22.7420  -29.4620   22.4925 C   0  0  0  0  0  0
  -18.0266  -28.1371   22.8477 C   0  0  0  0  0  0
  -24.1507  -36.7333   23.2631 C   0  0  0  0  0  0
  -25.9303  -30.8394   21.3686 C   0  0  0  0  0  0
  -26.0197  -29.4740   20.7260 C   0  0  0  0  0  0
  -27.2245  -28.7419   20.7307 C   0  0  0  0  0  0
  -26.1320  -26.9588   19.4841 C   0  0  0  0  0  0
  -24.9246  -27.6897   19.4884 C   0  0  0  0  0  0
  -23.6299  -29.8002   20.1565 C   0  0  0  0  0  0
  -25.4124  -36.3116   24.0325 C   0  0  1  0  0  0
  -20.5866  -28.3667   23.1307 C   0  0  2  0  0  0
  -20.6757  -26.9389   22.5417 C   0  0  0  0  0  0
  -19.5746  -26.6375   21.5196 C   0  0  0  0  0  0
  -18.1921  -26.7913   22.1604 C   0  0  0  0  0  0
  -19.1517  -28.8826   23.2899 C   0  0  0  0  0  0
  -18.9452  -30.1420   23.8932 C   0  0  0  0  0  0
  -17.6459  -30.6580   24.0557 C   0  0  0  0  0  0
  -25.9025  -34.9467   23.5121 C   0  0  0  0  0  0
  -16.5351  -29.9102   23.6302 C   0  0  0  0  0  0
  -16.7257  -28.6508   23.0334 C   0  0  0  0  0  0
  -26.4425  -31.6617   25.0707 C   0  0  0  0  0  0
  -25.3704  -31.3728   26.1470 C   0  0  0  0  0  0
  -27.0271  -30.3067   24.6069 C   0  0  0  0  0  0
  -27.6029  -32.4309   25.7454 C   0  0  0  0  0  0
  -27.5603  -37.1823   24.8450 C   0  0  0  0  0  0
  -21.4142  -29.3035   22.3703 N   0  0  0  0  0  0
  -26.4328  -37.3790   23.9372 N   0  0  0  0  0  0
  -24.6634  -31.0824   22.0940 N   0  0  0  0  0  0
  -23.4204  -28.8115   23.2912 O   0  0  0  0  0  0
  -28.4495  -26.7564   20.1378 O   0  0  0  0  0  0
  -26.5576  -34.8926   22.4677 O   0  0  0  0  0  0
  -23.5283  -32.1360   23.7466 O   0  0  0  0  0  0
  -30.6412  -22.5847   21.1356 C   0  0  0  0  0  0
  -29.0913  -23.6228   19.0459 C   0  0  0  0  0  0
  -30.9682  -23.8394   20.5790 C   0  0  0  0  0  0
  -28.8276  -22.3261   19.5345 C   0  0  0  0  0  0
  -29.5462  -21.8413   20.6541 C   0  0  0  0  0  0
  -30.1457  -24.4033   19.5652 C   0  0  0  0  0  0
  -32.2123  -24.5500   21.0771 C   0  0  0  0  0  0
  -27.8083  -21.4650   18.8043 C   0  0  0  0  0  0
  -29.1690  -20.5437   21.3640 C   0  0  0  0  0  0
  -30.4037  -25.7945   18.9689 C   0  0  0  0  0  0
  -30.1866  -19.4107   21.1647 C   0  0  0  0  0  0
  -29.5985  -17.9977   21.3999 C   0  0  0  0  0  0
  -30.6290  -16.8815   21.1298 C   0  0  0  0  0  0
  -29.1837  -26.7480   18.9207 C   0  0  0  0  0  0
  -30.0873  -15.5102   21.1536 N   0  0  0  0  0  0
  -31.4765  -12.4350   19.1193 H   0  0  0  0  0  0
  -30.3608  -11.3087   19.8388 H   0  0  0  0  0  0
  -29.7584  -11.7804   17.4438 H   0  0  0  0  0  0
  -29.6900  -13.4903   17.7699 H   0  0  0  0  0  0
  -27.7976  -11.3331   18.7965 H   0  0  0  0  0  0
  -27.3911  -12.6854   17.7765 H   0  0  0  0  0  0
  -27.7125  -14.2738   19.5793 H   0  0  0  0  0  0
  -28.6762  -11.9941   21.3627 H   0  0  0  0  0  0
  -28.4641  -13.6377   21.8721 H   0  0  0  0  0  0
  -25.2800   -9.5655   22.4728 H   0  0  0  0  0  0
  -24.0020   -7.4631   22.7430 H   0  0  0  0  0  0
  -21.0894   -8.8753   19.8962 H   0  0  0  0  0  0
  -22.3723  -10.9658   19.6144 H   0  0  0  0  0  0
  -21.1979   -7.6121   23.9699 H   0  0  0  0  0  0
  -21.1483   -6.0517   25.9085 H   0  0  0  0  0  0
  -22.0622   -2.7605   23.2816 H   0  0  0  0  0  0
  -22.4155  -11.9920   22.4847 H   0  0  0  0  0  0
  -21.1100  -13.1176   22.2595 H   0  0  0  0  0  0
  -24.6583  -15.8477   20.5094 H   0  0  0  0  0  0
  -26.2874  -15.6322   20.0974 H   0  0  0  0  0  0
  -26.7035  -32.5613   23.1166 H   0  0  0  0  0  0
  -25.0046  -33.9776   25.0505 H   0  0  0  0  0  0
  -22.6954  -31.2935   21.3792 H   0  0  0  0  0  0
  -23.3763  -35.9678   23.3305 H   0  0  0  0  0  0
  -24.3617  -36.8944   22.2049 H   0  0  0  0  0  0
  -23.7286  -37.6548   23.6649 H   0  0  0  0  0  0
  -26.0516  -31.6047   20.6020 H   0  0  0  0  0  0
  -26.8148  -30.8976   21.9914 H   0  0  0  0  0  0
  -28.1095  -29.1387   21.2114 H   0  0  0  0  0  0
  -26.1750  -25.9940   19.0001 H   0  0  0  0  0  0
  -24.0512  -27.2912   18.9913 H   0  0  0  0  0  0
  -23.7389  -30.5616   19.3827 H   0  0  0  0  0  0
  -22.7688  -29.1975   19.8633 H   0  0  0  0  0  0
  -25.1322  -36.1980   25.0827 H   0  0  0  0  0  0
  -20.9957  -28.3216   24.1430 H   0  0  0  0  0  0
  -20.5631  -26.2253   23.3595 H   0  0  0  0  0  0
  -21.6633  -26.7400   22.1226 H   0  0  0  0  0  0
  -19.6915  -25.6285   21.1224 H   0  0  0  0  0  0
  -19.6712  -27.3184   20.6725 H   0  0  0  0  0  0
  -17.4190  -26.6627   21.4020 H   0  0  0  0  0  0
  -18.0348  -26.0063   22.9008 H   0  0  0  0  0  0
  -19.7932  -30.7191   24.2365 H   0  0  0  0  0  0
  -17.5029  -31.6269   24.5137 H   0  0  0  0  0  0
  -15.5358  -30.3022   23.7613 H   0  0  0  0  0  0
  -15.8649  -28.0845   22.7056 H   0  0  0  0  0  0
  -24.5842  -30.7115   25.7803 H   0  0  0  0  0  0
  -24.8932  -32.2903   26.4930 H   0  0  0  0  0  0
  -25.8057  -30.8870   27.0212 H   0  0  0  0  0  0
  -26.2826  -29.6825   24.1109 H   0  0  0  0  0  0
  -27.4055  -29.7291   25.4514 H   0  0  0  0  0  0
  -27.8648  -30.4407   23.9217 H   0  0  0  0  0  0
  -27.2675  -33.3584   26.2092 H   0  0  0  0  0  0
  -28.3811  -32.6896   25.0265 H   0  0  0  0  0  0
  -28.0717  -31.8384   26.5317 H   0  0  0  0  0  0
  -28.2608  -38.0128   24.7505 H   0  0  0  0  0  0
  -28.1116  -36.2664   24.6287 H   0  0  0  0  0  0
  -27.2304  -37.1473   25.8845 H   0  0  0  0  0  0
  -20.9282  -29.8852   21.7021 H   0  0  0  0  0  0
  -26.0222  -38.2876   24.1363 H   0  0  0  0  0  0
  -31.2474  -22.1662   21.9276 H   0  0  0  0  0  0
  -28.4779  -24.0217   18.2491 H   0  0  0  0  0  0
  -31.9691  -25.5589   21.4038 H   0  0  0  0  0  0
  -32.9576  -24.5936   20.2819 H   0  0  0  0  0  0
  -32.6744  -24.0338   21.9196 H   0  0  0  0  0  0
  -28.1255  -20.4199   18.7839 H   0  0  0  0  0  0
  -27.6991  -21.7669   17.7598 H   0  0  0  0  0  0
  -26.8307  -21.5297   19.2797 H   0  0  0  0  0  0
  -28.1763  -20.2167   21.0626 H   0  0  0  0  0  0
  -29.0893  -20.7632   22.4287 H   0  0  0  0  0  0
  -30.7842  -25.6624   17.9531 H   0  0  0  0  0  0
  -31.2022  -26.3101   19.4969 H   0  0  0  0  0  0
  -30.5741  -19.4667   20.1463 H   0  0  0  0  0  0
  -31.0312  -19.5824   21.8325 H   0  0  0  0  0  0
  -28.7335  -17.8602   20.7500 H   0  0  0  0  0  0
  -29.2331  -17.9179   22.4237 H   0  0  0  0  0  0
  -31.0693  -17.0672   20.1488 H   0  0  0  0  0  0
  -31.4446  -16.9497   21.8481 H   0  0  0  0  0  0
  -28.5146  -26.4777   18.1039 H   0  0  0  0  0  0
  -29.5482  -27.7602   18.7268 H   0  0  0  0  0  0
  -29.1681  -15.3551   21.5348 H   0  0  0  0  0  0
  1 25  1  0  0  0
  1 30  2  0  0  0
  1 85  1  0  0  0
  2  3  1  0  0  0
  2 25  1  0  0  0
  2 86  1  0  0  0
  2 87  1  0  0  0
  3  4  1  0  0  0
  3 88  1  0  0  0
  3 89  1  0  0  0
  4  5  1  0  0  0
  4 90  1  0  0  0
  4 91  1  0  0  0
  5  6  1  0  0  0
  5 26  1  0  0  0
  5 92  1  0  0  0
  6 25  1  0  0  0
  6 93  1  0  0  0
  6 94  1  0  0  0
  7  8  2  0  0  0
  7 26  1  0  0  0
  7 29  1  0  0  0
  8  9  1  0  0  0
  8 22  1  0  0  0
  9 10  1  0  0  0
  9 27  2  0  0  0
 10 11  2  0  0  0
 10 15  1  0  0  0
 11 12  1  0  0  0
 11 95  1  0  0  0
 12 13  2  0  0  0
 12 96  1  0  0  0
 13 14  1  0  0  0
 13 31  1  0  0  0
 14 15  2  0  0  0
 14 97  1  0  0  0
 15 98  1  0  0  0
 16 17  2  0  0  0
 16 21  1  0  0  0
 16 31  1  0  0  0
 17 18  1  0  0  0
 17 99  1  0  0  0
 18 19  2  0  0  0
 18100  1  0  0  0
 19 20  1  0  0  0
 19 24  1  0  0  0
 20 21  2  0  0  0
 20101  1  0  0  0
 21 23  1  0  0  0
 22 28  1  0  0  0
 22 32  2  0  0  0
 26 27  1  0  0  0
 28102  1  0  0  0
 28103  1  0  0  0
 29104  1  0  0  0
 29105  1  0  0  0
 33 34  1  0  0  0
 33 66  1  0  0  0
 33 70  2  0  0  0
 34 36  1  0  0  0
 34 59  1  0  0  0
 34106  1  0  0  0
 35 44  2  0  0  0
 35 45  1  0  0  0
 35 68  1  0  0  0
 36 56  1  0  0  0
 36107  1  0  0  0
 37 39  1  0  0  0
 37 47  1  0  0  0
 37 66  1  0  0  0
 37108  1  0  0  0
 38 43  2  0  0  0
 38 46  1  0  0  0
 38 47  1  0  0  0
 39 64  1  0  0  0
 39 67  2  0  0  0
 40 52  1  0  0  0
 40 53  2  0  0  0
 40 58  1  0  0  0
 41109  1  0  0  0
 41110  1  0  0  0
 41111  1  0  0  0
 41 48  1  0  0  0
 42 43  1  0  0  0
 42 66  1  0  0  0
 42112  1  0  0  0
 42113  1  0  0  0
 43 44  1  0  0  0
 44114  1  0  0  0
 45 46  2  0  0  0
 45115  1  0  0  0
 46116  1  0  0  0
 47117  1  0  0  0
 47118  1  0  0  0
 48 56  1  0  0  0
 48 65  1  0  0  0
 48119  1  0  0  0
 49 50  1  0  0  0
 49 53  1  0  0  0
 49 64  1  0  0  0
 49120  1  0  0  0
 50 51  1  0  0  0
 50121  1  0  0  0
 50122  1  0  0  0
 51 52  1  0  0  0
 51123  1  0  0  0
 51124  1  0  0  0
 52125  1  0  0  0
 52126  1  0  0  0
 53 54  1  0  0  0
 54 55  2  0  0  0
 54127  1  0  0  0
 55 57  1  0  0  0
 55128  1  0  0  0
 56 69  2  0  0  0
 57 58  2  0  0  0
 57129  1  0  0  0
 58130  1  0  0  0
 59 60  1  0  0  0
 59 61  1  0  0  0
 59 62  1  0  0  0
 60131  1  0  0  0
 60132  1  0  0  0
 60133  1  0  0  0
 61134  1  0  0  0
 61135  1  0  0  0
 61136  1  0  0  0
 62137  1  0  0  0
 62138  1  0  0  0
 62139  1  0  0  0
 63 65  1  0  0  0
 63140  1  0  0  0
 63141  1  0  0  0
 63142  1  0  0  0
 64143  1  0  0  0
 65144  1  0  0  0
 68 84  1  0  0  0
 71 73  2  0  0  0
 71 75  1  0  0  0
 71145  1  0  0  0
 72 74  1  0  0  0
 72 76  2  0  0  0
 72146  1  0  0  0
 73 76  1  0  0  0
 73 77  1  0  0  0
 74 75  2  0  0  0
 74 78  1  0  0  0
 75 79  1  0  0  0
 76 80  1  0  0  0
 77147  1  0  0  0
 77148  1  0  0  0
 77149  1  0  0  0
 78150  1  0  0  0
 78151  1  0  0  0
 78152  1  0  0  0
 79 81  1  0  0  0
 79153  1  0  0  0
 79154  1  0  0  0
 80 84  1  0  0  0
 80155  1  0  0  0
 80156  1  0  0  0
 81 82  1  0  0  0
 81157  1  0  0  0
 81158  1  0  0  0
 82 83  1  0  0  0
 82159  1  0  0  0
 82160  1  0  0  0
 83 85  1  0  0  0
 83161  1  0  0  0
 83162  1  0  0  0
 84163  1  0  0  0
 84164  1  0  0  0
 85165  1  0  0  0
M  ISO  4   1 100  68 101  84 101  85 100
M  END
> <chiral flag>
0

> <version>
0

> <s_m_source_file>
/data/baiqing/PycharmProjects/Reinvent-master-3.2/result/LINK_invent/BTK/process_docking_weight1_custom_sum_contain_oxygen_bond_distance_aromatic_linkinvent_7_9_3/rearranged_h_0036.sdf

> <i_m_source_file_index>
32

> <r_mmod_Potential_Energy-OPLS-2005>
-67.7153167724609

> <r_mmod_Stretch_Energy-OPLS-2005>
35.9973449707031

> <r_mmod_Bend_Energy-OPLS-2005>
91.8127899169922

> <r_mmod_Torsional_Energy-OPLS-2005>
228.820861816406

> <r_mmod_Improper_Torsional_Energy-OPLS-2005>
3.51895833015442

> <r_mmod_Van_der_Waal_Energy-OPLS-2005>
151.446304321289

> <r_mmod_Electrostatic_Energy-OPLS-2005>
-383.292358398438

> <r_mmod_Solvation_Energy-OPLS-2005>
-209.391723632812

> <b_mmod_Minimization_Converged-OPLS-2005>
0

> <r_mmod_RMS_Derivative-OPLS-2005>
7.11953735351562

$$$$
33
                    3D
 Structure written by MMmdl.
150158  0  0  1  0            999 V2000
  -30.5310  -15.0110   20.4029 C   0  0  0  0  0  0
  -30.4365  -12.6299   19.5068 C   0  0  0  0  0  0
  -29.5237  -12.5349   18.2625 C   0  0  0  0  0  0
  -28.0581  -12.3141   18.6800 C   0  0  0  0  0  0
  -27.6242  -13.2563   19.8336 C   0  0  2  0  0  0
  -28.6651  -13.3202   20.9709 C   0  0  0  0  0  0
  -25.2434  -13.8230   20.5718 C   0  0  0  0  0  0
  -24.1764  -13.0440   20.9239 C   0  0  0  0  0  0
  -24.6397  -11.6930   20.8762 C   0  0  0  0  0  0
  -23.9087  -10.4293   21.0413 C   0  0  0  0  0  0
  -24.3635   -9.4205   21.9188 C   0  0  0  0  0  0
  -23.6305   -8.2243   22.0756 C   0  0  0  0  0  0
  -22.4286   -8.0285   21.3545 C   0  0  0  0  0  0
  -21.9926   -9.0262   20.4649 C   0  0  0  0  0  0
  -22.7259  -10.2137   20.3060 C   0  0  0  0  0  0
  -21.6855   -6.0740   22.5279 C   0  0  0  0  0  0
  -21.4016   -6.5642   23.8214 C   0  0  0  0  0  0
  -21.3659   -5.6792   24.9174 C   0  0  0  0  0  0
  -21.6044   -4.3055   24.7223 C   0  0  0  0  0  0
  -21.8817   -3.8149   23.4342 C   0  0  0  0  0  0
  -21.9190   -4.6968   22.3399 C   0  0  0  0  0  0
  -22.7781  -13.5203   21.1883 C   0  0  0  0  0  0
  -22.1658   -4.2154   21.0976 F   0  0  0  0  0  0
  -21.5628   -3.4537   25.7733 F   0  0  0  0  0  0
  -29.9310  -13.7467   20.3628 N   0  0  0  0  0  0
  -26.2861  -12.9477   20.3234 N   0  0  0  0  0  0
  -25.9330  -11.6599   20.5741 N   0  0  0  0  0  0
  -22.0431  -12.8197   22.0442 N   0  0  0  0  0  0
  -25.4079  -15.1962   20.4135 N   0  0  0  0  0  0
  -31.7411  -15.0425   20.1529 O   0  0  0  0  0  0
  -21.6643   -6.8887   21.4243 O   0  0  0  0  0  0
  -22.3463  -14.5502   20.6717 O   0  0  0  0  0  0
  -24.6477  -31.8391   23.1835 C   0  0  0  0  0  0
  -25.9226  -32.4670   23.8245 C   0  0  1  0  0  0
  -27.2164  -27.0871   20.1606 C   0  0  0  0  0  0
  -25.5954  -33.8477   24.2158 N   0  0  0  0  0  0
  -23.4539  -30.4561   21.5303 C   0  0  2  0  0  0
  -24.9039  -28.8720   20.1107 C   0  0  0  0  0  0
  -22.7587  -29.4521   22.4843 C   0  0  0  0  0  0
  -18.0307  -28.1398   22.8474 C   0  0  0  0  0  0
  -24.1492  -36.7245   23.2645 C   0  0  0  0  0  0
  -26.0129  -30.6974   21.3890 C   0  0  0  0  0  0
  -26.0833  -29.3037   20.7308 C   0  0  0  0  0  0
  -27.2397  -28.4288   20.7343 C   0  0  0  0  0  0
  -26.0099  -26.7661   19.5018 C   0  0  0  0  0  0
  -24.8831  -27.6190   19.4788 C   0  0  0  0  0  0
  -23.6828  -29.7805   20.1518 C   0  0  0  0  0  0
  -25.4127  -36.3017   24.0311 C   0  0  1  0  0  0
  -20.5923  -28.3730   23.1225 C   0  0  2  0  0  0
  -20.6790  -26.9427   22.5405 C   0  0  0  0  0  0
  -19.5765  -26.6378   21.5213 C   0  0  0  0  0  0
  -18.1946  -26.7934   22.1623 C   0  0  0  0  0  0
  -19.1565  -28.8882   23.2840 C   0  0  0  0  0  0
  -18.9480  -30.1476   23.8868 C   0  0  0  0  0  0
  -17.6477  -30.6593   24.0558 C   0  0  0  0  0  0
  -25.9079  -34.9394   23.5048 C   0  0  0  0  0  0
  -16.5367  -29.9084   23.6339 C   0  0  0  0  0  0
  -16.7291  -28.6503   23.0358 C   0  0  0  0  0  0
  -26.4528  -31.6561   25.0712 C   0  0  0  0  0  0
  -25.3694  -31.3768   26.1395 C   0  0  0  0  0  0
  -27.0406  -30.2952   24.6334 C   0  0  0  0  0  0
  -27.6046  -32.4341   25.7505 C   0  0  0  0  0  0
  -27.5574  -37.1780   24.8463 C   0  0  0  0  0  0
  -21.4275  -29.3045   22.3589 N   0  0  0  0  0  0
  -26.4285  -37.3736   23.9404 N   0  0  0  0  0  0
  -24.7250  -31.0201   22.0891 N   0  0  0  0  0  0
  -23.4208  -28.8077   23.3020 O   0  0  0  0  0  0
  -28.2611  -26.0796   20.2330 O   0  0  0  0  0  0
  -26.5675  -34.8899   22.4633 O   0  0  0  0  0  0
  -23.5584  -32.1288   23.7027 O   0  0  0  0  0  0
  -28.0573  -19.6272   20.5020 C   0  0  0  0  0  0
  -29.4407  -19.2429   20.3801 C   0  0  0  0  0  0
  -29.9461  -20.5765   20.2846 C   0  0  0  0  0  0
  -31.3852  -20.9517   20.1483 C   0  0  0  0  0  0
  -30.2517  -17.7570   20.3522 C   0  0  0  0  0  0
  -29.1179  -23.2585   20.4164 C   0  0  0  0  0  0
  -28.0080  -24.5214   20.1084 C   0  0  0  0  0  0
  -27.7942  -20.9696   20.4975 N   0  0  0  0  0  0
  -28.9639  -21.6521   20.3408 N   0  0  0  0  0  0
  -29.7839  -16.2359   20.5073 N   0  0  0  0  0  0
  -31.4694  -12.7889   19.1936 H   0  0  0  0  0  0
  -30.4386  -11.6897   20.0609 H   0  0  0  0  0  0
  -29.8546  -11.7264   17.6091 H   0  0  0  0  0  0
  -29.6040  -13.4535   17.6791 H   0  0  0  0  0  0
  -27.9608  -11.2756   18.9981 H   0  0  0  0  0  0
  -27.3961  -12.4328   17.8214 H   0  0  0  0  0  0
  -27.5768  -14.2511   19.3900 H   0  0  0  0  0  0
  -28.7680  -12.3551   21.4693 H   0  0  0  0  0  0
  -28.3552  -14.0343   21.7356 H   0  0  0  0  0  0
  -25.2781   -9.5676   22.4764 H   0  0  0  0  0  0
  -24.0008   -7.4634   22.7480 H   0  0  0  0  0  0
  -21.0852   -8.8788   19.8960 H   0  0  0  0  0  0
  -22.3721  -10.9679   19.6170 H   0  0  0  0  0  0
  -21.2015   -7.6151   23.9719 H   0  0  0  0  0  0
  -21.1483   -6.0522   25.9077 H   0  0  0  0  0  0
  -22.0597   -2.7612   23.2838 H   0  0  0  0  0  0
  -22.4057  -11.9872   22.4847 H   0  0  0  0  0  0
  -21.1047  -13.1219   22.2640 H   0  0  0  0  0  0
  -24.6349  -15.8439   20.5228 H   0  0  0  0  0  0
  -26.2432  -15.6360   20.0505 H   0  0  0  0  0  0
  -26.7293  -32.5258   23.0970 H   0  0  0  0  0  0
  -25.0062  -33.9581   25.0281 H   0  0  0  0  0  0
  -22.7594  -31.2836   21.3717 H   0  0  0  0  0  0
  -23.3760  -35.9571   23.3290 H   0  0  0  0  0  0
  -24.3576  -36.8900   22.2064 H   0  0  0  0  0  0
  -23.7242  -37.6431   23.6700 H   0  0  0  0  0  0
  -26.1741  -31.4491   20.6152 H   0  0  0  0  0  0
  -26.8807  -30.7491   22.0348 H   0  0  0  0  0  0
  -28.1376  -28.7547   21.2401 H   0  0  0  0  0  0
  -25.9070  -25.8060   19.0189 H   0  0  0  0  0  0
  -23.9829  -27.2836   18.9822 H   0  0  0  0  0  0
  -23.8229  -30.5526   19.3944 H   0  0  0  0  0  0
  -22.7962  -29.2250   19.8409 H   0  0  0  0  0  0
  -25.1320  -36.1839   25.0803 H   0  0  0  0  0  0
  -21.0014  -28.3325   24.1348 H   0  0  0  0  0  0
  -20.5682  -26.2343   23.3629 H   0  0  0  0  0  0
  -21.6655  -26.7425   22.1205 H   0  0  0  0  0  0
  -19.6926  -25.6280   21.1263 H   0  0  0  0  0  0
  -19.6703  -27.3172   20.6729 H   0  0  0  0  0  0
  -17.4215  -26.6677   21.4027 H   0  0  0  0  0  0
  -18.0346  -26.0084   22.9028 H   0  0  0  0  0  0
  -19.7957  -30.7301   24.2224 H   0  0  0  0  0  0
  -17.5029  -31.6270   24.5166 H   0  0  0  0  0  0
  -15.5366  -30.2977   23.7678 H   0  0  0  0  0  0
  -15.8691  -28.0810   22.7092 H   0  0  0  0  0  0
  -24.5875  -30.7120   25.7706 H   0  0  0  0  0  0
  -24.8880  -32.2958   26.4750 H   0  0  0  0  0  0
  -25.7955  -30.8979   27.0219 H   0  0  0  0  0  0
  -26.3041  -29.6661   24.1324 H   0  0  0  0  0  0
  -27.3981  -29.7271   25.4933 H   0  0  0  0  0  0
  -27.8961  -30.4177   23.9689 H   0  0  0  0  0  0
  -27.2627  -33.3662   26.2016 H   0  0  0  0  0  0
  -28.3891  -32.6871   25.0361 H   0  0  0  0  0  0
  -28.0677  -31.8513   26.5477 H   0  0  0  0  0  0
  -28.2580  -38.0087   24.7511 H   0  0  0  0  0  0
  -28.1080  -36.2614   24.6290 H   0  0  0  0  0  0
  -27.2288  -37.1426   25.8865 H   0  0  0  0  0  0
  -20.9496  -29.8747   21.6750 H   0  0  0  0  0  0
  -26.0147  -38.2800   24.1410 H   0  0  0  0  0  0
  -27.2135  -18.9597   20.6091 H   0  0  0  0  0  0
  -32.0344  -20.0798   20.2235 H   0  0  0  0  0  0
  -31.6810  -21.6528   20.9287 H   0  0  0  0  0  0
  -31.5711  -21.4226   19.1831 H   0  0  0  0  0  0
  -31.0481  -17.8314   21.0938 H   0  0  0  0  0  0
  -30.8047  -17.7354   19.4121 H   0  0  0  0  0  0
  -29.4852  -23.4468   21.4252 H   0  0  0  0  0  0
  -29.9760  -23.4827   19.7831 H   0  0  0  0  0  0
  -27.1380  -24.3170   20.7332 H   0  0  0  0  0  0
  -27.6626  -24.3621   19.0871 H   0  0  0  0  0  0
  -28.7969  -16.1054   20.6703 H   0  0  0  0  0  0
  1 25  1  0  0  0
  1 30  2  0  0  0
  1 80  1  0  0  0
  2  3  1  0  0  0
  2 25  1  0  0  0
  2 81  1  0  0  0
  2 82  1  0  0  0
  3  4  1  0  0  0
  3 83  1  0  0  0
  3 84  1  0  0  0
  4  5  1  0  0  0
  4 85  1  0  0  0
  4 86  1  0  0  0
  5  6  1  0  0  0
  5 26  1  0  0  0
  5 87  1  0  0  0
  6 25  1  0  0  0
  6 88  1  0  0  0
  6 89  1  0  0  0
  7  8  2  0  0  0
  7 26  1  0  0  0
  7 29  1  0  0  0
  8  9  1  0  0  0
  8 22  1  0  0  0
  9 10  1  0  0  0
  9 27  2  0  0  0
 10 11  2  0  0  0
 10 15  1  0  0  0
 11 12  1  0  0  0
 11 90  1  0  0  0
 12 13  2  0  0  0
 12 91  1  0  0  0
 13 14  1  0  0  0
 13 31  1  0  0  0
 14 15  2  0  0  0
 14 92  1  0  0  0
 15 93  1  0  0  0
 16 17  2  0  0  0
 16 21  1  0  0  0
 16 31  1  0  0  0
 17 18  1  0  0  0
 17 94  1  0  0  0
 18 19  2  0  0  0
 18 95  1  0  0  0
 19 20  1  0  0  0
 19 24  1  0  0  0
 20 21  2  0  0  0
 20 96  1  0  0  0
 21 23  1  0  0  0
 22 28  1  0  0  0
 22 32  2  0  0  0
 26 27  1  0  0  0
 28 97  1  0  0  0
 28 98  1  0  0  0
 29 99  1  0  0  0
 29100  1  0  0  0
 33 34  1  0  0  0
 33 66  1  0  0  0
 33 70  2  0  0  0
 34 36  1  0  0  0
 34 59  1  0  0  0
 34101  1  0  0  0
 35 44  2  0  0  0
 35 45  1  0  0  0
 35 68  1  0  0  0
 36 56  1  0  0  0
 36102  1  0  0  0
 37 39  1  0  0  0
 37 47  1  0  0  0
 37 66  1  0  0  0
 37103  1  0  0  0
 38 43  2  0  0  0
 38 46  1  0  0  0
 38 47  1  0  0  0
 39 64  1  0  0  0
 39 67  2  0  0  0
 40 52  1  0  0  0
 40 53  2  0  0  0
 40 58  1  0  0  0
 41104  1  0  0  0
 41105  1  0  0  0
 41106  1  0  0  0
 41 48  1  0  0  0
 42 43  1  0  0  0
 42 66  1  0  0  0
 42107  1  0  0  0
 42108  1  0  0  0
 43 44  1  0  0  0
 44109  1  0  0  0
 45 46  2  0  0  0
 45110  1  0  0  0
 46111  1  0  0  0
 47112  1  0  0  0
 47113  1  0  0  0
 48 56  1  0  0  0
 48 65  1  0  0  0
 48114  1  0  0  0
 49 50  1  0  0  0
 49 53  1  0  0  0
 49 64  1  0  0  0
 49115  1  0  0  0
 50 51  1  0  0  0
 50116  1  0  0  0
 50117  1  0  0  0
 51 52  1  0  0  0
 51118  1  0  0  0
 51119  1  0  0  0
 52120  1  0  0  0
 52121  1  0  0  0
 53 54  1  0  0  0
 54 55  2  0  0  0
 54122  1  0  0  0
 55 57  1  0  0  0
 55123  1  0  0  0
 56 69  2  0  0  0
 57 58  2  0  0  0
 57124  1  0  0  0
 58125  1  0  0  0
 59 60  1  0  0  0
 59 61  1  0  0  0
 59 62  1  0  0  0
 60126  1  0  0  0
 60127  1  0  0  0
 60128  1  0  0  0
 61129  1  0  0  0
 61130  1  0  0  0
 61131  1  0  0  0
 62132  1  0  0  0
 62133  1  0  0  0
 62134  1  0  0  0
 63 65  1  0  0  0
 63135  1  0  0  0
 63136  1  0  0  0
 63137  1  0  0  0
 64138  1  0  0  0
 65139  1  0  0  0
 68 77  1  0  0  0
 71 72  1  0  0  0
 71 78  2  0  0  0
 71140  1  0  0  0
 72 73  2  0  0  0
 72 75  1  0  0  0
 73 74  1  0  0  0
 73 79  1  0  0  0
 74141  1  0  0  0
 74142  1  0  0  0
 74143  1  0  0  0
 75 80  1  0  0  0
 75144  1  0  0  0
 75145  1  0  0  0
 76 77  1  0  0  0
 76 79  1  0  0  0
 76146  1  0  0  0
 76147  1  0  0  0
 77148  1  0  0  0
 77149  1  0  0  0
 78 79  1  0  0  0
 80150  1  0  0  0
M  ISO  4   1 100  68 101  77 101  80 100
M  END
> <chiral flag>
0

> <version>
0

> <s_m_source_file>
/data/baiqing/PycharmProjects/Reinvent-master-3.2/result/LINK_invent/BTK/process_docking_weight1_custom_sum_contain_oxygen_bond_distance_aromatic_linkinvent_7_9_3/rearranged_h_0036.sdf

> <i_m_source_file_index>
33

> <r_mmod_Potential_Energy-OPLS-2005>
569.0673828125

> <r_mmod_Stretch_Energy-OPLS-2005>
309.129028320312

> <r_mmod_Bend_Energy-OPLS-2005>
300.739715576172

> <r_mmod_Torsional_Energy-OPLS-2005>
208.259185791016

> <r_mmod_Improper_Torsional_Energy-OPLS-2005>
4.97425127029419

> <r_mmod_Van_der_Waal_Energy-OPLS-2005>
107.55493927002

> <r_mmod_Electrostatic_Energy-OPLS-2005>
-370.723114013672

> <r_mmod_Solvation_Energy-OPLS-2005>
-229.18505859375

> <b_mmod_Minimization_Converged-OPLS-2005>
0

> <r_mmod_RMS_Derivative-OPLS-2005>
0.437927722930908

$$$$
34
                    3D
 Structure written by MMmdl.
157165  0  0  1  0            999 V2000
  -30.7110  -14.5870   20.5283 C   0  0  0  0  0  0
  -30.4183  -12.3740   19.4483 C   0  0  0  0  0  0
  -29.4973  -12.5024   18.2189 C   0  0  0  0  0  0
  -28.0220  -12.3513   18.6342 C   0  0  0  0  0  0
  -27.6504  -13.2286   19.8609 C   0  0  2  0  0  0
  -28.6984  -13.1090   20.9906 C   0  0  0  0  0  0
  -25.2511  -13.8178   20.5678 C   0  0  0  0  0  0
  -24.1801  -13.0422   20.9172 C   0  0  0  0  0  0
  -24.6407  -11.6910   20.8748 C   0  0  0  0  0  0
  -23.9085  -10.4288   21.0405 C   0  0  0  0  0  0
  -24.3630   -9.4204   21.9186 C   0  0  0  0  0  0
  -23.6302   -8.2242   22.0758 C   0  0  0  0  0  0
  -22.4283   -8.0280   21.3548 C   0  0  0  0  0  0
  -21.9921   -9.0251   20.4647 C   0  0  0  0  0  0
  -22.7255  -10.2127   20.3052 C   0  0  0  0  0  0
  -21.6851   -6.0740   22.5283 C   0  0  0  0  0  0
  -21.4014   -6.5642   23.8215 C   0  0  0  0  0  0
  -21.3658   -5.6796   24.9178 C   0  0  0  0  0  0
  -21.6044   -4.3058   24.7229 C   0  0  0  0  0  0
  -21.8818   -3.8150   23.4347 C   0  0  0  0  0  0
  -21.9193   -4.6970   22.3404 C   0  0  0  0  0  0
  -22.7820  -13.5205   21.1845 C   0  0  0  0  0  0
  -22.1659   -4.2154   21.0984 F   0  0  0  0  0  0
  -21.5626   -3.4540   25.7739 F   0  0  0  0  0  0
  -30.0150  -13.4150   20.4137 N   0  0  0  0  0  0
  -26.2982  -12.9406   20.3344 N   0  0  0  0  0  0
  -25.9347  -11.6542   20.5790 N   0  0  0  0  0  0
  -22.0481  -12.8189   22.0411 N   0  0  0  0  0  0
  -25.4144  -15.1890   20.4081 N   0  0  0  0  0  0
  -31.8755  -14.6738   20.1325 O   0  0  0  0  0  0
  -21.6636   -6.8883   21.4247 O   0  0  0  0  0  0
  -22.3493  -14.5511   20.6710 O   0  0  0  0  0  0
  -24.6247  -31.8623   23.2081 C   0  0  0  0  0  0
  -25.9110  -32.4789   23.8387 C   0  0  1  0  0  0
  -27.2151  -27.3385   20.1065 C   0  0  0  0  0  0
  -25.5942  -33.8591   24.2314 N   0  0  0  0  0  0
  -23.4159  -30.4921   21.5484 C   0  0  2  0  0  0
  -24.8598  -28.9593   20.1058 C   0  0  0  0  0  0
  -22.7475  -29.4637   22.4922 C   0  0  0  0  0  0
  -18.0292  -28.1388   22.8459 C   0  0  0  0  0  0
  -24.1491  -36.7299   23.2635 C   0  0  0  0  0  0
  -25.9580  -30.7983   21.3791 C   0  0  0  0  0  0
  -26.0288  -29.4300   20.7178 C   0  0  0  0  0  0
  -27.2075  -28.6286   20.7154 C   0  0  0  0  0  0
  -26.0246  -26.9305   19.4551 C   0  0  0  0  0  0
  -24.8587  -27.7127   19.4674 C   0  0  0  0  0  0
  -23.6296  -29.8393   20.1590 C   0  0  0  0  0  0
  -25.4107  -36.3088   24.0340 C   0  0  1  0  0  0
  -20.5893  -28.3678   23.1281 C   0  0  2  0  0  0
  -20.6782  -26.9401   22.5409 C   0  0  0  0  0  0
  -19.5765  -26.6380   21.5209 C   0  0  0  0  0  0
  -18.1935  -26.7924   22.1610 C   0  0  0  0  0  0
  -19.1546  -28.8846   23.2864 C   0  0  0  0  0  0
  -18.9471  -30.1443   23.8879 C   0  0  0  0  0  0
  -17.6475  -30.6577   24.0558 C   0  0  0  0  0  0
  -25.9057  -34.9456   23.5123 C   0  0  0  0  0  0
  -16.5364  -29.9080   23.6332 C   0  0  0  0  0  0
  -16.7281  -28.6511   23.0325 C   0  0  0  0  0  0
  -26.4496  -31.6584   25.0743 C   0  0  0  0  0  0
  -25.3729  -31.3729   26.1475 C   0  0  0  0  0  0
  -27.0333  -30.3011   24.6177 C   0  0  0  0  0  0
  -27.6061  -32.4309   25.7514 C   0  0  0  0  0  0
  -27.5572  -37.1807   24.8465 C   0  0  0  0  0  0
  -21.4192  -29.3036   22.3675 N   0  0  0  0  0  0
  -26.4280  -37.3784   23.9413 N   0  0  0  0  0  0
  -24.6850  -31.0668   22.1018 N   0  0  0  0  0  0
  -23.4219  -28.8155   23.2970 O   0  0  0  0  0  0
  -28.3268  -26.4833   20.1717 O   0  0  0  0  0  0
  -26.5609  -34.8915   22.4678 O   0  0  0  0  0  0
  -23.5420  -32.1416   23.7421 O   0  0  0  0  0  0
  -30.9739  -19.4850   20.5919 C   0  0  0  0  0  0
  -28.2601  -20.0496   20.6369 C   0  0  0  0  0  0
  -30.0894  -18.4107   20.8908 C   0  0  0  0  0  0
  -29.1431  -21.1147   20.3115 C   0  0  0  0  0  0
  -30.5285  -20.8156   20.2979 C   0  0  0  0  0  0
  -28.7094  -18.7318   20.9271 C   0  0  0  0  0  0
  -32.7808  -21.6059   19.9818 C   0  0  0  0  0  0
  -28.5455  -22.4831   19.8375 C   0  0  0  0  0  0
  -30.7026  -17.0179   21.2751 C   0  0  0  0  0  0
  -29.0430  -23.8954   20.3589 C   0  0  0  0  0  0
  -28.0803  -25.0579   19.8868 C   0  0  0  0  0  0
  -30.0532  -15.7025   20.9559 N   0  0  0  0  0  0
  -31.3805  -21.8482   19.9722 O   0  0  0  0  0  0
  -27.5367  -17.5397   21.3499 Cl  0  0  0  0  0  0
  -31.4631  -12.4609   19.1447 H   0  0  0  0  0  0
  -30.3231  -11.3852   19.8993 H   0  0  0  0  0  0
  -29.7555  -11.7496   17.4726 H   0  0  0  0  0  0
  -29.6485  -13.4719   17.7410 H   0  0  0  0  0  0
  -27.8531  -11.2996   18.8669 H   0  0  0  0  0  0
  -27.3684  -12.5836   17.7930 H   0  0  0  0  0  0
  -27.6616  -14.2624   19.5127 H   0  0  0  0  0  0
  -28.7016  -12.1027   21.4110 H   0  0  0  0  0  0
  -28.4555  -13.7811   21.8149 H   0  0  0  0  0  0
  -25.2776   -9.5675   22.4758 H   0  0  0  0  0  0
  -24.0006   -7.4633   22.7478 H   0  0  0  0  0  0
  -21.0848   -8.8777   19.8950 H   0  0  0  0  0  0
  -22.3725  -10.9666   19.6155 H   0  0  0  0  0  0
  -21.2007   -7.6149   23.9724 H   0  0  0  0  0  0
  -21.1479   -6.0523   25.9082 H   0  0  0  0  0  0
  -22.0600   -2.7611   23.2848 H   0  0  0  0  0  0
  -22.4094  -11.9834   22.4770 H   0  0  0  0  0  0
  -21.1105  -13.1217   22.2644 H   0  0  0  0  0  0
  -24.6561  -15.8435   20.5608 H   0  0  0  0  0  0
  -26.2875  -15.6487   20.1834 H   0  0  0  0  0  0
  -26.7159  -32.5448   23.1115 H   0  0  0  0  0  0
  -25.0110  -33.9741   25.0475 H   0  0  0  0  0  0
  -22.7081  -31.3128   21.4116 H   0  0  0  0  0  0
  -23.3751  -35.9632   23.3307 H   0  0  0  0  0  0
  -24.3589  -36.8905   22.2048 H   0  0  0  0  0  0
  -23.7252  -37.6506   23.6649 H   0  0  0  0  0  0
  -26.0944  -31.5646   20.6149 H   0  0  0  0  0  0
  -26.8391  -30.8417   22.0076 H   0  0  0  0  0  0
  -28.0987  -28.9808   21.2152 H   0  0  0  0  0  0
  -25.9522  -25.9893   18.9317 H   0  0  0  0  0  0
  -23.9661  -27.3523   18.9754 H   0  0  0  0  0  0
  -23.7522  -30.6239   19.4121 H   0  0  0  0  0  0
  -22.7489  -29.2749   19.8471 H   0  0  0  0  0  0
  -25.1284  -36.1941   25.0834 H   0  0  0  0  0  0
  -20.9973  -28.3241   24.1412 H   0  0  0  0  0  0
  -20.5698  -26.2280   23.3604 H   0  0  0  0  0  0
  -21.6650  -26.7440   22.1186 H   0  0  0  0  0  0
  -19.6933  -25.6299   21.1223 H   0  0  0  0  0  0
  -19.6705  -27.3195   20.6744 H   0  0  0  0  0  0
  -17.4212  -26.6663   21.4011 H   0  0  0  0  0  0
  -18.0324  -26.0082   22.9021 H   0  0  0  0  0  0
  -19.7953  -30.7253   24.2242 H   0  0  0  0  0  0
  -17.5041  -31.6256   24.5158 H   0  0  0  0  0  0
  -15.5361  -30.2976   23.7675 H   0  0  0  0  0  0
  -15.8684  -28.0841   22.7026 H   0  0  0  0  0  0
  -24.5920  -30.7050   25.7818 H   0  0  0  0  0  0
  -24.8894  -32.2893   26.4861 H   0  0  0  0  0  0
  -25.8055  -30.8946   27.0269 H   0  0  0  0  0  0
  -26.2899  -29.6777   24.1187 H   0  0  0  0  0  0
  -27.4033  -29.7250   25.4664 H   0  0  0  0  0  0
  -27.8773  -30.4320   23.9402 H   0  0  0  0  0  0
  -27.2680  -33.3613   26.2088 H   0  0  0  0  0  0
  -28.3871  -32.6854   25.0341 H   0  0  0  0  0  0
  -28.0721  -31.8431   26.5431 H   0  0  0  0  0  0
  -28.2588  -38.0106   24.7505 H   0  0  0  0  0  0
  -28.1077  -36.2638   24.6294 H   0  0  0  0  0  0
  -27.2305  -37.1456   25.8874 H   0  0  0  0  0  0
  -20.9367  -29.8813   21.6930 H   0  0  0  0  0  0
  -26.0169  -38.2858   24.1422 H   0  0  0  0  0  0
  -32.0299  -19.2608   20.5950 H   0  0  0  0  0  0
  -27.1956  -20.2343   20.6445 H   0  0  0  0  0  0
  -33.3069  -22.5218   19.7128 H   0  0  0  0  0  0
  -33.0596  -20.8435   19.2539 H   0  0  0  0  0  0
  -33.1290  -21.3065   20.9712 H   0  0  0  0  0  0
  -27.4719  -22.4353   20.0257 H   0  0  0  0  0  0
  -28.6338  -22.4844   18.7509 H   0  0  0  0  0  0
  -30.8265  -17.0341   22.3584 H   0  0  0  0  0  0
  -31.7219  -17.0100   20.8871 H   0  0  0  0  0  0
  -30.0566  -24.0879   20.0092 H   0  0  0  0  0  0
  -29.0847  -23.8883   21.4480 H   0  0  0  0  0  0
  -27.1188  -24.7865   20.3246 H   0  0  0  0  0  0
  -27.9676  -24.9688   18.8052 H   0  0  0  0  0  0
  -29.0781  -15.6039   21.1972 H   0  0  0  0  0  0
  1 25  1  0  0  0
  1 30  2  0  0  0
  1 82  1  0  0  0
  2  3  1  0  0  0
  2 25  1  0  0  0
  2 85  1  0  0  0
  2 86  1  0  0  0
  3  4  1  0  0  0
  3 87  1  0  0  0
  3 88  1  0  0  0
  4  5  1  0  0  0
  4 89  1  0  0  0
  4 90  1  0  0  0
  5  6  1  0  0  0
  5 26  1  0  0  0
  5 91  1  0  0  0
  6 25  1  0  0  0
  6 92  1  0  0  0
  6 93  1  0  0  0
  7  8  2  0  0  0
  7 26  1  0  0  0
  7 29  1  0  0  0
  8  9  1  0  0  0
  8 22  1  0  0  0
  9 10  1  0  0  0
  9 27  2  0  0  0
 10 11  2  0  0  0
 10 15  1  0  0  0
 11 12  1  0  0  0
 11 94  1  0  0  0
 12 13  2  0  0  0
 12 95  1  0  0  0
 13 14  1  0  0  0
 13 31  1  0  0  0
 14 15  2  0  0  0
 14 96  1  0  0  0
 15 97  1  0  0  0
 16 17  2  0  0  0
 16 21  1  0  0  0
 16 31  1  0  0  0
 17 18  1  0  0  0
 17 98  1  0  0  0
 18 19  2  0  0  0
 18 99  1  0  0  0
 19 20  1  0  0  0
 19 24  1  0  0  0
 20 21  2  0  0  0
 20100  1  0  0  0
 21 23  1  0  0  0
 22 28  1  0  0  0
 22 32  2  0  0  0
 26 27  1  0  0  0
 28101  1  0  0  0
 28102  1  0  0  0
 29103  1  0  0  0
 29104  1  0  0  0
 33 34  1  0  0  0
 33 66  1  0  0  0
 33 70  2  0  0  0
 34 36  1  0  0  0
 34 59  1  0  0  0
 34105  1  0  0  0
 35 44  2  0  0  0
 35 45  1  0  0  0
 35 68  1  0  0  0
 36 56  1  0  0  0
 36106  1  0  0  0
 37 39  1  0  0  0
 37 47  1  0  0  0
 37 66  1  0  0  0
 37107  1  0  0  0
 38 43  2  0  0  0
 38 46  1  0  0  0
 38 47  1  0  0  0
 39 64  1  0  0  0
 39 67  2  0  0  0
 40 52  1  0  0  0
 40 53  2  0  0  0
 40 58  1  0  0  0
 41108  1  0  0  0
 41109  1  0  0  0
 41110  1  0  0  0
 41 48  1  0  0  0
 42 43  1  0  0  0
 42 66  1  0  0  0
 42111  1  0  0  0
 42112  1  0  0  0
 43 44  1  0  0  0
 44113  1  0  0  0
 45 46  2  0  0  0
 45114  1  0  0  0
 46115  1  0  0  0
 47116  1  0  0  0
 47117  1  0  0  0
 48 56  1  0  0  0
 48 65  1  0  0  0
 48118  1  0  0  0
 49 50  1  0  0  0
 49 53  1  0  0  0
 49 64  1  0  0  0
 49119  1  0  0  0
 50 51  1  0  0  0
 50120  1  0  0  0
 50121  1  0  0  0
 51 52  1  0  0  0
 51122  1  0  0  0
 51123  1  0  0  0
 52124  1  0  0  0
 52125  1  0  0  0
 53 54  1  0  0  0
 54 55  2  0  0  0
 54126  1  0  0  0
 55 57  1  0  0  0
 55127  1  0  0  0
 56 69  2  0  0  0
 57 58  2  0  0  0
 57128  1  0  0  0
 58129  1  0  0  0
 59 60  1  0  0  0
 59 61  1  0  0  0
 59 62  1  0  0  0
 60130  1  0  0  0
 60131  1  0  0  0
 60132  1  0  0  0
 61133  1  0  0  0
 61134  1  0  0  0
 61135  1  0  0  0
 62136  1  0  0  0
 62137  1  0  0  0
 62138  1  0  0  0
 63 65  1  0  0  0
 63139  1  0  0  0
 63140  1  0  0  0
 63141  1  0  0  0
 64142  1  0  0  0
 65143  1  0  0  0
 68 81  1  0  0  0
 71 73  2  0  0  0
 71 75  1  0  0  0
 71144  1  0  0  0
 72 74  1  0  0  0
 72 76  2  0  0  0
 72145  1  0  0  0
 73 76  1  0  0  0
 73 79  1  0  0  0
 74 75  2  0  0  0
 74 78  1  0  0  0
 75 83  1  0  0  0
 76 84  1  0  0  0
 77 83  1  0  0  0
 77146  1  0  0  0
 77147  1  0  0  0
 77148  1  0  0  0
 78 80  1  0  0  0
 78149  1  0  0  0
 78150  1  0  0  0
 79 82  1  0  0  0
 79151  1  0  0  0
 79152  1  0  0  0
 80 81  1  0  0  0
 80153  1  0  0  0
 80154  1  0  0  0
 81155  1  0  0  0
 81156  1  0  0  0
 82157  1  0  0  0
M  ISO  4   1 100  68 101  81 101  82 100
M  END
> <chiral flag>
0

> <version>
0

> <s_m_source_file>
/data/baiqing/PycharmProjects/Reinvent-master-3.2/result/LINK_invent/BTK/process_docking_weight1_custom_sum_contain_oxygen_bond_distance_aromatic_linkinvent_7_9_3/rearranged_h_0036.sdf

> <i_m_source_file_index>
34

> <r_mmod_Potential_Energy-OPLS-2005>
3.2548553943634

> <r_mmod_Stretch_Energy-OPLS-2005>
69.5118789672852

> <r_mmod_Bend_Energy-OPLS-2005>
152.157470703125

> <r_mmod_Torsional_Energy-OPLS-2005>
196.345230102539

> <r_mmod_Improper_Torsional_Energy-OPLS-2005>
3.88153123855591

> <r_mmod_Van_der_Waal_Energy-OPLS-2005>
159.196563720703

> <r_mmod_Electrostatic_Energy-OPLS-2005>
-416.145141601562

> <r_mmod_Solvation_Energy-OPLS-2005>
-203.420852661133

> <b_mmod_Minimization_Converged-OPLS-2005>
0

> <r_mmod_RMS_Derivative-OPLS-2005>
1.53207635879517

$$$$
35
                    3D
 Structure written by MMmdl.
168176  0  0  1  0            999 V2000
  -30.8028  -14.3594   20.6943 C   0  0  0  0  0  0
  -30.4164  -12.2968   19.3981 C   0  0  0  0  0  0
  -29.4814  -12.5059   18.1944 C   0  0  0  0  0  0
  -28.0089  -12.3644   18.6183 C   0  0  0  0  0  0
  -27.6660  -13.2049   19.8759 C   0  0  2  0  0  0
  -28.7057  -12.9808   20.9961 C   0  0  0  0  0  0
  -25.2613  -13.8170   20.5693 C   0  0  0  0  0  0
  -24.1862  -13.0451   20.9164 C   0  0  0  0  0  0
  -24.6410  -11.6911   20.8720 C   0  0  0  0  0  0
  -23.9068  -10.4302   21.0400 C   0  0  0  0  0  0
  -24.3608   -9.4231   21.9195 C   0  0  0  0  0  0
  -23.6286   -8.2260   22.0765 C   0  0  0  0  0  0
  -22.4281   -8.0286   21.3544 C   0  0  0  0  0  0
  -21.9908   -9.0258   20.4644 C   0  0  0  0  0  0
  -22.7230  -10.2148   20.3058 C   0  0  0  0  0  0
  -21.6856   -6.0734   22.5284 C   0  0  0  0  0  0
  -21.4020   -6.5644   23.8214 C   0  0  0  0  0  0
  -21.3659   -5.6794   24.9175 C   0  0  0  0  0  0
  -21.6041   -4.3054   24.7223 C   0  0  0  0  0  0
  -21.8818   -3.8142   23.4350 C   0  0  0  0  0  0
  -21.9200   -4.6960   22.3403 C   0  0  0  0  0  0
  -22.7875  -13.5248   21.1809 C   0  0  0  0  0  0
  -22.1657   -4.2141   21.0975 F   0  0  0  0  0  0
  -21.5637   -3.4538   25.7738 F   0  0  0  0  0  0
  -30.0492  -13.2552   20.4522 N   0  0  0  0  0  0
  -26.3058  -12.9328   20.3385 N   0  0  0  0  0  0
  -25.9344  -11.6485   20.5765 N   0  0  0  0  0  0
  -22.0508  -12.8264   22.0366 N   0  0  0  0  0  0
  -25.4342  -15.1882   20.4100 N   0  0  0  0  0  0
  -31.8044  -14.6512   20.0368 O   0  0  0  0  0  0
  -21.6654   -6.8881   21.4240 O   0  0  0  0  0  0
  -22.3567  -14.5547   20.6640 O   0  0  0  0  0  0
  -24.6131  -31.8685   23.2125 C   0  0  0  0  0  0
  -25.9038  -32.4825   23.8411 C   0  0  1  0  0  0
  -27.2407  -27.4519   20.0989 C   0  0  0  0  0  0
  -25.5905  -33.8628   24.2348 N   0  0  0  0  0  0
  -23.4006  -30.4896   21.5521 C   0  0  2  0  0  0
  -24.8505  -28.9542   20.1186 C   0  0  0  0  0  0
  -22.7387  -29.4667   22.5020 C   0  0  0  0  0  0
  -18.0259  -28.1391   22.8489 C   0  0  0  0  0  0
  -24.1489  -36.7328   23.2635 C   0  0  0  0  0  0
  -25.9270  -30.8364   21.3653 C   0  0  0  0  0  0
  -26.0051  -29.4675   20.7252 C   0  0  0  0  0  0
  -27.2025  -28.7186   20.7243 C   0  0  0  0  0  0
  -26.0779  -26.9513   19.4812 C   0  0  0  0  0  0
  -24.8788  -27.6915   19.4984 C   0  0  0  0  0  0
  -23.6083  -29.8164   20.1670 C   0  0  0  0  0  0
  -25.4107  -36.3120   24.0334 C   0  0  1  0  0  0
  -20.5849  -28.3675   23.1331 C   0  0  2  0  0  0
  -20.6757  -26.9411   22.5428 C   0  0  0  0  0  0
  -19.5740  -26.6380   21.5225 C   0  0  0  0  0  0
  -18.1912  -26.7944   22.1610 C   0  0  0  0  0  0
  -19.1508  -28.8845   23.2907 C   0  0  0  0  0  0
  -18.9434  -30.1451   23.8920 C   0  0  0  0  0  0
  -17.6439  -30.6599   24.0569 C   0  0  0  0  0  0
  -25.9031  -34.9476   23.5138 C   0  0  0  0  0  0
  -16.5328  -29.9106   23.6327 C   0  0  0  0  0  0
  -16.7246  -28.6520   23.0348 C   0  0  0  0  0  0
  -26.4474  -31.6602   25.0732 C   0  0  0  0  0  0
  -25.3728  -31.3670   26.1451 C   0  0  0  0  0  0
  -27.0347  -30.3063   24.6090 C   0  0  0  0  0  0
  -27.6025  -32.4331   25.7515 C   0  0  0  0  0  0
  -27.5599  -37.1804   24.8443 C   0  0  0  0  0  0
  -21.4117  -29.3050   22.3746 N   0  0  0  0  0  0
  -26.4290  -37.3805   23.9420 N   0  0  0  0  0  0
  -24.6652  -31.0787   22.1023 N   0  0  0  0  0  0
  -23.4164  -28.8215   23.3064 O   0  0  0  0  0  0
  -28.3914  -26.7073   20.0252 O   0  0  0  0  0  0
  -26.5595  -34.8922   22.4696 O   0  0  0  0  0  0
  -23.5319  -32.1444   23.7514 O   0  0  0  0  0  0
  -28.4798  -23.8954   20.3692 C   0  0  0  0  0  0
  -29.0556  -22.7225   22.8433 C   0  0  0  0  0  0
  -28.4158  -22.4895   20.5071 C   0  0  0  0  0  0
  -28.6919  -21.8960   21.7623 C   0  0  0  0  0  0
  -29.1369  -24.1242   22.7039 C   0  0  0  0  0  0
  -28.8344  -24.7289   21.4560 C   0  0  0  0  0  0
  -28.0557  -21.6402   19.2991 C   0  0  0  0  0  0
  -28.3254  -25.3835   24.7459 C   0  0  0  0  0  0
  -29.5423  -24.9329   23.9282 C   0  0  0  0  0  0
  -28.6010  -20.3902   21.9956 C   0  0  0  0  0  0
  -28.9261  -26.2475   21.2673 C   0  0  0  0  0  0
  -29.9035  -19.6447   21.6550 C   0  0  0  0  0  0
  -29.8622  -18.1480   22.0208 C   0  0  0  0  0  0
  -31.2349  -17.4713   21.8571 C   0  0  0  0  0  0
  -31.3264  -16.0485   22.4428 C   0  0  0  0  0  0
  -30.4625  -15.0684   21.7803 N   0  0  0  0  0  0
  -31.4573  -12.3960   19.0838 H   0  0  0  0  0  0
  -30.3243  -11.2808   19.7842 H   0  0  0  0  0  0
  -29.7146  -11.7803   17.4146 H   0  0  0  0  0  0
  -29.6510  -13.4913   17.7578 H   0  0  0  0  0  0
  -27.8211  -11.3084   18.8153 H   0  0  0  0  0  0
  -27.3519  -12.6396   17.7926 H   0  0  0  0  0  0
  -27.7171  -14.2534   19.5825 H   0  0  0  0  0  0
  -28.6679  -11.9510   21.3536 H   0  0  0  0  0  0
  -28.4515  -13.5970   21.8584 H   0  0  0  0  0  0
  -25.2748   -9.5726   22.4782 H   0  0  0  0  0  0
  -24.0000   -7.4663   22.7502 H   0  0  0  0  0  0
  -21.0846   -8.8777   19.8938 H   0  0  0  0  0  0
  -22.3686  -10.9689   19.6168 H   0  0  0  0  0  0
  -21.2009   -7.6148   23.9715 H   0  0  0  0  0  0
  -21.1476   -6.0521   25.9081 H   0  0  0  0  0  0
  -22.0595   -2.7602   23.2851 H   0  0  0  0  0  0
  -22.4097  -11.9930   22.4770 H   0  0  0  0  0  0
  -21.1113  -13.1299   22.2520 H   0  0  0  0  0  0
  -24.6744  -15.8477   20.5359 H   0  0  0  0  0  0
  -26.2941  -15.6261   20.1013 H   0  0  0  0  0  0
  -26.7128  -32.5543   23.1192 H   0  0  0  0  0  0
  -25.0121  -33.9793   25.0534 H   0  0  0  0  0  0
  -22.6897  -31.3061   21.4098 H   0  0  0  0  0  0
  -23.3783  -35.9624   23.3215 H   0  0  0  0  0  0
  -24.3603  -36.9044   22.2067 H   0  0  0  0  0  0
  -23.7193  -37.6471   23.6729 H   0  0  0  0  0  0
  -26.0277  -31.5918   20.5855 H   0  0  0  0  0  0
  -26.8207  -30.9019   21.9742 H   0  0  0  0  0  0
  -28.0965  -29.1118   21.1883 H   0  0  0  0  0  0
  -26.1016  -25.9894   18.9892 H   0  0  0  0  0  0
  -23.9944  -27.2916   19.0209 H   0  0  0  0  0  0
  -23.7081  -30.5855   19.4004 H   0  0  0  0  0  0
  -22.7373  -29.2257   19.8792 H   0  0  0  0  0  0
  -25.1273  -36.1984   25.0820 H   0  0  0  0  0  0
  -20.9924  -28.3254   24.1465 H   0  0  0  0  0  0
  -20.5699  -26.2261   23.3617 H   0  0  0  0  0  0
  -21.6637  -26.7500   22.1206 H   0  0  0  0  0  0
  -19.6904  -25.6300   21.1235 H   0  0  0  0  0  0
  -19.6690  -27.3197   20.6763 H   0  0  0  0  0  0
  -17.4196  -26.6743   21.3980 H   0  0  0  0  0  0
  -18.0258  -26.0074   22.8980 H   0  0  0  0  0  0
  -19.7909  -30.7253   24.2312 H   0  0  0  0  0  0
  -17.4997  -31.6280   24.5173 H   0  0  0  0  0  0
  -15.5326  -30.3012   23.7646 H   0  0  0  0  0  0
  -15.8645  -28.0833   22.7075 H   0  0  0  0  0  0
  -24.5930  -30.6996   25.7765 H   0  0  0  0  0  0
  -24.8880  -32.2807   26.4897 H   0  0  0  0  0  0
  -25.8068  -30.8832   27.0204 H   0  0  0  0  0  0
  -26.2914  -29.6793   24.1151 H   0  0  0  0  0  0
  -27.4161  -29.7319   25.4543 H   0  0  0  0  0  0
  -27.8718  -30.4433   23.9240 H   0  0  0  0  0  0
  -27.2640  -33.3635   26.2087 H   0  0  0  0  0  0
  -28.3854  -32.6871   25.0360 H   0  0  0  0  0  0
  -28.0672  -31.8450   26.5435 H   0  0  0  0  0  0
  -28.2524  -38.0193   24.7629 H   0  0  0  0  0  0
  -28.1191  -36.2732   24.6109 H   0  0  0  0  0  0
  -27.2318  -37.1234   25.8835 H   0  0  0  0  0  0
  -20.9281  -29.8770   21.6963 H   0  0  0  0  0  0
  -26.0177  -38.2858   24.1486 H   0  0  0  0  0  0
  -28.2589  -24.3422   19.4101 H   0  0  0  0  0  0
  -29.2791  -22.2724   23.8012 H   0  0  0  0  0  0
  -27.9657  -22.2458   18.3968 H   0  0  0  0  0  0
  -27.1060  -21.1280   19.4552 H   0  0  0  0  0  0
  -28.8238  -20.8905   19.1085 H   0  0  0  0  0  0
  -28.6373  -25.8426   25.6840 H   0  0  0  0  0  0
  -27.6841  -24.5343   24.9867 H   0  0  0  0  0  0
  -27.7213  -26.1121   24.2059 H   0  0  0  0  0  0
  -30.1573  -25.7878   23.6450 H   0  0  0  0  0  0
  -30.1836  -24.3159   24.5597 H   0  0  0  0  0  0
  -27.7599  -19.9696   21.4448 H   0  0  0  0  0  0
  -28.3669  -20.2240   23.0485 H   0  0  0  0  0  0
  -29.9781  -26.5282   21.3007 H   0  0  0  0  0  0
  -28.4489  -26.7455   22.1121 H   0  0  0  0  0  0
  -30.7238  -20.1213   22.1928 H   0  0  0  0  0  0
  -30.1356  -19.7555   20.5962 H   0  0  0  0  0  0
  -29.1207  -17.6361   21.4069 H   0  0  0  0  0  0
  -29.5314  -18.0389   23.0545 H   0  0  0  0  0  0
  -31.9858  -18.0790   22.3653 H   0  0  0  0  0  0
  -31.5257  -17.4669   20.8063 H   0  0  0  0  0  0
  -31.0776  -16.0673   23.5048 H   0  0  0  0  0  0
  -32.3632  -15.7094   22.3923 H   0  0  0  0  0  0
  -29.6287  -14.7772   22.2687 H   0  0  0  0  0  0
  1 25  1  0  0  0
  1 30  2  0  0  0
  1 86  1  0  0  0
  2  3  1  0  0  0
  2 25  1  0  0  0
  2 87  1  0  0  0
  2 88  1  0  0  0
  3  4  1  0  0  0
  3 89  1  0  0  0
  3 90  1  0  0  0
  4  5  1  0  0  0
  4 91  1  0  0  0
  4 92  1  0  0  0
  5  6  1  0  0  0
  5 26  1  0  0  0
  5 93  1  0  0  0
  6 25  1  0  0  0
  6 94  1  0  0  0
  6 95  1  0  0  0
  7  8  2  0  0  0
  7 26  1  0  0  0
  7 29  1  0  0  0
  8  9  1  0  0  0
  8 22  1  0  0  0
  9 10  1  0  0  0
  9 27  2  0  0  0
 10 11  2  0  0  0
 10 15  1  0  0  0
 11 12  1  0  0  0
 11 96  1  0  0  0
 12 13  2  0  0  0
 12 97  1  0  0  0
 13 14  1  0  0  0
 13 31  1  0  0  0
 14 15  2  0  0  0
 14 98  1  0  0  0
 15 99  1  0  0  0
 16 17  2  0  0  0
 16 21  1  0  0  0
 16 31  1  0  0  0
 17 18  1  0  0  0
 17100  1  0  0  0
 18 19  2  0  0  0
 18101  1  0  0  0
 19 20  1  0  0  0
 19 24  1  0  0  0
 20 21  2  0  0  0
 20102  1  0  0  0
 21 23  1  0  0  0
 22 28  1  0  0  0
 22 32  2  0  0  0
 26 27  1  0  0  0
 28103  1  0  0  0
 28104  1  0  0  0
 29105  1  0  0  0
 29106  1  0  0  0
 33 34  1  0  0  0
 33 66  1  0  0  0
 33 70  2  0  0  0
 34 36  1  0  0  0
 34 59  1  0  0  0
 34107  1  0  0  0
 35 44  2  0  0  0
 35 45  1  0  0  0
 35 68  1  0  0  0
 36 56  1  0  0  0
 36108  1  0  0  0
 37 39  1  0  0  0
 37 47  1  0  0  0
 37 66  1  0  0  0
 37109  1  0  0  0
 38 43  2  0  0  0
 38 46  1  0  0  0
 38 47  1  0  0  0
 39 64  1  0  0  0
 39 67  2  0  0  0
 40 52  1  0  0  0
 40 53  2  0  0  0
 40 58  1  0  0  0
 41110  1  0  0  0
 41111  1  0  0  0
 41112  1  0  0  0
 41 48  1  0  0  0
 42 43  1  0  0  0
 42 66  1  0  0  0
 42113  1  0  0  0
 42114  1  0  0  0
 43 44  1  0  0  0
 44115  1  0  0  0
 45 46  2  0  0  0
 45116  1  0  0  0
 46117  1  0  0  0
 47118  1  0  0  0
 47119  1  0  0  0
 48 56  1  0  0  0
 48 65  1  0  0  0
 48120  1  0  0  0
 49 50  1  0  0  0
 49 53  1  0  0  0
 49 64  1  0  0  0
 49121  1  0  0  0
 50 51  1  0  0  0
 50122  1  0  0  0
 50123  1  0  0  0
 51 52  1  0  0  0
 51124  1  0  0  0
 51125  1  0  0  0
 52126  1  0  0  0
 52127  1  0  0  0
 53 54  1  0  0  0
 54 55  2  0  0  0
 54128  1  0  0  0
 55 57  1  0  0  0
 55129  1  0  0  0
 56 69  2  0  0  0
 57 58  2  0  0  0
 57130  1  0  0  0
 58131  1  0  0  0
 59 60  1  0  0  0
 59 61  1  0  0  0
 59 62  1  0  0  0
 60132  1  0  0  0
 60133  1  0  0  0
 60134  1  0  0  0
 61135  1  0  0  0
 61136  1  0  0  0
 61137  1  0  0  0
 62138  1  0  0  0
 62139  1  0  0  0
 62140  1  0  0  0
 63 65  1  0  0  0
 63141  1  0  0  0
 63142  1  0  0  0
 63143  1  0  0  0
 64144  1  0  0  0
 65145  1  0  0  0
 68 81  1  0  0  0
 71 73  2  0  0  0
 71 76  1  0  0  0
 71146  1  0  0  0
 72 74  2  0  0  0
 72 75  1  0  0  0
 72147  1  0  0  0
 73 74  1  0  0  0
 73 77  1  0  0  0
 74 80  1  0  0  0
 75 76  2  0  0  0
 75 79  1  0  0  0
 76 81  1  0  0  0
 77148  1  0  0  0
 77149  1  0  0  0
 77150  1  0  0  0
 78 79  1  0  0  0
 78151  1  0  0  0
 78152  1  0  0  0
 78153  1  0  0  0
 79154  1  0  0  0
 79155  1  0  0  0
 80 82  1  0  0  0
 80156  1  0  0  0
 80157  1  0  0  0
 81158  1  0  0  0
 81159  1  0  0  0
 82 83  1  0  0  0
 82160  1  0  0  0
 82161  1  0  0  0
 83 84  1  0  0  0
 83162  1  0  0  0
 83163  1  0  0  0
 84 85  1  0  0  0
 84164  1  0  0  0
 84165  1  0  0  0
 85 86  1  0  0  0
 85166  1  0  0  0
 85167  1  0  0  0
 86168  1  0  0  0
M  ISO  4   1 100  68 101  81 101  86 100
M  END
> <chiral flag>
0

> <version>
0

> <s_m_source_file>
/data/baiqing/PycharmProjects/Reinvent-master-3.2/result/LINK_invent/BTK/process_docking_weight1_custom_sum_contain_oxygen_bond_distance_aromatic_linkinvent_7_9_3/rearranged_h_0036.sdf

> <i_m_source_file_index>
35

> <r_mmod_Potential_Energy-OPLS-2005>
-65.2965545654297

> <r_mmod_Stretch_Energy-OPLS-2005>
34.2340774536133

> <r_mmod_Bend_Energy-OPLS-2005>
88.9361953735352

> <r_mmod_Torsional_Energy-OPLS-2005>
229.091094970703

> <r_mmod_Improper_Torsional_Energy-OPLS-2005>
2.72661590576172

> <r_mmod_Van_der_Waal_Energy-OPLS-2005>
146.577041625977

> <r_mmod_Electrostatic_Energy-OPLS-2005>
-375.399017333984

> <r_mmod_Solvation_Energy-OPLS-2005>
-198.726837158203

> <b_mmod_Minimization_Converged-OPLS-2005>
0

> <r_mmod_RMS_Derivative-OPLS-2005>
2.38486313819885

$$$$
36
                    3D
 Structure written by MMmdl.
162170  0  0  1  0            999 V2000
  -30.7139  -14.4737   20.5518 C   0  0  0  0  0  0
  -30.4208  -12.2986   19.4411 C   0  0  0  0  0  0
  -29.4994  -12.4976   18.2190 C   0  0  0  0  0  0
  -28.0202  -12.3607   18.6277 C   0  0  0  0  0  0
  -27.6620  -13.2132   19.8753 C   0  0  2  0  0  0
  -28.7024  -13.0172   21.0045 C   0  0  0  0  0  0
  -25.2585  -13.8177   20.5691 C   0  0  0  0  0  0
  -24.1835  -13.0446   20.9172 C   0  0  0  0  0  0
  -24.6394  -11.6921   20.8743 C   0  0  0  0  0  0
  -23.9054  -10.4307   21.0410 C   0  0  0  0  0  0
  -24.3602   -9.4220   21.9196 C   0  0  0  0  0  0
  -23.6279   -8.2252   22.0764 C   0  0  0  0  0  0
  -22.4265   -8.0288   21.3546 C   0  0  0  0  0  0
  -21.9894   -9.0262   20.4654 C   0  0  0  0  0  0
  -22.7221  -10.2145   20.3064 C   0  0  0  0  0  0
  -21.6851   -6.0736   22.5276 C   0  0  0  0  0  0
  -21.4021   -6.5638   23.8210 C   0  0  0  0  0  0
  -21.3664   -5.6786   24.9169 C   0  0  0  0  0  0
  -21.6046   -4.3048   24.7224 C   0  0  0  0  0  0
  -21.8822   -3.8142   23.4345 C   0  0  0  0  0  0
  -21.9187   -4.6961   22.3402 C   0  0  0  0  0  0
  -22.7856  -13.5254   21.1834 C   0  0  0  0  0  0
  -22.1655   -4.2145   21.0980 F   0  0  0  0  0  0
  -21.5626   -3.4532   25.7740 F   0  0  0  0  0  0
  -30.0392  -13.2972   20.4531 N   0  0  0  0  0  0
  -26.3025  -12.9360   20.3361 N   0  0  0  0  0  0
  -25.9330  -11.6516   20.5777 N   0  0  0  0  0  0
  -22.0479  -12.8269   22.0394 N   0  0  0  0  0  0
  -25.4305  -15.1906   20.4146 N   0  0  0  0  0  0
  -31.8412  -14.6411   20.0796 O   0  0  0  0  0  0
  -21.6636   -6.8881   21.4242 O   0  0  0  0  0  0
  -22.3549  -14.5557   20.6671 O   0  0  0  0  0  0
  -24.6163  -31.8688   23.2111 C   0  0  0  0  0  0
  -25.9053  -32.4826   23.8408 C   0  0  1  0  0  0
  -27.2247  -27.4202   20.0976 C   0  0  0  0  0  0
  -25.5909  -33.8626   24.2336 N   0  0  0  0  0  0
  -23.4036  -30.4946   21.5530 C   0  0  2  0  0  0
  -24.8476  -28.9673   20.1092 C   0  0  0  0  0  0
  -22.7412  -29.4669   22.4992 C   0  0  0  0  0  0
  -18.0271  -28.1382   22.8490 C   0  0  0  0  0  0
  -24.1487  -36.7311   23.2637 C   0  0  0  0  0  0
  -25.9350  -30.8318   21.3662 C   0  0  0  0  0  0
  -26.0116  -29.4687   20.7057 C   0  0  0  0  0  0
  -27.2041  -28.7050   20.6935 C   0  0  0  0  0  0
  -26.0436  -26.9522   19.4725 C   0  0  0  0  0  0
  -24.8606  -27.7101   19.4862 C   0  0  0  0  0  0
  -23.6096  -29.8331   20.1658 C   0  0  0  0  0  0
  -25.4112  -36.3115   24.0338 C   0  0  1  0  0  0
  -20.5858  -28.3668   23.1310 C   0  0  2  0  0  0
  -20.6766  -26.9406   22.5411 C   0  0  0  0  0  0
  -19.5747  -26.6389   21.5206 C   0  0  0  0  0  0
  -18.1923  -26.7926   22.1620 C   0  0  0  0  0  0
  -19.1519  -28.8843   23.2894 C   0  0  0  0  0  0
  -18.9448  -30.1447   23.8907 C   0  0  0  0  0  0
  -17.6450  -30.6587   24.0561 C   0  0  0  0  0  0
  -25.9039  -34.9479   23.5133 C   0  0  0  0  0  0
  -16.5342  -29.9087   23.6324 C   0  0  0  0  0  0
  -16.7260  -28.6501   23.0355 C   0  0  0  0  0  0
  -26.4479  -31.6607   25.0737 C   0  0  0  0  0  0
  -25.3739  -31.3711   26.1481 C   0  0  0  0  0  0
  -27.0308  -30.3048   24.6116 C   0  0  0  0  0  0
  -27.6059  -32.4325   25.7498 C   0  0  0  0  0  0
  -27.5581  -37.1811   24.8467 C   0  0  0  0  0  0
  -21.4136  -29.3041   22.3719 N   0  0  0  0  0  0
  -26.4300  -37.3795   23.9401 N   0  0  0  0  0  0
  -24.6702  -31.0780   22.1019 N   0  0  0  0  0  0
  -23.4180  -28.8211   23.3042 O   0  0  0  0  0  0
  -28.3665  -26.6363   20.1553 O   0  0  0  0  0  0
  -26.5593  -34.8931   22.4690 O   0  0  0  0  0  0
  -23.5355  -32.1455   23.7494 O   0  0  0  0  0  0
  -27.7431  -22.9486   22.4230 C   0  0  0  0  0  0
  -29.1930  -21.8012   20.8501 C   0  0  0  0  0  0
  -28.7205  -23.0130   21.4148 C   0  0  0  0  0  0
  -27.1692  -21.7209   22.7985 C   0  0  0  0  0  0
  -28.6455  -20.5412   21.2229 C   0  0  0  0  0  0
  -27.5716  -20.5186   22.1608 C   0  0  0  0  0  0
  -26.1003  -21.7317   23.8810 C   0  0  0  0  0  0
  -26.8117  -19.2347   22.4634 C   0  0  0  0  0  0
  -29.2212  -24.3950   20.9672 C   0  0  0  0  0  0
  -29.1847  -19.2714   20.5207 C   0  0  0  0  0  0
  -29.4560  -17.9860   21.3675 C   0  0  0  0  0  0
  -30.3047  -16.9224   20.6226 C   0  0  0  0  0  0
  -28.1345  -25.2097   20.2205 C   0  0  0  0  0  0
  -30.0048  -15.5268   20.9993 N   0  0  0  0  0  0
  -31.4674  -12.3822   19.1418 H   0  0  0  0  0  0
  -30.3063  -11.2926   19.8496 H   0  0  0  0  0  0
  -29.7434  -11.7729   17.4405 H   0  0  0  0  0  0
  -29.6710  -13.4842   17.7840 H   0  0  0  0  0  0
  -27.8286  -11.3065   18.8328 H   0  0  0  0  0  0
  -27.3711  -12.6249   17.7918 H   0  0  0  0  0  0
  -27.6994  -14.2571   19.5608 H   0  0  0  0  0  0
  -28.6679  -11.9941   21.3809 H   0  0  0  0  0  0
  -28.4693  -13.6502   21.8613 H   0  0  0  0  0  0
  -25.2746   -9.5699   22.4764 H   0  0  0  0  0  0
  -23.9983   -7.4654   22.7490 H   0  0  0  0  0  0
  -21.0815   -8.8784   19.8971 H   0  0  0  0  0  0
  -22.3673  -10.9682   19.6171 H   0  0  0  0  0  0
  -21.2021   -7.6148   23.9712 H   0  0  0  0  0  0
  -21.1478   -6.0519   25.9069 H   0  0  0  0  0  0
  -22.0593   -2.7602   23.2843 H   0  0  0  0  0  0
  -22.4045  -11.9910   22.4789 H   0  0  0  0  0  0
  -21.1122  -13.1351   22.2593 H   0  0  0  0  0  0
  -24.6693  -15.8490   20.5395 H   0  0  0  0  0  0
  -26.2871  -15.6316   20.1076 H   0  0  0  0  0  0
  -26.7121  -32.5535   23.1169 H   0  0  0  0  0  0
  -25.0071  -33.9794   25.0490 H   0  0  0  0  0  0
  -22.6931  -31.3129   21.4183 H   0  0  0  0  0  0
  -23.3747  -35.9643   23.3320 H   0  0  0  0  0  0
  -24.3578  -36.8908   22.2046 H   0  0  0  0  0  0
  -23.7245  -37.6526   23.6640 H   0  0  0  0  0  0
  -26.0529  -31.6025   20.6031 H   0  0  0  0  0  0
  -26.8203  -30.8785   21.9882 H   0  0  0  0  0  0
  -28.1000  -29.0851   21.1644 H   0  0  0  0  0  0
  -26.0148  -25.9926   18.9768 H   0  0  0  0  0  0
  -23.9676  -27.3222   19.0151 H   0  0  0  0  0  0
  -23.7132  -30.6121   19.4097 H   0  0  0  0  0  0
  -22.7331  -29.2532   19.8709 H   0  0  0  0  0  0
  -25.1288  -36.1983   25.0830 H   0  0  0  0  0  0
  -20.9951  -28.3241   24.1429 H   0  0  0  0  0  0
  -20.5666  -26.2282   23.3598 H   0  0  0  0  0  0
  -21.6640  -26.7455   22.1207 H   0  0  0  0  0  0
  -19.6916  -25.6301   21.1233 H   0  0  0  0  0  0
  -19.6689  -27.3202   20.6735 H   0  0  0  0  0  0
  -17.4194  -26.6664   21.4023 H   0  0  0  0  0  0
  -18.0334  -26.0060   22.9010 H   0  0  0  0  0  0
  -19.7930  -30.7252   24.2287 H   0  0  0  0  0  0
  -17.5014  -31.6272   24.5158 H   0  0  0  0  0  0
  -15.5348  -30.2999   23.7641 H   0  0  0  0  0  0
  -15.8656  -28.0820   22.7081 H   0  0  0  0  0  0
  -24.5912  -30.7062   25.7813 H   0  0  0  0  0  0
  -24.8930  -32.2864   26.4940 H   0  0  0  0  0  0
  -25.8089  -30.8873   27.0234 H   0  0  0  0  0  0
  -26.2856  -29.6813   24.1162 H   0  0  0  0  0  0
  -27.4070  -29.7284   25.4577 H   0  0  0  0  0  0
  -27.8696  -30.4368   23.9276 H   0  0  0  0  0  0
  -27.2685  -33.3617   26.2100 H   0  0  0  0  0  0
  -28.3852  -32.6897   25.0313 H   0  0  0  0  0  0
  -28.0740  -31.8433   26.5391 H   0  0  0  0  0  0
  -28.2612  -38.0095   24.7503 H   0  0  0  0  0  0
  -28.1065  -36.2628   24.6308 H   0  0  0  0  0  0
  -27.2294  -37.1480   25.8870 H   0  0  0  0  0  0
  -20.9302  -29.8752   21.6928 H   0  0  0  0  0  0
  -26.0193  -38.2876   24.1399 H   0  0  0  0  0  0
  -27.4017  -23.8626   22.8907 H   0  0  0  0  0  0
  -29.9670  -21.8462   20.0950 H   0  0  0  0  0  0
  -26.0807  -22.6838   24.4125 H   0  0  0  0  0  0
  -26.2870  -20.9520   24.6206 H   0  0  0  0  0  0
  -25.1111  -21.5731   23.4498 H   0  0  0  0  0  0
  -27.3342  -18.6517   23.2213 H   0  0  0  0  0  0
  -26.6849  -18.6394   21.5604 H   0  0  0  0  0  0
  -25.7999  -19.4153   22.8210 H   0  0  0  0  0  0
  -30.1102  -24.2976   20.3446 H   0  0  0  0  0  0
  -29.5294  -24.9427   21.8586 H   0  0  0  0  0  0
  -30.1196  -19.5408   20.0272 H   0  0  0  0  0  0
  -28.4920  -19.0217   19.7170 H   0  0  0  0  0  0
  -28.5239  -17.5105   21.6559 H   0  0  0  0  0  0
  -29.9638  -18.2561   22.2946 H   0  0  0  0  0  0
  -31.3643  -17.1389   20.7730 H   0  0  0  0  0  0
  -30.1258  -17.0015   19.5487 H   0  0  0  0  0  0
  -27.1966  -25.0324   20.7495 H   0  0  0  0  0  0
  -28.0081  -24.8080   19.2134 H   0  0  0  0  0  0
  -29.0914  -15.3261   21.3776 H   0  0  0  0  0  0
  1 25  1  0  0  0
  1 30  2  0  0  0
  1 84  1  0  0  0
  2  3  1  0  0  0
  2 25  1  0  0  0
  2 85  1  0  0  0
  2 86  1  0  0  0
  3  4  1  0  0  0
  3 87  1  0  0  0
  3 88  1  0  0  0
  4  5  1  0  0  0
  4 89  1  0  0  0
  4 90  1  0  0  0
  5  6  1  0  0  0
  5 26  1  0  0  0
  5 91  1  0  0  0
  6 25  1  0  0  0
  6 92  1  0  0  0
  6 93  1  0  0  0
  7  8  2  0  0  0
  7 26  1  0  0  0
  7 29  1  0  0  0
  8  9  1  0  0  0
  8 22  1  0  0  0
  9 10  1  0  0  0
  9 27  2  0  0  0
 10 11  2  0  0  0
 10 15  1  0  0  0
 11 12  1  0  0  0
 11 94  1  0  0  0
 12 13  2  0  0  0
 12 95  1  0  0  0
 13 14  1  0  0  0
 13 31  1  0  0  0
 14 15  2  0  0  0
 14 96  1  0  0  0
 15 97  1  0  0  0
 16 17  2  0  0  0
 16 21  1  0  0  0
 16 31  1  0  0  0
 17 18  1  0  0  0
 17 98  1  0  0  0
 18 19  2  0  0  0
 18 99  1  0  0  0
 19 20  1  0  0  0
 19 24  1  0  0  0
 20 21  2  0  0  0
 20100  1  0  0  0
 21 23  1  0  0  0
 22 28  1  0  0  0
 22 32  2  0  0  0
 26 27  1  0  0  0
 28101  1  0  0  0
 28102  1  0  0  0
 29103  1  0  0  0
 29104  1  0  0  0
 33 34  1  0  0  0
 33 66  1  0  0  0
 33 70  2  0  0  0
 34 36  1  0  0  0
 34 59  1  0  0  0
 34105  1  0  0  0
 35 44  2  0  0  0
 35 45  1  0  0  0
 35 68  1  0  0  0
 36 56  1  0  0  0
 36106  1  0  0  0
 37 39  1  0  0  0
 37 47  1  0  0  0
 37 66  1  0  0  0
 37107  1  0  0  0
 38 43  2  0  0  0
 38 46  1  0  0  0
 38 47  1  0  0  0
 39 64  1  0  0  0
 39 67  2  0  0  0
 40 52  1  0  0  0
 40 53  2  0  0  0
 40 58  1  0  0  0
 41108  1  0  0  0
 41109  1  0  0  0
 41110  1  0  0  0
 41 48  1  0  0  0
 42 43  1  0  0  0
 42 66  1  0  0  0
 42111  1  0  0  0
 42112  1  0  0  0
 43 44  1  0  0  0
 44113  1  0  0  0
 45 46  2  0  0  0
 45114  1  0  0  0
 46115  1  0  0  0
 47116  1  0  0  0
 47117  1  0  0  0
 48 56  1  0  0  0
 48 65  1  0  0  0
 48118  1  0  0  0
 49 50  1  0  0  0
 49 53  1  0  0  0
 49 64  1  0  0  0
 49119  1  0  0  0
 50 51  1  0  0  0
 50120  1  0  0  0
 50121  1  0  0  0
 51 52  1  0  0  0
 51122  1  0  0  0
 51123  1  0  0  0
 52124  1  0  0  0
 52125  1  0  0  0
 53 54  1  0  0  0
 54 55  2  0  0  0
 54126  1  0  0  0
 55 57  1  0  0  0
 55127  1  0  0  0
 56 69  2  0  0  0
 57 58  2  0  0  0
 57128  1  0  0  0
 58129  1  0  0  0
 59 60  1  0  0  0
 59 61  1  0  0  0
 59 62  1  0  0  0
 60130  1  0  0  0
 60131  1  0  0  0
 60132  1  0  0  0
 61133  1  0  0  0
 61134  1  0  0  0
 61135  1  0  0  0
 62136  1  0  0  0
 62137  1  0  0  0
 62138  1  0  0  0
 63 65  1  0  0  0
 63139  1  0  0  0
 63140  1  0  0  0
 63141  1  0  0  0
 64142  1  0  0  0
 65143  1  0  0  0
 68 83  1  0  0  0
 71 73  2  0  0  0
 71 74  1  0  0  0
 71144  1  0  0  0
 72 73  1  0  0  0
 72 75  2  0  0  0
 72145  1  0  0  0
 73 79  1  0  0  0
 74 76  2  0  0  0
 74 77  1  0  0  0
 75 76  1  0  0  0
 75 80  1  0  0  0
 76 78  1  0  0  0
 77146  1  0  0  0
 77147  1  0  0  0
 77148  1  0  0  0
 78149  1  0  0  0
 78150  1  0  0  0
 78151  1  0  0  0
 79 83  1  0  0  0
 79152  1  0  0  0
 79153  1  0  0  0
 80 81  1  0  0  0
 80154  1  0  0  0
 80155  1  0  0  0
 81 82  1  0  0  0
 81156  1  0  0  0
 81157  1  0  0  0
 82 84  1  0  0  0
 82158  1  0  0  0
 82159  1  0  0  0
 83160  1  0  0  0
 83161  1  0  0  0
 84162  1  0  0  0
M  ISO  4   1 100  68 101  83 101  84 100
M  END
> <chiral flag>
0

> <version>
0

> <s_m_source_file>
/data/baiqing/PycharmProjects/Reinvent-master-3.2/result/LINK_invent/BTK/process_docking_weight1_custom_sum_contain_oxygen_bond_distance_aromatic_linkinvent_7_9_3/rearranged_h_0036.sdf

> <i_m_source_file_index>
36

> <r_mmod_Potential_Energy-OPLS-2005>
-48.1197128295898

> <r_mmod_Stretch_Energy-OPLS-2005>
43.2361106872559

> <r_mmod_Bend_Energy-OPLS-2005>
97.2546997070312

> <r_mmod_Torsional_Energy-OPLS-2005>
219.334823608398

> <r_mmod_Improper_Torsional_Energy-OPLS-2005>
5.82792901992798

> <r_mmod_Van_der_Waal_Energy-OPLS-2005>
165.117660522461

> <r_mmod_Electrostatic_Energy-OPLS-2005>
-389.033203125

> <r_mmod_Solvation_Energy-OPLS-2005>
-206.39762878418

> <b_mmod_Minimization_Converged-OPLS-2005>
0

> <r_mmod_RMS_Derivative-OPLS-2005>
1.78628253936768

$$$$
37
                    3D
 Structure written by MMmdl.
161169  0  0  1  0            999 V2000
  -30.7304  -14.4457   20.6580 C   0  0  0  0  0  0
  -30.4193  -12.3182   19.4301 C   0  0  0  0  0  0
  -29.4933  -12.5068   18.2113 C   0  0  0  0  0  0
  -28.0189  -12.3353   18.6246 C   0  0  0  0  0  0
  -27.6575  -13.1893   19.8636 C   0  0  2  0  0  0
  -28.6935  -12.9982   20.9981 C   0  0  0  0  0  0
  -25.2604  -13.8114   20.5676 C   0  0  0  0  0  0
  -24.1864  -13.0453   20.9251 C   0  0  0  0  0  0
  -24.6372  -11.6889   20.8787 C   0  0  0  0  0  0
  -23.9005  -10.4285   21.0452 C   0  0  0  0  0  0
  -24.3560   -9.4184   21.9213 C   0  0  0  0  0  0
  -23.6256   -8.2211   22.0735 C   0  0  0  0  0  0
  -22.4229   -8.0247   21.3535 C   0  0  0  0  0  0
  -21.9883   -9.0221   20.4638 C   0  0  0  0  0  0
  -22.7189  -10.2126   20.3084 C   0  0  0  0  0  0
  -21.6836   -6.0699   22.5268 C   0  0  0  0  0  0
  -21.4005   -6.5612   23.8203 C   0  0  0  0  0  0
  -21.3668   -5.6779   24.9180 C   0  0  0  0  0  0
  -21.6064   -4.3042   24.7245 C   0  0  0  0  0  0
  -21.8811   -3.8113   23.4368 C   0  0  0  0  0  0
  -21.9187   -4.6925   22.3413 C   0  0  0  0  0  0
  -22.7891  -13.5271   21.1894 C   0  0  0  0  0  0
  -22.1649   -4.2103   21.0996 F   0  0  0  0  0  0
  -21.5654   -3.4530   25.7768 F   0  0  0  0  0  0
  -30.0319  -13.2929   20.4613 N   0  0  0  0  0  0
  -26.2989  -12.9241   20.3284 N   0  0  0  0  0  0
  -25.9272  -11.6438   20.5737 N   0  0  0  0  0  0
  -22.0486  -12.8261   22.0394 N   0  0  0  0  0  0
  -25.4386  -15.1823   20.3915 N   0  0  0  0  0  0
  -31.8025  -14.6606   20.0814 O   0  0  0  0  0  0
  -21.6609   -6.8835   21.4220 O   0  0  0  0  0  0
  -22.3645  -14.5623   20.6753 O   0  0  0  0  0  0
  -24.6155  -31.8680   23.2156 C   0  0  0  0  0  0
  -25.9060  -32.4815   23.8425 C   0  0  1  0  0  0
  -27.2051  -27.4350   20.0821 C   0  0  0  0  0  0
  -25.5950  -33.8618   24.2324 N   0  0  0  0  0  0
  -23.3964  -30.5021   21.5586 C   0  0  2  0  0  0
  -24.8302  -28.9760   20.1020 C   0  0  0  0  0  0
  -22.7397  -29.4668   22.4982 C   0  0  0  0  0  0
  -18.0322  -28.1262   22.8343 C   0  0  0  0  0  0
  -24.1494  -36.7304   23.2635 C   0  0  0  0  0  0
  -25.9298  -30.8296   21.3691 C   0  0  0  0  0  0
  -25.9939  -29.4711   20.7041 C   0  0  0  0  0  0
  -27.1821  -28.7093   20.6875 C   0  0  0  0  0  0
  -26.0186  -26.9530   19.4810 C   0  0  0  0  0  0
  -24.8392  -27.7172   19.4814 C   0  0  0  0  0  0
  -23.5933  -29.8454   20.1663 C   0  0  0  0  0  0
  -25.4127  -36.3092   24.0325 C   0  0  1  0  0  0
  -20.5885  -28.3571   23.1251 C   0  0  2  0  0  0
  -20.6863  -26.9350   22.5328 C   0  0  0  0  0  0
  -19.5855  -26.6331   21.5104 C   0  0  0  0  0  0
  -18.1992  -26.7830   22.1436 C   0  0  0  0  0  0
  -19.1549  -28.8706   23.2813 C   0  0  0  0  0  0
  -18.9460  -30.1371   23.8749 C   0  0  0  0  0  0
  -17.6440  -30.6393   24.0428 C   0  0  0  0  0  0
  -25.9062  -34.9459   23.5100 C   0  0  0  0  0  0
  -16.5357  -29.8887   23.6195 C   0  0  0  0  0  0
  -16.7293  -28.6305   23.0193 C   0  0  0  0  0  0
  -26.4492  -31.6611   25.0760 C   0  0  0  0  0  0
  -25.3745  -31.3717   26.1474 C   0  0  0  0  0  0
  -27.0316  -30.3064   24.6115 C   0  0  0  0  0  0
  -27.6071  -32.4332   25.7501 C   0  0  0  0  0  0
  -27.5584  -37.1813   24.8470 C   0  0  0  0  0  0
  -21.4122  -29.2981   22.3670 N   0  0  0  0  0  0
  -26.4314  -37.3802   23.9390 N   0  0  0  0  0  0
  -24.6676  -31.0785   22.1049 N   0  0  0  0  0  0
  -23.4169  -28.8182   23.2996 O   0  0  0  0  0  0
  -28.3841  -26.7131   20.0891 O   0  0  0  0  0  0
  -26.5622  -34.8950   22.4666 O   0  0  0  0  0  0
  -23.5342  -32.1433   23.7535 O   0  0  0  0  0  0
  -27.6907  -20.8284   20.5792 C   0  0  0  0  0  0
  -25.8741  -21.4814   21.6951 C   0  0  0  0  0  0
  -26.8108  -21.9304   20.8097 C   0  0  0  0  0  0
  -27.1795  -19.7105   21.1872 C   0  0  0  0  0  0
  -25.1523  -19.2844   22.6641 C   0  0  0  0  0  0
  -26.8296  -23.2733   20.0997 C   0  0  0  0  0  0
  -27.5041  -18.2487   20.9985 C   0  0  0  0  0  0
  -30.1864  -15.5712   21.5736 C   0  0  0  0  0  0
  -27.6999  -24.3820   20.7359 C   0  0  0  0  0  0
  -29.1670  -16.4720   20.8394 C   0  0  0  0  0  0
  -28.3466  -25.3362   19.6879 C   0  0  0  0  0  0
  -26.0611  -20.1238   21.8977 N   0  0  0  0  0  0
  -28.7959  -17.7462   21.5158 N   0  3  0  0  0  0
  -31.4640  -12.4175   19.1304 H   0  0  0  0  0  0
  -30.3209  -11.3056   19.8287 H   0  0  0  0  0  0
  -29.7416  -11.7824   17.4343 H   0  0  0  0  0  0
  -29.6480  -13.4941   17.7758 H   0  0  0  0  0  0
  -27.8541  -11.2793   18.8435 H   0  0  0  0  0  0
  -27.3582  -12.5779   17.7917 H   0  0  0  0  0  0
  -27.6918  -14.2173   19.5175 H   0  0  0  0  0  0
  -28.6641  -11.9699   21.3616 H   0  0  0  0  0  0
  -28.4203  -13.6103   21.8564 H   0  0  0  0  0  0
  -25.2700   -9.5653   22.4797 H   0  0  0  0  0  0
  -23.9965   -7.4585   22.7435 H   0  0  0  0  0  0
  -21.0827   -8.8741   19.8921 H   0  0  0  0  0  0
  -22.3652  -10.9674   19.6199 H   0  0  0  0  0  0
  -21.1967   -7.6110   23.9706 H   0  0  0  0  0  0
  -21.1515   -6.0505   25.9098 H   0  0  0  0  0  0
  -22.0581   -2.7559   23.2896 H   0  0  0  0  0  0
  -22.4073  -11.9931   22.4827 H   0  0  0  0  0  0
  -21.1098  -13.1309   22.2559 H   0  0  0  0  0  0
  -24.6020  -15.7543   20.3632 H   0  0  0  0  0  0
  -26.1368  -15.4844   19.7272 H   0  0  0  0  0  0
  -26.7085  -32.5493   23.1147 H   0  0  0  0  0  0
  -25.0078  -33.9769   25.0437 H   0  0  0  0  0  0
  -22.6838  -31.3206   21.4336 H   0  0  0  0  0  0
  -23.3744  -35.9639   23.3312 H   0  0  0  0  0  0
  -24.3566  -36.8919   22.2040 H   0  0  0  0  0  0
  -23.7242  -37.6520   23.6647 H   0  0  0  0  0  0
  -26.0512  -31.6003   20.6040 H   0  0  0  0  0  0
  -26.8125  -30.8639   21.9969 H   0  0  0  0  0  0
  -28.0838  -29.0925   21.1498 H   0  0  0  0  0  0
  -25.9695  -25.9887   18.9980 H   0  0  0  0  0  0
  -23.9517  -27.3317   18.9966 H   0  0  0  0  0  0
  -23.6927  -30.6266   19.4175 H   0  0  0  0  0  0
  -22.7112  -29.2726   19.8706 H   0  0  0  0  0  0
  -25.1285  -36.1958   25.0818 H   0  0  0  0  0  0
  -20.9985  -28.3027   24.1355 H   0  0  0  0  0  0
  -20.5914  -26.2184   23.3512 H   0  0  0  0  0  0
  -21.6742  -26.7481   22.1081 H   0  0  0  0  0  0
  -19.7057  -25.6242   21.1103 H   0  0  0  0  0  0
  -19.6824  -27.3179   20.6668 H   0  0  0  0  0  0
  -17.4344  -26.6690   21.3739 H   0  0  0  0  0  0
  -18.0221  -25.9918   22.8722 H   0  0  0  0  0  0
  -19.7894  -30.7248   24.2045 H   0  0  0  0  0  0
  -17.4926  -31.6021   24.5110 H   0  0  0  0  0  0
  -15.5329  -30.2683   23.7543 H   0  0  0  0  0  0
  -15.8758  -28.0551   22.6823 H   0  0  0  0  0  0
  -24.5904  -30.7080   25.7814 H   0  0  0  0  0  0
  -24.8961  -32.2868   26.4965 H   0  0  0  0  0  0
  -25.8074  -30.8865   27.0217 H   0  0  0  0  0  0
  -26.2861  -29.6841   24.1167 H   0  0  0  0  0  0
  -27.4077  -29.7265   25.4554 H   0  0  0  0  0  0
  -27.8685  -30.4388   23.9253 H   0  0  0  0  0  0
  -27.2682  -33.3595   26.2126 H   0  0  0  0  0  0
  -28.3849  -32.6941   25.0322 H   0  0  0  0  0  0
  -28.0757  -31.8447   26.5388 H   0  0  0  0  0  0
  -28.2614  -38.0110   24.7506 H   0  0  0  0  0  0
  -28.1070  -36.2631   24.6301 H   0  0  0  0  0  0
  -27.2293  -37.1467   25.8883 H   0  0  0  0  0  0
  -20.9318  -29.8596   21.6746 H   0  0  0  0  0  0
  -26.0178  -38.2862   24.1442 H   0  0  0  0  0  0
  -28.5412  -20.8232   19.9090 H   0  0  0  0  0  0
  -25.0214  -21.9864   22.1333 H   0  0  0  0  0  0
  -24.3643  -19.8837   23.1161 H   0  0  0  0  0  0
  -25.6733  -18.7477   23.4571 H   0  0  0  0  0  0
  -24.6803  -18.5589   21.9991 H   0  0  0  0  0  0
  -25.8063  -23.6277   19.9939 H   0  0  0  0  0  0
  -27.1626  -23.0604   19.0864 H   0  0  0  0  0  0
  -27.4397  -18.0390   19.9292 H   0  0  0  0  0  0
  -26.7363  -17.6214   21.4420 H   0  0  0  0  0  0
  -29.7732  -15.1660   22.4966 H   0  0  0  0  0  0
  -31.0356  -16.1810   21.8822 H   0  0  0  0  0  0
  -28.5025  -23.9178   21.3045 H   0  0  0  0  0  0
  -27.1170  -24.9179   21.4857 H   0  0  0  0  0  0
  -28.2551  -15.8927   20.7334 H   0  0  0  0  0  0
  -29.5107  -16.6989   19.8275 H   0  0  0  0  0  0
  -27.9087  -25.2334   18.6923 H   0  0  0  0  0  0
  -29.3821  -25.0185   19.5514 H   0  0  0  0  0  0
  -28.6831  -17.5898   22.5069 H   0  0  0  0  0  0
  -29.5115  -18.4362   21.3748 H   0  0  0  0  0  0
  1 25  1  0  0  0
  1 30  2  0  0  0
  1 78  1  0  0  0
  2  3  1  0  0  0
  2 25  1  0  0  0
  2 84  1  0  0  0
  2 85  1  0  0  0
  3  4  1  0  0  0
  3 86  1  0  0  0
  3 87  1  0  0  0
  4  5  1  0  0  0
  4 88  1  0  0  0
  4 89  1  0  0  0
  5  6  1  0  0  0
  5 26  1  0  0  0
  5 90  1  0  0  0
  6 25  1  0  0  0
  6 91  1  0  0  0
  6 92  1  0  0  0
  7  8  2  0  0  0
  7 26  1  0  0  0
  7 29  1  0  0  0
  8  9  1  0  0  0
  8 22  1  0  0  0
  9 10  1  0  0  0
  9 27  2  0  0  0
 10 11  2  0  0  0
 10 15  1  0  0  0
 11 12  1  0  0  0
 11 93  1  0  0  0
 12 13  2  0  0  0
 12 94  1  0  0  0
 13 14  1  0  0  0
 13 31  1  0  0  0
 14 15  2  0  0  0
 14 95  1  0  0  0
 15 96  1  0  0  0
 16 17  2  0  0  0
 16 21  1  0  0  0
 16 31  1  0  0  0
 17 18  1  0  0  0
 17 97  1  0  0  0
 18 19  2  0  0  0
 18 98  1  0  0  0
 19 20  1  0  0  0
 19 24  1  0  0  0
 20 21  2  0  0  0
 20 99  1  0  0  0
 21 23  1  0  0  0
 22 28  1  0  0  0
 22 32  2  0  0  0
 26 27  1  0  0  0
 28100  1  0  0  0
 28101  1  0  0  0
 29102  1  0  0  0
 29103  1  0  0  0
 33 34  1  0  0  0
 33 66  1  0  0  0
 33 70  2  0  0  0
 34 36  1  0  0  0
 34 59  1  0  0  0
 34104  1  0  0  0
 35 44  2  0  0  0
 35 45  1  0  0  0
 35 68  1  0  0  0
 36 56  1  0  0  0
 36105  1  0  0  0
 37 39  1  0  0  0
 37 47  1  0  0  0
 37 66  1  0  0  0
 37106  1  0  0  0
 38 43  2  0  0  0
 38 46  1  0  0  0
 38 47  1  0  0  0
 39 64  1  0  0  0
 39 67  2  0  0  0
 40 52  1  0  0  0
 40 53  2  0  0  0
 40 58  1  0  0  0
 41107  1  0  0  0
 41108  1  0  0  0
 41109  1  0  0  0
 41 48  1  0  0  0
 42 43  1  0  0  0
 42 66  1  0  0  0
 42110  1  0  0  0
 42111  1  0  0  0
 43 44  1  0  0  0
 44112  1  0  0  0
 45 46  2  0  0  0
 45113  1  0  0  0
 46114  1  0  0  0
 47115  1  0  0  0
 47116  1  0  0  0
 48 56  1  0  0  0
 48 65  1  0  0  0
 48117  1  0  0  0
 49 50  1  0  0  0
 49 53  1  0  0  0
 49 64  1  0  0  0
 49118  1  0  0  0
 50 51  1  0  0  0
 50119  1  0  0  0
 50120  1  0  0  0
 51 52  1  0  0  0
 51121  1  0  0  0
 51122  1  0  0  0
 52123  1  0  0  0
 52124  1  0  0  0
 53 54  1  0  0  0
 54 55  2  0  0  0
 54125  1  0  0  0
 55 57  1  0  0  0
 55126  1  0  0  0
 56 69  2  0  0  0
 57 58  2  0  0  0
 57127  1  0  0  0
 58128  1  0  0  0
 59 60  1  0  0  0
 59 61  1  0  0  0
 59 62  1  0  0  0
 60129  1  0  0  0
 60130  1  0  0  0
 60131  1  0  0  0
 61132  1  0  0  0
 61133  1  0  0  0
 61134  1  0  0  0
 62135  1  0  0  0
 62136  1  0  0  0
 62137  1  0  0  0
 63 65  1  0  0  0
 63138  1  0  0  0
 63139  1  0  0  0
 63140  1  0  0  0
 64141  1  0  0  0
 65142  1  0  0  0
 68 81  1  0  0  0
 71 73  1  0  0  0
 71 74  2  0  0  0
 71143  1  0  0  0
 72 73  2  0  0  0
 72 82  1  0  0  0
 72144  1  0  0  0
 73 76  1  0  0  0
 74 77  1  0  0  0
 74 82  1  0  0  0
 75 82  1  0  0  0
 75145  1  0  0  0
 75146  1  0  0  0
 75147  1  0  0  0
 76 79  1  0  0  0
 76148  1  0  0  0
 76149  1  0  0  0
 77 83  1  0  0  0
 77150  1  0  0  0
 77151  1  0  0  0
 78 80  1  0  0  0
 78152  1  0  0  0
 78153  1  0  0  0
 79 81  1  0  0  0
 79154  1  0  0  0
 79155  1  0  0  0
 80 83  1  0  0  0
 80156  1  0  0  0
 80157  1  0  0  0
 81158  1  0  0  0
 81159  1  0  0  0
 83160  1  0  0  0
 83161  1  0  0  0
M  CHG  1  83   1
M  ISO  4   1 100  68 101  78 100  81 101
M  END
> <chiral flag>
0

> <version>
0

> <s_m_source_file>
/data/baiqing/PycharmProjects/Reinvent-master-3.2/result/LINK_invent/BTK/process_docking_weight1_custom_sum_contain_oxygen_bond_distance_aromatic_linkinvent_7_9_3/rearranged_h_0036.sdf

> <i_m_source_file_index>
37

> <r_mmod_Potential_Energy-OPLS-2005>
-256.775726318359

> <r_mmod_Stretch_Energy-OPLS-2005>
34.8064651489258

> <r_mmod_Bend_Energy-OPLS-2005>
103.652946472168

> <r_mmod_Torsional_Energy-OPLS-2005>
196.312683105469

> <r_mmod_Improper_Torsional_Energy-OPLS-2005>
7.66761064529419

> <r_mmod_Van_der_Waal_Energy-OPLS-2005>
128.78239440918

> <r_mmod_Electrostatic_Energy-OPLS-2005>
-281.519622802734

> <r_mmod_Solvation_Energy-OPLS-2005>
-459.443908691406

> <b_mmod_Minimization_Converged-OPLS-2005>
0

> <r_mmod_RMS_Derivative-OPLS-2005>
7.53109884262085

$$$$
38
                    3D
 Structure written by MMmdl.
156164  0  0  1  0            999 V2000
  -30.4358  -15.2703   20.3801 C   0  0  0  0  0  0
  -30.4372  -12.8082   19.5388 C   0  0  0  0  0  0
  -29.5390  -12.5912   18.2948 C   0  0  0  0  0  0
  -28.0801  -12.3225   18.7062 C   0  0  0  0  0  0
  -27.6122  -13.2826   19.8282 C   0  0  2  0  0  0
  -28.6448  -13.4552   20.9637 C   0  0  0  0  0  0
  -25.2368  -13.8265   20.5753 C   0  0  0  0  0  0
  -24.1729  -13.0442   20.9261 C   0  0  0  0  0  0
  -24.6403  -11.6947   20.8754 C   0  0  0  0  0  0
  -23.9102  -10.4300   21.0395 C   0  0  0  0  0  0
  -24.3643   -9.4221   21.9190 C   0  0  0  0  0  0
  -23.6311   -8.2258   22.0759 C   0  0  0  0  0  0
  -22.4289   -8.0292   21.3548 C   0  0  0  0  0  0
  -21.9932   -9.0273   20.4648 C   0  0  0  0  0  0
  -22.7262  -10.2154   20.3053 C   0  0  0  0  0  0
  -21.6876   -6.0733   22.5274 C   0  0  0  0  0  0
  -21.4032   -6.5637   23.8205 C   0  0  0  0  0  0
  -21.3665   -5.6787   24.9171 C   0  0  0  0  0  0
  -21.6046   -4.3049   24.7231 C   0  0  0  0  0  0
  -21.8821   -3.8141   23.4349 C   0  0  0  0  0  0
  -21.9202   -4.6959   22.3400 C   0  0  0  0  0  0
  -22.7741  -13.5191   21.1881 C   0  0  0  0  0  0
  -22.1668   -4.2135   21.0986 F   0  0  0  0  0  0
  -21.5633   -3.4543   25.7746 F   0  0  0  0  0  0
  -29.8800  -13.9595   20.3401 N   0  0  0  0  0  0
  -26.2811  -12.9558   20.3238 N   0  0  0  0  0  0
  -25.9343  -11.6654   20.5727 N   0  0  0  0  0  0
  -22.0425  -12.8176   22.0454 N   0  0  0  0  0  0
  -25.3975  -15.1997   20.4170 N   0  0  0  0  0  0
  -31.6549  -15.2774   20.1550 O   0  0  0  0  0  0
  -21.6654   -6.8884   21.4239 O   0  0  0  0  0  0
  -22.3418  -14.5500   20.6732 O   0  0  0  0  0  0
  -24.6627  -31.8237   23.1674 C   0  0  0  0  0  0
  -25.9300  -32.4594   23.8154 C   0  0  1  0  0  0
  -27.2246  -26.9198   20.1949 C   0  0  0  0  0  0
  -25.5980  -33.8406   24.2074 N   0  0  0  0  0  0
  -23.4786  -30.4309   21.5173 C   0  0  2  0  0  0
  -24.9353  -28.8124   20.1148 C   0  0  0  0  0  0
  -22.7656  -29.4448   22.4786 C   0  0  0  0  0  0
  -18.0339  -28.1409   22.8460 C   0  0  0  0  0  0
  -24.1504  -36.7221   23.2640 C   0  0  0  0  0  0
  -26.0469  -30.6264   21.3991 C   0  0  0  0  0  0
  -26.1180  -29.2129   20.7513 C   0  0  0  0  0  0
  -27.2549  -28.2852   20.7692 C   0  0  0  0  0  0
  -26.0161  -26.6762   19.5042 C   0  0  0  0  0  0
  -24.9100  -27.5640   19.4726 C   0  0  0  0  0  0
  -23.7199  -29.7376   20.1470 C   0  0  0  0  0  0
  -25.4140  -36.2972   24.0295 C   0  0  1  0  0  0
  -20.5953  -28.3770   23.1189 C   0  0  2  0  0  0
  -20.6813  -26.9454   22.5405 C   0  0  0  0  0  0
  -19.5794  -26.6388   21.5213 C   0  0  0  0  0  0
  -18.1973  -26.7947   22.1616 C   0  0  0  0  0  0
  -19.1590  -28.8911   23.2816 C   0  0  0  0  0  0
  -18.9498  -30.1497   23.8852 C   0  0  0  0  0  0
  -17.6485  -30.6592   24.0559 C   0  0  0  0  0  0
  -25.9105  -34.9351   23.5008 C   0  0  0  0  0  0
  -16.5379  -29.9069   23.6346 C   0  0  0  0  0  0
  -16.7321  -28.6499   23.0350 C   0  0  0  0  0  0
  -26.4563  -31.6523   25.0675 C   0  0  0  0  0  0
  -25.3683  -31.3765   26.1329 C   0  0  0  0  0  0
  -27.0464  -30.2889   24.6389 C   0  0  0  0  0  0
  -27.6080  -32.4300   25.7490 C   0  0  0  0  0  0
  -27.5580  -37.1761   24.8452 C   0  0  0  0  0  0
  -21.4326  -29.3051   22.3526 N   0  0  0  0  0  0
  -26.4292  -37.3704   23.9398 N   0  0  0  0  0  0
  -24.7507  -30.9867   22.0820 N   0  0  0  0  0  0
  -23.4193  -28.8022   23.3044 O   0  0  0  0  0  0
  -28.2251  -25.8130   20.2909 O   0  0  0  0  0  0
  -26.5711  -34.8874   22.4599 O   0  0  0  0  0  0
  -23.5698  -32.1225   23.6760 O   0  0  0  0  0  0
  -26.2270  -20.3486   18.6741 C   0  0  0  0  0  0
  -27.0810  -21.2671   19.2805 C   0  0  0  0  0  0
  -27.7362  -18.5831   19.2708 C   0  0  0  0  0  0
  -26.5577  -19.0033   18.6507 C   0  0  0  0  0  0
  -28.3130  -20.9810   19.9288 C   0  0  0  0  0  0
  -28.6694  -19.4105   19.9581 C   0  0  0  0  0  0
  -25.6793  -18.2307   16.4133 C   0  0  0  0  0  0
  -25.6522  -18.0173   17.9329 C   0  0  0  0  0  0
  -28.8353  -22.5917   20.3710 C   0  0  0  0  0  0
  -29.8118  -18.2116   20.4955 C   0  0  0  0  0  0
  -27.9705  -24.1884   20.0940 C   0  0  0  0  0  0
  -29.6535  -16.5291   20.4851 N   0  0  0  0  0  0
  -31.4617  -13.0020   19.2187 H   0  0  0  0  0  0
  -30.4920  -11.9010   20.1435 H   0  0  0  0  0  0
  -29.9195  -11.7734   17.6843 H   0  0  0  0  0  0
  -29.5749  -13.4856   17.6700 H   0  0  0  0  0  0
  -28.0064  -11.2892   19.0475 H   0  0  0  0  0  0
  -27.4235  -12.4023   17.8373 H   0  0  0  0  0  0
  -27.5264  -14.2541   19.3395 H   0  0  0  0  0  0
  -28.8078  -12.5245   21.5075 H   0  0  0  0  0  0
  -28.2873  -14.1836   21.6949 H   0  0  0  0  0  0
  -25.2781   -9.5690   22.4775 H   0  0  0  0  0  0
  -24.0012   -7.4644   22.7486 H   0  0  0  0  0  0
  -21.0870   -8.8804   19.8946 H   0  0  0  0  0  0
  -22.3730  -10.9703   19.6171 H   0  0  0  0  0  0
  -21.2035   -7.6140   23.9709 H   0  0  0  0  0  0
  -21.1482   -6.0515   25.9073 H   0  0  0  0  0  0
  -22.0593   -2.7600   23.2855 H   0  0  0  0  0  0
  -22.4058  -11.9830   22.4807 H   0  0  0  0  0  0
  -21.1052  -13.1192   22.2691 H   0  0  0  0  0  0
  -24.6272  -15.8475   20.5323 H   0  0  0  0  0  0
  -26.2283  -15.6390   20.0469 H   0  0  0  0  0  0
  -26.7362  -32.5130   23.0868 H   0  0  0  0  0  0
  -25.0064  -33.9500   25.0180 H   0  0  0  0  0  0
  -22.7950  -31.2638   21.3397 H   0  0  0  0  0  0
  -23.3777  -35.9541   23.3250 H   0  0  0  0  0  0
  -24.3593  -36.8922   22.2066 H   0  0  0  0  0  0
  -23.7253  -37.6387   23.6732 H   0  0  0  0  0  0
  -26.2184  -31.3624   20.6122 H   0  0  0  0  0  0
  -26.9115  -30.6955   22.0482 H   0  0  0  0  0  0
  -28.1460  -28.5806   21.3045 H   0  0  0  0  0  0
  -25.8902  -25.7232   19.0103 H   0  0  0  0  0  0
  -24.0087  -27.2524   18.9618 H   0  0  0  0  0  0
  -23.8709  -30.5002   19.3831 H   0  0  0  0  0  0
  -22.8312  -29.1848   19.8372 H   0  0  0  0  0  0
  -25.1342  -36.1762   25.0789 H   0  0  0  0  0  0
  -21.0061  -28.3377   24.1305 H   0  0  0  0  0  0
  -20.5705  -26.2387   23.3635 H   0  0  0  0  0  0
  -21.6673  -26.7437   22.1202 H   0  0  0  0  0  0
  -19.6958  -25.6286   21.1270 H   0  0  0  0  0  0
  -19.6719  -27.3178   20.6717 H   0  0  0  0  0  0
  -17.4239  -26.6706   21.4011 H   0  0  0  0  0  0
  -18.0362  -26.0100   22.9022 H   0  0  0  0  0  0
  -19.7966  -30.7341   24.2187 H   0  0  0  0  0  0
  -17.5027  -31.6266   24.5174 H   0  0  0  0  0  0
  -15.5371  -30.2944   23.7700 H   0  0  0  0  0  0
  -15.8729  -28.0801   22.7069 H   0  0  0  0  0  0
  -24.5894  -30.7099   25.7604 H   0  0  0  0  0  0
  -24.8850  -32.2971   26.4608 H   0  0  0  0  0  0
  -25.7908  -30.9007   27.0192 H   0  0  0  0  0  0
  -26.3127  -29.6553   24.1399 H   0  0  0  0  0  0
  -27.4018  -29.7252   25.5026 H   0  0  0  0  0  0
  -27.9055  -30.4078   23.9788 H   0  0  0  0  0  0
  -27.2686  -33.3641   26.1975 H   0  0  0  0  0  0
  -28.3962  -32.6782   25.0369 H   0  0  0  0  0  0
  -28.0676  -31.8471   26.5487 H   0  0  0  0  0  0
  -28.2556  -38.0095   24.7528 H   0  0  0  0  0  0
  -28.1123  -36.2624   24.6247 H   0  0  0  0  0  0
  -27.2306  -37.1355   25.8856 H   0  0  0  0  0  0
  -20.9578  -29.8710   21.6627 H   0  0  0  0  0  0
  -26.0138  -38.2765   24.1391 H   0  0  0  0  0  0
  -25.3201  -20.6935   18.1974 H   0  0  0  0  0  0
  -26.7170  -22.2743   19.2011 H   0  0  0  0  0  0
  -27.9154  -17.5239   19.1797 H   0  0  0  0  0  0
  -25.0766  -17.4753   15.9069 H   0  0  0  0  0  0
  -26.6947  -18.1653   16.0206 H   0  0  0  0  0  0
  -25.2790  -19.2091   16.1420 H   0  0  0  0  0  0
  -24.6346  -18.1470   18.3043 H   0  0  0  0  0  0
  -25.9334  -16.9895   18.1700 H   0  0  0  0  0  0
  -29.8213  -22.7011   19.9219 H   0  0  0  0  0  0
  -29.0331  -22.5336   21.4412 H   0  0  0  0  0  0
  -30.0179  -18.4677   21.5351 H   0  0  0  0  0  0
  -30.7468  -18.4287   19.9765 H   0  0  0  0  0  0
  -27.0168  -24.0529   20.6058 H   0  0  0  0  0  0
  -27.7218  -24.1673   19.0342 H   0  0  0  0  0  0
  -28.6877  -16.2830   20.6405 H   0  0  0  0  0  0
  1 25  1  0  0  0
  1 30  2  0  0  0
  1 82  1  0  0  0
  2  3  1  0  0  0
  2 25  1  0  0  0
  2 83  1  0  0  0
  2 84  1  0  0  0
  3  4  1  0  0  0
  3 85  1  0  0  0
  3 86  1  0  0  0
  4  5  1  0  0  0
  4 87  1  0  0  0
  4 88  1  0  0  0
  5  6  1  0  0  0
  5 26  1  0  0  0
  5 89  1  0  0  0
  6 25  1  0  0  0
  6 90  1  0  0  0
  6 91  1  0  0  0
  7  8  2  0  0  0
  7 26  1  0  0  0
  7 29  1  0  0  0
  8  9  1  0  0  0
  8 22  1  0  0  0
  9 10  1  0  0  0
  9 27  2  0  0  0
 10 11  2  0  0  0
 10 15  1  0  0  0
 11 12  1  0  0  0
 11 92  1  0  0  0
 12 13  2  0  0  0
 12 93  1  0  0  0
 13 14  1  0  0  0
 13 31  1  0  0  0
 14 15  2  0  0  0
 14 94  1  0  0  0
 15 95  1  0  0  0
 16 17  2  0  0  0
 16 21  1  0  0  0
 16 31  1  0  0  0
 17 18  1  0  0  0
 17 96  1  0  0  0
 18 19  2  0  0  0
 18 97  1  0  0  0
 19 20  1  0  0  0
 19 24  1  0  0  0
 20 21  2  0  0  0
 20 98  1  0  0  0
 21 23  1  0  0  0
 22 28  1  0  0  0
 22 32  2  0  0  0
 26 27  1  0  0  0
 28 99  1  0  0  0
 28100  1  0  0  0
 29101  1  0  0  0
 29102  1  0  0  0
 33 34  1  0  0  0
 33 66  1  0  0  0
 33 70  2  0  0  0
 34 36  1  0  0  0
 34 59  1  0  0  0
 34103  1  0  0  0
 35 44  2  0  0  0
 35 45  1  0  0  0
 35 68  1  0  0  0
 36 56  1  0  0  0
 36104  1  0  0  0
 37 39  1  0  0  0
 37 47  1  0  0  0
 37 66  1  0  0  0
 37105  1  0  0  0
 38 43  2  0  0  0
 38 46  1  0  0  0
 38 47  1  0  0  0
 39 64  1  0  0  0
 39 67  2  0  0  0
 40 52  1  0  0  0
 40 53  2  0  0  0
 40 58  1  0  0  0
 41106  1  0  0  0
 41107  1  0  0  0
 41108  1  0  0  0
 41 48  1  0  0  0
 42 43  1  0  0  0
 42 66  1  0  0  0
 42109  1  0  0  0
 42110  1  0  0  0
 43 44  1  0  0  0
 44111  1  0  0  0
 45 46  2  0  0  0
 45112  1  0  0  0
 46113  1  0  0  0
 47114  1  0  0  0
 47115  1  0  0  0
 48 56  1  0  0  0
 48 65  1  0  0  0
 48116  1  0  0  0
 49 50  1  0  0  0
 49 53  1  0  0  0
 49 64  1  0  0  0
 49117  1  0  0  0
 50 51  1  0  0  0
 50118  1  0  0  0
 50119  1  0  0  0
 51 52  1  0  0  0
 51120  1  0  0  0
 51121  1  0  0  0
 52122  1  0  0  0
 52123  1  0  0  0
 53 54  1  0  0  0
 54 55  2  0  0  0
 54124  1  0  0  0
 55 57  1  0  0  0
 55125  1  0  0  0
 56 69  2  0  0  0
 57 58  2  0  0  0
 57126  1  0  0  0
 58127  1  0  0  0
 59 60  1  0  0  0
 59 61  1  0  0  0
 59 62  1  0  0  0
 60128  1  0  0  0
 60129  1  0  0  0
 60130  1  0  0  0
 61131  1  0  0  0
 61132  1  0  0  0
 61133  1  0  0  0
 62134  1  0  0  0
 62135  1  0  0  0
 62136  1  0  0  0
 63 65  1  0  0  0
 63137  1  0  0  0
 63138  1  0  0  0
 63139  1  0  0  0
 64140  1  0  0  0
 65141  1  0  0  0
 68 81  1  0  0  0
 71 72  2  0  0  0
 71 74  1  0  0  0
 71142  1  0  0  0
 72 75  1  0  0  0
 72143  1  0  0  0
 73 74  2  0  0  0
 73 76  1  0  0  0
 73144  1  0  0  0
 74 78  1  0  0  0
 75 76  2  0  0  0
 75 79  1  0  0  0
 76 80  1  0  0  0
 77 78  1  0  0  0
 77145  1  0  0  0
 77146  1  0  0  0
 77147  1  0  0  0
 78148  1  0  0  0
 78149  1  0  0  0
 79 81  1  0  0  0
 79150  1  0  0  0
 79151  1  0  0  0
 80 82  1  0  0  0
 80152  1  0  0  0
 80153  1  0  0  0
 81154  1  0  0  0
 81155  1  0  0  0
 82156  1  0  0  0
M  ISO  4   1 100  68 101  81 101  82 100
M  END
> <chiral flag>
0

> <version>
0

> <s_m_source_file>
/data/baiqing/PycharmProjects/Reinvent-master-3.2/result/LINK_invent/BTK/process_docking_weight1_custom_sum_contain_oxygen_bond_distance_aromatic_linkinvent_7_9_3/rearranged_h_0036.sdf

> <i_m_source_file_index>
38

> <r_mmod_Potential_Energy-OPLS-2005>
1403.42541503906

> <r_mmod_Stretch_Energy-OPLS-2005>
665.471557617188

> <r_mmod_Bend_Energy-OPLS-2005>
537.809448242188

> <r_mmod_Torsional_Energy-OPLS-2005>
201.288131713867

> <r_mmod_Improper_Torsional_Energy-OPLS-2005>
3.86109828948975

> <r_mmod_Van_der_Waal_Energy-OPLS-2005>
133.21826171875

> <r_mmod_Electrostatic_Energy-OPLS-2005>
-394.366027832031

> <r_mmod_Solvation_Energy-OPLS-2005>
-211.557510375977

> <b_mmod_Minimization_Converged-OPLS-2005>
0

> <r_mmod_RMS_Derivative-OPLS-2005>
2.85971641540527

$$$$
39
                    3D
 Structure written by MMmdl.
158166  0  0  1  0            999 V2000
  -30.5905  -14.8594   20.4257 C   0  0  0  0  0  0
  -30.4320  -12.5294   19.4896 C   0  0  0  0  0  0
  -29.5149  -12.5173   18.2460 C   0  0  0  0  0  0
  -28.0446  -12.3259   18.6617 C   0  0  0  0  0  0
  -27.6346  -13.2459   19.8426 C   0  0  2  0  0  0
  -28.6782  -13.2443   20.9809 C   0  0  0  0  0  0
  -25.2475  -13.8224   20.5706 C   0  0  0  0  0  0
  -24.1785  -13.0447   20.9215 C   0  0  0  0  0  0
  -24.6397  -11.6933   20.8754 C   0  0  0  0  0  0
  -23.9085  -10.4302   21.0406 C   0  0  0  0  0  0
  -24.3636   -9.4218   21.9185 C   0  0  0  0  0  0
  -23.6310   -8.2252   22.0755 C   0  0  0  0  0  0
  -22.4294   -8.0294   21.3539 C   0  0  0  0  0  0
  -21.9937   -9.0267   20.4642 C   0  0  0  0  0  0
  -22.7263  -10.2145   20.3052 C   0  0  0  0  0  0
  -21.6861   -6.0747   22.5280 C   0  0  0  0  0  0
  -21.4019   -6.5642   23.8218 C   0  0  0  0  0  0
  -21.3663   -5.6793   24.9173 C   0  0  0  0  0  0
  -21.6046   -4.3057   24.7219 C   0  0  0  0  0  0
  -21.8812   -3.8150   23.4339 C   0  0  0  0  0  0
  -21.9189   -4.6969   22.3402 C   0  0  0  0  0  0
  -22.7800  -13.5222   21.1857 C   0  0  0  0  0  0
  -22.1656   -4.2157   21.0977 F   0  0  0  0  0  0
  -21.5632   -3.4540   25.7730 F   0  0  0  0  0  0
  -29.9644  -13.6228   20.3854 N   0  0  0  0  0  0
  -26.2908  -12.9459   20.3262 N   0  0  0  0  0  0
  -25.9337  -11.6589   20.5753 N   0  0  0  0  0  0
  -22.0441  -12.8226   22.0417 N   0  0  0  0  0  0
  -25.4129  -15.1954   20.4122 N   0  0  0  0  0  0
  -31.7872  -14.9067   20.1252 O   0  0  0  0  0  0
  -21.6652   -6.8893   21.4247 O   0  0  0  0  0  0
  -22.3485  -14.5517   20.6683 O   0  0  0  0  0  0
  -24.6397  -31.8483   23.1922 C   0  0  0  0  0  0
  -25.9191  -32.4711   23.8294 C   0  0  1  0  0  0
  -27.2129  -27.1783   20.1446 C   0  0  0  0  0  0
  -25.5956  -33.8514   24.2215 N   0  0  0  0  0  0
  -23.4401  -30.4706   21.5373 C   0  0  2  0  0  0
  -24.8861  -28.9030   20.1137 C   0  0  0  0  0  0
  -22.7542  -29.4574   22.4875 C   0  0  0  0  0  0
  -18.0306  -28.1394   22.8484 C   0  0  0  0  0  0
  -24.1495  -36.7259   23.2638 C   0  0  0  0  0  0
  -25.9932  -30.7362   21.3830 C   0  0  0  0  0  0
  -26.0636  -29.3514   20.7245 C   0  0  0  0  0  0
  -27.2297  -28.5059   20.7216 C   0  0  0  0  0  0
  -26.0064  -26.8170   19.5053 C   0  0  0  0  0  0
  -24.8670  -27.6470   19.4906 C   0  0  0  0  0  0
  -23.6648  -29.8043   20.1548 C   0  0  0  0  0  0
  -25.4120  -36.3037   24.0322 C   0  0  1  0  0  0
  -20.5913  -28.3721   23.1243 C   0  0  2  0  0  0
  -20.6796  -26.9429   22.5404 C   0  0  0  0  0  0
  -19.5773  -26.6383   21.5212 C   0  0  0  0  0  0
  -18.1952  -26.7936   22.1621 C   0  0  0  0  0  0
  -19.1558  -28.8874   23.2859 C   0  0  0  0  0  0
  -18.9474  -30.1467   23.8891 C   0  0  0  0  0  0
  -17.6471  -30.6592   24.0561 C   0  0  0  0  0  0
  -25.9070  -34.9414   23.5074 C   0  0  0  0  0  0
  -16.5364  -29.9087   23.6329 C   0  0  0  0  0  0
  -16.7290  -28.6500   23.0361 C   0  0  0  0  0  0
  -26.4524  -31.6557   25.0717 C   0  0  0  0  0  0
  -25.3711  -31.3732   26.1413 C   0  0  0  0  0  0
  -27.0380  -30.2959   24.6260 C   0  0  0  0  0  0
  -27.6078  -32.4291   25.7498 C   0  0  0  0  0  0
  -27.5578  -37.1782   24.8460 C   0  0  0  0  0  0
  -21.4241  -29.3055   22.3619 N   0  0  0  0  0  0
  -26.4284  -37.3748   23.9413 N   0  0  0  0  0  0
  -24.7110  -31.0372   22.0938 N   0  0  0  0  0  0
  -23.4204  -28.8114   23.3007 O   0  0  0  0  0  0
  -28.2859  -26.2302   20.1956 O   0  0  0  0  0  0
  -26.5647  -34.8908   22.4647 O   0  0  0  0  0  0
  -23.5525  -32.1348   23.7160 O   0  0  0  0  0  0
  -29.7891  -19.7717   21.5602 C   0  0  0  0  0  0
  -29.2065  -19.7873   19.2900 C   0  0  0  0  0  0
  -29.6712  -18.9786   20.3809 C   0  0  0  0  0  0
  -29.5444  -21.1990   21.5855 C   0  0  0  0  0  0
  -29.1330  -21.9361   20.4200 C   0  0  0  0  0  0
  -31.6552  -23.2527   24.1350 C   0  0  0  0  0  0
  -29.8577  -21.9339   22.8806 C   0  0  0  0  0  0
  -30.3501  -17.4936   20.1935 C   0  0  0  0  0  0
  -29.2307  -23.5751   20.2839 C   0  0  0  0  0  0
  -31.3518  -22.2861   22.9861 C   0  0  0  0  0  0
  -28.0275  -24.7070   20.1756 C   0  0  0  0  0  0
  -28.9573  -21.1572   19.3050 N   0  0  0  0  0  0
  -29.8585  -16.0596   20.5641 N   0  0  0  0  0  0
  -31.4704  -12.6610   19.1798 H   0  0  0  0  0  0
  -30.3993  -11.5691   20.0063 H   0  0  0  0  0  0
  -29.8172  -11.7248   17.5593 H   0  0  0  0  0  0
  -29.6222  -13.4555   17.6989 H   0  0  0  0  0  0
  -27.9181  -11.2816   18.9486 H   0  0  0  0  0  0
  -27.3845  -12.4876   17.8085 H   0  0  0  0  0  0
  -27.6111  -14.2555   19.4314 H   0  0  0  0  0  0
  -28.7427  -12.2644   21.4568 H   0  0  0  0  0  0
  -28.3977  -13.9527   21.7620 H   0  0  0  0  0  0
  -25.2776   -9.5703   22.4763 H   0  0  0  0  0  0
  -24.0017   -7.4651   22.7488 H   0  0  0  0  0  0
  -21.0862   -8.8791   19.8957 H   0  0  0  0  0  0
  -22.3720  -10.9686   19.6164 H   0  0  0  0  0  0
  -21.2024   -7.6153   23.9723 H   0  0  0  0  0  0
  -21.1492   -6.0521   25.9077 H   0  0  0  0  0  0
  -22.0588   -2.7613   23.2831 H   0  0  0  0  0  0
  -22.4065  -11.9917   22.4854 H   0  0  0  0  0  0
  -21.1050  -13.1238   22.2586 H   0  0  0  0  0  0
  -24.6414  -15.8442   20.5277 H   0  0  0  0  0  0
  -26.2528  -15.6395   20.0637 H   0  0  0  0  0  0
  -26.7258  -32.5335   23.1027 H   0  0  0  0  0  0
  -25.0096  -33.9625   25.0357 H   0  0  0  0  0  0
  -22.7419  -31.2964   21.3863 H   0  0  0  0  0  0
  -23.3765  -35.9583   23.3278 H   0  0  0  0  0  0
  -24.3595  -36.8907   22.2060 H   0  0  0  0  0  0
  -23.7242  -37.6449   23.6682 H   0  0  0  0  0  0
  -26.1422  -31.4923   20.6114 H   0  0  0  0  0  0
  -26.8669  -30.7848   22.0216 H   0  0  0  0  0  0
  -28.1292  -28.8457   21.2155 H   0  0  0  0  0  0
  -25.9070  -25.8587   19.0204 H   0  0  0  0  0  0
  -23.9655  -27.2983   19.0057 H   0  0  0  0  0  0
  -23.8058  -30.5821   19.4037 H   0  0  0  0  0  0
  -22.7795  -29.2507   19.8383 H   0  0  0  0  0  0
  -25.1300  -36.1873   25.0813 H   0  0  0  0  0  0
  -21.0005  -28.3318   24.1365 H   0  0  0  0  0  0
  -20.5711  -26.2333   23.3617 H   0  0  0  0  0  0
  -21.6664  -26.7460   22.1189 H   0  0  0  0  0  0
  -19.6938  -25.6287   21.1262 H   0  0  0  0  0  0
  -19.6708  -27.3179   20.6732 H   0  0  0  0  0  0
  -17.4221  -26.6688   21.4021 H   0  0  0  0  0  0
  -18.0347  -26.0076   22.9017 H   0  0  0  0  0  0
  -19.7948  -30.7281   24.2266 H   0  0  0  0  0  0
  -17.5025  -31.6272   24.5163 H   0  0  0  0  0  0
  -15.5363  -30.2990   23.7645 H   0  0  0  0  0  0
  -15.8693  -28.0807   22.7088 H   0  0  0  0  0  0
  -24.5905  -30.7065   25.7726 H   0  0  0  0  0  0
  -24.8882  -32.2910   26.4779 H   0  0  0  0  0  0
  -25.7994  -30.8943   27.0228 H   0  0  0  0  0  0
  -26.2985  -29.6687   24.1276 H   0  0  0  0  0  0
  -27.4025  -29.7247   25.4809 H   0  0  0  0  0  0
  -27.8881  -30.4208   23.9550 H   0  0  0  0  0  0
  -27.2701  -33.3603   26.2054 H   0  0  0  0  0  0
  -28.3910  -32.6817   25.0338 H   0  0  0  0  0  0
  -28.0728  -31.8424   26.5431 H   0  0  0  0  0  0
  -28.2569  -38.0102   24.7523 H   0  0  0  0  0  0
  -28.1098  -36.2632   24.6259 H   0  0  0  0  0  0
  -27.2304  -37.1397   25.8864 H   0  0  0  0  0  0
  -20.9441  -29.8755   21.6793 H   0  0  0  0  0  0
  -26.0154  -38.2814   24.1429 H   0  0  0  0  0  0
  -30.1857  -19.3017   22.4498 H   0  0  0  0  0  0
  -29.1200  -19.3334   18.3142 H   0  0  0  0  0  0
  -32.7281  -23.4249   24.2241 H   0  0  0  0  0  0
  -31.3004  -22.8644   25.0900 H   0  0  0  0  0  0
  -31.1809  -24.2206   23.9681 H   0  0  0  0  0  0
  -29.5705  -21.3094   23.7284 H   0  0  0  0  0  0
  -29.2382  -22.8275   22.9610 H   0  0  0  0  0  0
  -31.3271  -17.5839   20.6696 H   0  0  0  0  0  0
  -30.5882  -17.4305   19.1305 H   0  0  0  0  0  0
  -29.8559  -23.7329   19.4054 H   0  0  0  0  0  0
  -29.8655  -23.9174   21.0968 H   0  0  0  0  0  0
  -31.9349  -21.3723   23.1094 H   0  0  0  0  0  0
  -31.6963  -22.7401   22.0557 H   0  0  0  0  0  0
  -27.3241  -24.5070   20.9846 H   0  0  0  0  0  0
  -27.4958  -24.4701   19.2555 H   0  0  0  0  0  0
  -28.8820  -15.9623   20.7979 H   0  0  0  0  0  0
  1 25  1  0  0  0
  1 30  2  0  0  0
  1 83  1  0  0  0
  2  3  1  0  0  0
  2 25  1  0  0  0
  2 84  1  0  0  0
  2 85  1  0  0  0
  3  4  1  0  0  0
  3 86  1  0  0  0
  3 87  1  0  0  0
  4  5  1  0  0  0
  4 88  1  0  0  0
  4 89  1  0  0  0
  5  6  1  0  0  0
  5 26  1  0  0  0
  5 90  1  0  0  0
  6 25  1  0  0  0
  6 91  1  0  0  0
  6 92  1  0  0  0
  7  8  2  0  0  0
  7 26  1  0  0  0
  7 29  1  0  0  0
  8  9  1  0  0  0
  8 22  1  0  0  0
  9 10  1  0  0  0
  9 27  2  0  0  0
 10 11  2  0  0  0
 10 15  1  0  0  0
 11 12  1  0  0  0
 11 93  1  0  0  0
 12 13  2  0  0  0
 12 94  1  0  0  0
 13 14  1  0  0  0
 13 31  1  0  0  0
 14 15  2  0  0  0
 14 95  1  0  0  0
 15 96  1  0  0  0
 16 17  2  0  0  0
 16 21  1  0  0  0
 16 31  1  0  0  0
 17 18  1  0  0  0
 17 97  1  0  0  0
 18 19  2  0  0  0
 18 98  1  0  0  0
 19 20  1  0  0  0
 19 24  1  0  0  0
 20 21  2  0  0  0
 20 99  1  0  0  0
 21 23  1  0  0  0
 22 28  1  0  0  0
 22 32  2  0  0  0
 26 27  1  0  0  0
 28100  1  0  0  0
 28101  1  0  0  0
 29102  1  0  0  0
 29103  1  0  0  0
 33 34  1  0  0  0
 33 66  1  0  0  0
 33 70  2  0  0  0
 34 36  1  0  0  0
 34 59  1  0  0  0
 34104  1  0  0  0
 35 44  2  0  0  0
 35 45  1  0  0  0
 35 68  1  0  0  0
 36 56  1  0  0  0
 36105  1  0  0  0
 37 39  1  0  0  0
 37 47  1  0  0  0
 37 66  1  0  0  0
 37106  1  0  0  0
 38 43  2  0  0  0
 38 46  1  0  0  0
 38 47  1  0  0  0
 39 64  1  0  0  0
 39 67  2  0  0  0
 40 52  1  0  0  0
 40 53  2  0  0  0
 40 58  1  0  0  0
 41107  1  0  0  0
 41108  1  0  0  0
 41109  1  0  0  0
 41 48  1  0  0  0
 42 43  1  0  0  0
 42 66  1  0  0  0
 42110  1  0  0  0
 42111  1  0  0  0
 43 44  1  0  0  0
 44112  1  0  0  0
 45 46  2  0  0  0
 45113  1  0  0  0
 46114  1  0  0  0
 47115  1  0  0  0
 47116  1  0  0  0
 48 56  1  0  0  0
 48 65  1  0  0  0
 48117  1  0  0  0
 49 50  1  0  0  0
 49 53  1  0  0  0
 49 64  1  0  0  0
 49118  1  0  0  0
 50 51  1  0  0  0
 50119  1  0  0  0
 50120  1  0  0  0
 51 52  1  0  0  0
 51121  1  0  0  0
 51122  1  0  0  0
 52123  1  0  0  0
 52124  1  0  0  0
 53 54  1  0  0  0
 54 55  2  0  0  0
 54125  1  0  0  0
 55 57  1  0  0  0
 55126  1  0  0  0
 56 69  2  0  0  0
 57 58  2  0  0  0
 57127  1  0  0  0
 58128  1  0  0  0
 59 60  1  0  0  0
 59 61  1  0  0  0
 59 62  1  0  0  0
 60129  1  0  0  0
 60130  1  0  0  0
 60131  1  0  0  0
 61132  1  0  0  0
 61133  1  0  0  0
 61134  1  0  0  0
 62135  1  0  0  0
 62136  1  0  0  0
 62137  1  0  0  0
 63 65  1  0  0  0
 63138  1  0  0  0
 63139  1  0  0  0
 63140  1  0  0  0
 64141  1  0  0  0
 65142  1  0  0  0
 68 81  1  0  0  0
 71 73  2  0  0  0
 71 74  1  0  0  0
 71143  1  0  0  0
 72 73  1  0  0  0
 72 82  2  0  0  0
 72144  1  0  0  0
 73 78  1  0  0  0
 74 75  2  0  0  0
 74 77  1  0  0  0
 75 79  1  0  0  0
 75 82  1  0  0  0
 76 80  1  0  0  0
 76145  1  0  0  0
 76146  1  0  0  0
 76147  1  0  0  0
 77 80  1  0  0  0
 77148  1  0  0  0
 77149  1  0  0  0
 78 83  1  0  0  0
 78150  1  0  0  0
 78151  1  0  0  0
 79 81  1  0  0  0
 79152  1  0  0  0
 79153  1  0  0  0
 80154  1  0  0  0
 80155  1  0  0  0
 81156  1  0  0  0
 81157  1  0  0  0
 83158  1  0  0  0
M  ISO  4   1 100  68 101  81 101  83 100
M  END
> <chiral flag>
0

> <version>
0

> <s_m_source_file>
/data/baiqing/PycharmProjects/Reinvent-master-3.2/result/LINK_invent/BTK/process_docking_weight1_custom_sum_contain_oxygen_bond_distance_aromatic_linkinvent_7_9_3/rearranged_h_0036.sdf

> <i_m_source_file_index>
39

> <r_mmod_Potential_Energy-OPLS-2005>
243.699523925781

> <r_mmod_Stretch_Energy-OPLS-2005>
194.26789855957

> <r_mmod_Bend_Energy-OPLS-2005>
239.65234375

> <r_mmod_Torsional_Energy-OPLS-2005>
221.848587036133

> <r_mmod_Improper_Torsional_Energy-OPLS-2005>
11.0186462402344

> <r_mmod_Van_der_Waal_Energy-OPLS-2005>
136.156890869141

> <r_mmod_Electrostatic_Energy-OPLS-2005>
-478.938690185547

> <r_mmod_Solvation_Energy-OPLS-2005>
-223.24983215332

> <b_mmod_Minimization_Converged-OPLS-2005>
0

> <r_mmod_RMS_Derivative-OPLS-2005>
1.38697969913483

$$$$
40
                    3D
 Structure written by MMmdl.
161169  0  0  1  0            999 V2000
  -30.7277  -14.4128   20.6760 C   0  0  0  0  0  0
  -30.4102  -12.3531   19.3506 C   0  0  0  0  0  0
  -29.4509  -12.6113   18.1695 C   0  0  0  0  0  0
  -27.9838  -12.4300   18.6093 C   0  0  0  0  0  0
  -27.6564  -13.2114   19.9073 C   0  0  2  0  0  0
  -28.7093  -12.9161   20.9943 C   0  0  0  0  0  0
  -25.2489  -13.8072   20.5787 C   0  0  0  0  0  0
  -24.1724  -13.0284   20.9200 C   0  0  0  0  0  0
  -24.6298  -11.6783   20.8696 C   0  0  0  0  0  0
  -23.8969  -10.4151   21.0333 C   0  0  0  0  0  0
  -24.3524   -9.4160   21.9170 C   0  0  0  0  0  0
  -23.6214   -8.2183   22.0744 C   0  0  0  0  0  0
  -22.4249   -8.0156   21.3473 C   0  0  0  0  0  0
  -21.9817   -9.0128   20.4667 C   0  0  0  0  0  0
  -22.7104  -10.2020   20.3059 C   0  0  0  0  0  0
  -21.6905   -6.0651   22.5261 C   0  0  0  0  0  0
  -21.4012   -6.5538   23.8188 C   0  0  0  0  0  0
  -21.3685   -5.6723   24.9155 C   0  0  0  0  0  0
  -21.6076   -4.2984   24.7270 C   0  0  0  0  0  0
  -21.8811   -3.8057   23.4388 C   0  0  0  0  0  0
  -21.9171   -4.6849   22.3426 C   0  0  0  0  0  0
  -22.7750  -13.5094   21.1907 C   0  0  0  0  0  0
  -22.1669   -4.1996   21.1003 F   0  0  0  0  0  0
  -21.5675   -3.4518   25.7799 F   0  0  0  0  0  0
  -30.0261  -13.2747   20.4313 N   0  0  0  0  0  0
  -26.2975  -12.9289   20.3533 N   0  0  0  0  0  0
  -25.9244  -11.6427   20.5801 N   0  0  0  0  0  0
  -22.0517  -12.8028   22.0552 N   0  0  0  0  0  0
  -25.4082  -15.1828   20.4304 N   0  0  0  0  0  0
  -31.8349  -14.6509   20.1926 O   0  0  0  0  0  0
  -21.6631   -6.8748   21.4207 O   0  0  0  0  0  0
  -22.3415  -14.5417   20.6870 O   0  0  0  0  0  0
  -24.6253  -31.8634   23.2067 C   0  0  0  0  0  0
  -25.9123  -32.4771   23.8421 C   0  0  1  0  0  0
  -27.2504  -27.4289   20.0023 C   0  0  0  0  0  0
  -25.6035  -33.8558   24.2380 N   0  0  0  0  0  0
  -23.4090  -30.4831   21.5555 C   0  0  2  0  0  0
  -24.8586  -28.9596   20.0906 C   0  0  0  0  0  0
  -22.7397  -29.4667   22.5091 C   0  0  0  0  0  0
  -18.0286  -28.1437   22.8494 C   0  0  0  0  0  0
  -24.1554  -36.7278   23.2642 C   0  0  0  0  0  0
  -25.9436  -30.8188   21.3662 C   0  0  0  0  0  0
  -26.0297  -29.4697   20.6689 C   0  0  0  0  0  0
  -27.2322  -28.7178   20.6151 C   0  0  0  0  0  0
  -26.0624  -26.9537   19.4053 C   0  0  0  0  0  0
  -24.8742  -27.7018   19.4697 C   0  0  0  0  0  0
  -23.5994  -29.7998   20.1774 C   0  0  0  0  0  0
  -25.4171  -36.3070   24.0337 C   0  0  1  0  0  0
  -20.5823  -28.3745   23.1348 C   0  0  2  0  0  0
  -20.6727  -26.9390   22.5576 C   0  0  0  0  0  0
  -19.5671  -26.6233   21.5381 C   0  0  0  0  0  0
  -18.1851  -26.7941   22.1702 C   0  0  0  0  0  0
  -19.1508  -28.8922   23.2885 C   0  0  0  0  0  0
  -18.9502  -30.1617   23.8715 C   0  0  0  0  0  0
  -17.6522  -30.6656   24.0556 C   0  0  0  0  0  0
  -25.9078  -34.9419   23.5120 C   0  0  0  0  0  0
  -16.5406  -29.9124   23.6445 C   0  0  0  0  0  0
  -16.7241  -28.6543   23.0373 C   0  0  0  0  0  0
  -26.4622  -31.6459   25.0715 C   0  0  0  0  0  0
  -25.3945  -31.3507   26.1459 C   0  0  0  0  0  0
  -27.0398  -30.2878   24.6125 C   0  0  0  0  0  0
  -27.6154  -32.4210   25.7445 C   0  0  0  0  0  0
  -27.5573  -37.1791   24.8469 C   0  0  0  0  0  0
  -21.4097  -29.3111   22.3765 N   0  0  0  0  0  0
  -26.4397  -37.3696   23.9362 N   0  0  0  0  0  0
  -24.6741  -31.0624   22.1013 N   0  0  0  0  0  0
  -23.4088  -28.8208   23.3160 O   0  0  0  0  0  0
  -28.2744  -26.5105   20.1764 O   0  0  0  0  0  0
  -26.5554  -34.9008   22.4675 O   0  0  0  0  0  0
  -23.5456  -32.1406   23.7473 O   0  0  0  0  0  0
  -26.6026  -23.7244   21.8943 C   0  0  0  0  0  0
  -28.9015  -23.1945   21.4888 C   0  0  0  0  0  0
  -26.3998  -22.4166   22.3298 C   0  0  0  0  0  0
  -27.8748  -24.1860   21.5004 C   0  0  0  0  0  0
  -28.5707  -21.8699   21.9119 C   0  0  0  0  0  0
  -28.2924  -26.4827   22.7230 C   0  0  0  0  0  0
  -29.5308  -20.7014   21.9468 C   0  0  0  0  0  0
  -29.0515  -19.5564   21.0260 C   0  0  0  0  0  0
  -29.1847  -18.1308   21.5684 C   0  0  0  0  0  0
  -30.5960  -17.7264   21.9967 C   0  0  0  0  0  0
  -30.6804  -16.2416   22.4070 C   0  0  0  0  0  0
  -28.0060  -25.7472   21.4105 C   0  0  1  0  0  0
  -27.3711  -21.5142   22.3948 N   0  0  0  0  0  0
  -30.0906  -15.2890   21.4709 N   0  0  0  0  0  0
  -31.4480  -12.4683   19.0297 H   0  0  0  0  0  0
  -30.3069  -11.3189   19.6798 H   0  0  0  0  0  0
  -29.6807  -11.9745   17.3178 H   0  0  0  0  0  0
  -29.6016  -13.6332   17.8167 H   0  0  0  0  0  0
  -27.7842  -11.3678   18.7391 H   0  0  0  0  0  0
  -27.3266  -12.7660   17.8125 H   0  0  0  0  0  0
  -27.7046  -14.2738   19.6778 H   0  0  0  0  0  0
  -28.7129  -11.8520   21.2259 H   0  0  0  0  0  0
  -28.4723  -13.4250   21.9329 H   0  0  0  0  0  0
  -25.2681   -9.5629   22.4750 H   0  0  0  0  0  0
  -23.9985   -7.4543   22.7406 H   0  0  0  0  0  0
  -21.0789   -8.8503   19.8989 H   0  0  0  0  0  0
  -22.3462  -10.9488   19.6167 H   0  0  0  0  0  0
  -21.2000   -7.6042   23.9619 H   0  0  0  0  0  0
  -21.1603   -6.0493   25.9031 H   0  0  0  0  0  0
  -22.0607   -2.7499   23.2949 H   0  0  0  0  0  0
  -22.4170  -11.9608   22.4788 H   0  0  0  0  0  0
  -21.1159  -13.0989   22.2916 H   0  0  0  0  0  0
  -24.6299  -15.8250   20.5341 H   0  0  0  0  0  0
  -26.2641  -15.6458   20.1387 H   0  0  0  0  0  0
  -26.7085  -32.5410   23.1019 H   0  0  0  0  0  0
  -25.0274  -33.9764   25.0593 H   0  0  0  0  0  0
  -22.6930  -31.3001   21.4085 H   0  0  0  0  0  0
  -23.3841  -35.9552   23.3311 H   0  0  0  0  0  0
  -24.3688  -36.8941   22.2047 H   0  0  0  0  0  0
  -23.7328  -37.6543   23.6622 H   0  0  0  0  0  0
  -26.1063  -31.6185   20.6404 H   0  0  0  0  0  0
  -26.8095  -30.8294   22.0130 H   0  0  0  0  0  0
  -28.1215  -29.1096   21.0884 H   0  0  0  0  0  0
  -26.0412  -25.9571   18.9828 H   0  0  0  0  0  0
  -23.9530  -27.2911   19.0703 H   0  0  0  0  0  0
  -23.6345  -30.5593   19.3917 H   0  0  0  0  0  0
  -22.7266  -29.1976   19.9245 H   0  0  0  0  0  0
  -25.1332  -36.1860   25.0812 H   0  0  0  0  0  0
  -20.9911  -28.3351   24.1518 H   0  0  0  0  0  0
  -20.5635  -26.2382   23.3906 H   0  0  0  0  0  0
  -21.6612  -26.7355   22.1341 H   0  0  0  0  0  0
  -19.6940  -25.6090   21.1618 H   0  0  0  0  0  0
  -19.6771  -27.2815   20.6779 H   0  0  0  0  0  0
  -17.4185  -26.6635   21.4122 H   0  0  0  0  0  0
  -18.0270  -26.0218   22.9200 H   0  0  0  0  0  0
  -19.8028  -30.7494   24.1860 H   0  0  0  0  0  0
  -17.5139  -31.6372   24.5209 H   0  0  0  0  0  0
  -15.5417  -30.2960   23.8064 H   0  0  0  0  0  0
  -15.8622  -28.0865   22.7180 H   0  0  0  0  0  0
  -24.6225  -30.6611   25.7909 H   0  0  0  0  0  0
  -24.8945  -32.2581   26.4818 H   0  0  0  0  0  0
  -25.8478  -30.8821   27.0174 H   0  0  0  0  0  0
  -26.2853  -29.6643   24.1291 H   0  0  0  0  0  0
  -27.4219  -29.7089   25.4543 H   0  0  0  0  0  0
  -27.8709  -30.4168   23.9221 H   0  0  0  0  0  0
  -27.2720  -33.3575   26.1872 H   0  0  0  0  0  0
  -28.4030  -32.6715   25.0281 H   0  0  0  0  0  0
  -28.0757  -31.8409   26.5419 H   0  0  0  0  0  0
  -28.2586  -38.0113   24.7572 H   0  0  0  0  0  0
  -28.1157  -36.2636   24.6260 H   0  0  0  0  0  0
  -27.2306  -37.1428   25.8917 H   0  0  0  0  0  0
  -20.9395  -29.8690   21.6783 H   0  0  0  0  0  0
  -26.0275  -38.2796   24.1287 H   0  0  0  0  0  0
  -25.7493  -24.3816   22.0157 H   0  0  0  0  0  0
  -29.9224  -23.4248   21.2554 H   0  0  0  0  0  0
  -25.4362  -22.0807   22.6557 H   0  0  0  0  0  0
  -27.3106  -26.7172   23.1666 H   0  0  0  0  0  0
  -28.7830  -27.4373   22.5663 H   0  0  0  0  0  0
  -28.8609  -25.8862   23.4415 H   0  0  0  0  0  0
  -29.5996  -20.3368   22.9713 H   0  0  0  0  0  0
  -30.5471  -20.9845   21.6962 H   0  0  0  0  0  0
  -29.4680  -19.6431   20.0271 H   0  0  0  0  0  0
  -27.9746  -19.6571   20.8721 H   0  0  0  0  0  0
  -28.8210  -17.4622   20.7844 H   0  0  0  0  0  0
  -28.5062  -17.9992   22.4115 H   0  0  0  0  0  0
  -30.8698  -18.3316   22.8611 H   0  0  0  0  0  0
  -31.3237  -17.9754   21.2222 H   0  0  0  0  0  0
  -30.1109  -16.1465   23.3328 H   0  0  0  0  0  0
  -31.7096  -15.9554   22.6429 H   0  0  0  0  0  0
  -26.9471  -25.9164   21.5459 H   0  0  0  0  0  0
  -29.1048  -15.1217   21.5704 H   0  0  0  0  0  0
  1 25  1  0  0  0
  1 30  2  0  0  0
  1 84  1  0  0  0
  2  3  1  0  0  0
  2 25  1  0  0  0
  2 85  1  0  0  0
  2 86  1  0  0  0
  3  4  1  0  0  0
  3 87  1  0  0  0
  3 88  1  0  0  0
  4  5  1  0  0  0
  4 89  1  0  0  0
  4 90  1  0  0  0
  5  6  1  0  0  0
  5 26  1  0  0  0
  5 91  1  0  0  0
  6 25  1  0  0  0
  6 92  1  0  0  0
  6 93  1  0  0  0
  7  8  2  0  0  0
  7 26  1  0  0  0
  7 29  1  0  0  0
  8  9  1  0  0  0
  8 22  1  0  0  0
  9 10  1  0  0  0
  9 27  2  0  0  0
 10 11  2  0  0  0
 10 15  1  0  0  0
 11 12  1  0  0  0
 11 94  1  0  0  0
 12 13  2  0  0  0
 12 95  1  0  0  0
 13 14  1  0  0  0
 13 31  1  0  0  0
 14 15  2  0  0  0
 14 96  1  0  0  0
 15 97  1  0  0  0
 16 17  2  0  0  0
 16 21  1  0  0  0
 16 31  1  0  0  0
 17 18  1  0  0  0
 17 98  1  0  0  0
 18 19  2  0  0  0
 18 99  1  0  0  0
 19 20  1  0  0  0
 19 24  1  0  0  0
 20 21  2  0  0  0
 20100  1  0  0  0
 21 23  1  0  0  0
 22 28  1  0  0  0
 22 32  2  0  0  0
 26 27  1  0  0  0
 28101  1  0  0  0
 28102  1  0  0  0
 29103  1  0  0  0
 29104  1  0  0  0
 33 34  1  0  0  0
 33 66  1  0  0  0
 33 70  2  0  0  0
 34 36  1  0  0  0
 34 59  1  0  0  0
 34105  1  0  0  0
 35 44  2  0  0  0
 35 45  1  0  0  0
 35 68  1  0  0  0
 36 56  1  0  0  0
 36106  1  0  0  0
 37 39  1  0  0  0
 37 47  1  0  0  0
 37 66  1  0  0  0
 37107  1  0  0  0
 38 43  2  0  0  0
 38 46  1  0  0  0
 38 47  1  0  0  0
 39 64  1  0  0  0
 39 67  2  0  0  0
 40 52  1  0  0  0
 40 53  2  0  0  0
 40 58  1  0  0  0
 41108  1  0  0  0
 41109  1  0  0  0
 41110  1  0  0  0
 41 48  1  0  0  0
 42 43  1  0  0  0
 42 66  1  0  0  0
 42111  1  0  0  0
 42112  1  0  0  0
 43 44  1  0  0  0
 44113  1  0  0  0
 45 46  2  0  0  0
 45114  1  0  0  0
 46115  1  0  0  0
 47116  1  0  0  0
 47117  1  0  0  0
 48 56  1  0  0  0
 48 65  1  0  0  0
 48118  1  0  0  0
 49 50  1  0  0  0
 49 53  1  0  0  0
 49 64  1  0  0  0
 49119  1  0  0  0
 50 51  1  0  0  0
 50120  1  0  0  0
 50121  1  0  0  0
 51 52  1  0  0  0
 51122  1  0  0  0
 51123  1  0  0  0
 52124  1  0  0  0
 52125  1  0  0  0
 53 54  1  0  0  0
 54 55  2  0  0  0
 54126  1  0  0  0
 55 57  1  0  0  0
 55127  1  0  0  0
 56 69  2  0  0  0
 57 58  2  0  0  0
 57128  1  0  0  0
 58129  1  0  0  0
 59 60  1  0  0  0
 59 61  1  0  0  0
 59 62  1  0  0  0
 60130  1  0  0  0
 60131  1  0  0  0
 60132  1  0  0  0
 61133  1  0  0  0
 61134  1  0  0  0
 61135  1  0  0  0
 62136  1  0  0  0
 62137  1  0  0  0
 62138  1  0  0  0
 63 65  1  0  0  0
 63139  1  0  0  0
 63140  1  0  0  0
 63141  1  0  0  0
 64142  1  0  0  0
 65143  1  0  0  0
 68 82  1  0  0  0
 71 73  2  0  0  0
 71 74  1  0  0  0
 71144  1  0  0  0
 72 74  2  0  0  0
 72 75  1  0  0  0
 72145  1  0  0  0
 73 83  1  0  0  0
 73146  1  0  0  0
 74 82  1  0  0  0
 75 77  1  0  0  0
 75 83  2  0  0  0
 76147  1  0  0  0
 76148  1  0  0  0
 76149  1  0  0  0
 76 82  1  0  0  0
 77 78  1  0  0  0
 77150  1  0  0  0
 77151  1  0  0  0
 78 79  1  0  0  0
 78152  1  0  0  0
 78153  1  0  0  0
 79 80  1  0  0  0
 79154  1  0  0  0
 79155  1  0  0  0
 80 81  1  0  0  0
 80156  1  0  0  0
 80157  1  0  0  0
 81 84  1  0  0  0
 81158  1  0  0  0
 81159  1  0  0  0
 82160  1  0  0  0
 84161  1  0  0  0
M  ISO  4   1 100  68 101  82 101  84 100
M  END
> <chiral flag>
0

> <version>
0

> <s_m_source_file>
/data/baiqing/PycharmProjects/Reinvent-master-3.2/result/LINK_invent/BTK/process_docking_weight1_custom_sum_contain_oxygen_bond_distance_aromatic_linkinvent_7_9_3/rearranged_h_0036.sdf

> <i_m_source_file_index>
40

> <r_mmod_Potential_Energy-OPLS-2005>
-26.9834423065186

> <r_mmod_Stretch_Energy-OPLS-2005>
47.5595893859863

> <r_mmod_Bend_Energy-OPLS-2005>
176.266036987305

> <r_mmod_Torsional_Energy-OPLS-2005>
280.150024414062

> <r_mmod_Improper_Torsional_Energy-OPLS-2005>
6.06640720367432

> <r_mmod_Van_der_Waal_Energy-OPLS-2005>
188.24382019043

> <r_mmod_Electrostatic_Energy-OPLS-2005>
-542.217712402344

> <r_mmod_Solvation_Energy-OPLS-2005>
-210.34831237793

> <b_mmod_Minimization_Converged-OPLS-2005>
0

> <r_mmod_RMS_Derivative-OPLS-2005>
25.8183364868164

$$$$
41
                    3D
 Structure written by MMmdl.
151159  0  0  1  0            999 V2000
  -30.4090  -15.3678   20.3646 C   0  0  0  0  0  0
  -30.4376  -12.8902   19.5111 C   0  0  0  0  0  0
  -29.5352  -12.5854   18.2878 C   0  0  0  0  0  0
  -28.0934  -12.2853   18.7319 C   0  0  0  0  0  0
  -27.6047  -13.2798   19.8128 C   0  0  2  0  0  0
  -28.6397  -13.5084   20.9344 C   0  0  0  0  0  0
  -25.2371  -13.8242   20.5772 C   0  0  0  0  0  0
  -24.1730  -13.0424   20.9281 C   0  0  0  0  0  0
  -24.6394  -11.6925   20.8773 C   0  0  0  0  0  0
  -23.9096  -10.4285   21.0411 C   0  0  0  0  0  0
  -24.3641   -9.4200   21.9189 C   0  0  0  0  0  0
  -23.6310   -8.2239   22.0753 C   0  0  0  0  0  0
  -22.4292   -8.0281   21.3541 C   0  0  0  0  0  0
  -21.9933   -9.0255   20.4644 C   0  0  0  0  0  0
  -22.7268  -10.2130   20.3056 C   0  0  0  0  0  0
  -21.6854   -6.0746   22.5284 C   0  0  0  0  0  0
  -21.4013   -6.5649   23.8218 C   0  0  0  0  0  0
  -21.3656   -5.6799   24.9179 C   0  0  0  0  0  0
  -21.6043   -4.3063   24.7227 C   0  0  0  0  0  0
  -21.8817   -3.8155   23.4346 C   0  0  0  0  0  0
  -21.9190   -4.6974   22.3406 C   0  0  0  0  0  0
  -22.7747  -13.5174   21.1930 C   0  0  0  0  0  0
  -22.1661   -4.2161   21.0983 F   0  0  0  0  0  0
  -21.5623   -3.4546   25.7737 F   0  0  0  0  0  0
  -29.8471  -14.0510   20.2834 N   0  0  0  0  0  0
  -26.2795  -12.9526   20.3212 N   0  0  0  0  0  0
  -25.9329  -11.6626   20.5715 N   0  0  0  0  0  0
  -22.0414  -12.8141   22.0480 N   0  0  0  0  0  0
  -25.3993  -15.1979   20.4224 N   0  0  0  0  0  0
  -31.6442  -15.3385   20.2468 O   0  0  0  0  0  0
  -21.6641   -6.8885   21.4244 O   0  0  0  0  0  0
  -22.3419  -14.5478   20.6774 O   0  0  0  0  0  0
  -24.6692  -31.8195   23.1663 C   0  0  0  0  0  0
  -25.9350  -32.4569   23.8139 C   0  0  1  0  0  0
  -27.2164  -26.8668   20.1977 C   0  0  0  0  0  0
  -25.6007  -33.8383   24.2051 N   0  0  0  0  0  0
  -23.4863  -30.4297   21.5167 C   0  0  2  0  0  0
  -24.9395  -28.8060   20.1167 C   0  0  0  0  0  0
  -22.7700  -29.4424   22.4768 C   0  0  0  0  0  0
  -18.0327  -28.1426   22.8474 C   0  0  0  0  0  0
  -24.1485  -36.7190   23.2645 C   0  0  0  0  0  0
  -26.0589  -30.6086   21.4027 C   0  0  0  0  0  0
  -26.1272  -29.1897   20.7535 C   0  0  0  0  0  0
  -27.2597  -28.2455   20.7649 C   0  0  0  0  0  0
  -26.0000  -26.6584   19.5058 C   0  0  0  0  0  0
  -24.9067  -27.5619   19.4689 C   0  0  0  0  0  0
  -23.7295  -29.7425   20.1447 C   0  0  0  0  0  0
  -25.4128  -36.2951   24.0293 C   0  0  1  0  0  0
  -20.5960  -28.3771   23.1188 C   0  0  2  0  0  0
  -20.6808  -26.9452   22.5409 C   0  0  0  0  0  0
  -19.5771  -26.6395   21.5227 C   0  0  0  0  0  0
  -18.1955  -26.7960   22.1638 C   0  0  0  0  0  0
  -19.1596  -28.8918   23.2818 C   0  0  0  0  0  0
  -18.9503  -30.1510   23.8845 C   0  0  0  0  0  0
  -17.6495  -30.6614   24.0557 C   0  0  0  0  0  0
  -25.9107  -34.9342   23.4996 C   0  0  0  0  0  0
  -16.5385  -29.9102   23.6349 C   0  0  0  0  0  0
  -16.7312  -28.6525   23.0365 C   0  0  0  0  0  0
  -26.4582  -31.6524   25.0678 C   0  0  0  0  0  0
  -25.3699  -31.3805   26.1326 C   0  0  0  0  0  0
  -27.0471  -30.2881   24.6437 C   0  0  0  0  0  0
  -27.6055  -32.4339   25.7492 C   0  0  0  0  0  0
  -27.5558  -37.1750   24.8467 C   0  0  0  0  0  0
  -21.4365  -29.3053   22.3523 N   0  0  0  0  0  0
  -26.4252  -37.3707   23.9422 N   0  0  0  0  0  0
  -24.7604  -30.9808   22.0820 N   0  0  0  0  0  0
  -23.4223  -28.7999   23.3038 O   0  0  0  0  0  0
  -28.1952  -25.7151   20.2312 O   0  0  0  0  0  0
  -26.5713  -34.8890   22.4586 O   0  0  0  0  0  0
  -23.5756  -32.1171   23.6735 O   0  0  0  0  0  0
  -28.7672  -21.2390   20.9343 C   0  0  0  0  0  0
  -29.5034  -20.6382   19.0374 C   0  0  0  0  0  0
  -29.3376  -19.9768   20.2470 C   0  0  0  0  0  0
  -28.6182  -22.5255   20.2294 C   0  0  0  0  0  0
  -30.2899  -23.9251   17.9148 C   0  0  0  0  0  0
  -29.8983  -18.3168   20.7200 C   0  0  0  0  0  0
  -27.7996  -24.1021   20.4423 C   0  0  0  0  0  0
  -29.2048  -22.8460   17.8064 C   0  0  0  0  0  0
  -29.1191  -22.0300   19.0090 N   0  0  0  0  0  0
  -29.6525  -16.6708   20.3803 N   0  0  0  0  0  0
  -31.4456  -13.1197   19.1629 H   0  0  0  0  0  0
  -30.5419  -12.0089   20.1464 H   0  0  0  0  0  0
  -29.9361  -11.7457   17.7186 H   0  0  0  0  0  0
  -29.5376  -13.4428   17.6128 H   0  0  0  0  0  0
  -28.0801  -11.2734   19.1385 H   0  0  0  0  0  0
  -27.4181  -12.2792   17.8754 H   0  0  0  0  0  0
  -27.4999  -14.2295   19.2865 H   0  0  0  0  0  0
  -28.8428  -12.5906   21.4880 H   0  0  0  0  0  0
  -28.2616  -14.2308   21.6590 H   0  0  0  0  0  0
  -25.2785   -9.5670   22.4770 H   0  0  0  0  0  0
  -24.0018   -7.4620   22.7466 H   0  0  0  0  0  0
  -21.0869   -8.8772   19.8947 H   0  0  0  0  0  0
  -22.3731  -10.9666   19.6164 H   0  0  0  0  0  0
  -21.2015   -7.6159   23.9725 H   0  0  0  0  0  0
  -21.1473   -6.0531   25.9080 H   0  0  0  0  0  0
  -22.0597   -2.7619   23.2843 H   0  0  0  0  0  0
  -22.4063  -11.9809   22.4850 H   0  0  0  0  0  0
  -21.1022  -13.1112   22.2699 H   0  0  0  0  0  0
  -24.6292  -15.8472   20.5437 H   0  0  0  0  0  0
  -26.2430  -15.6431   20.0872 H   0  0  0  0  0  0
  -26.7421  -32.5097   23.0855 H   0  0  0  0  0  0
  -25.0135  -33.9459   25.0188 H   0  0  0  0  0  0
  -22.8027  -31.2636   21.3430 H   0  0  0  0  0  0
  -23.3756  -35.9512   23.3278 H   0  0  0  0  0  0
  -24.3573  -36.8868   22.2070 H   0  0  0  0  0  0
  -23.7236  -37.6367   23.6718 H   0  0  0  0  0  0
  -26.2404  -31.3436   20.6171 H   0  0  0  0  0  0
  -26.9190  -30.6752   22.0563 H   0  0  0  0  0  0
  -28.1585  -28.5449   21.2846 H   0  0  0  0  0  0
  -25.8585  -25.7204   18.9910 H   0  0  0  0  0  0
  -24.0110  -27.2654   18.9403 H   0  0  0  0  0  0
  -23.8938  -30.5088   19.3864 H   0  0  0  0  0  0
  -22.8363  -29.2044   19.8230 H   0  0  0  0  0  0
  -25.1332  -36.1723   25.0783 H   0  0  0  0  0  0
  -21.0060  -28.3381   24.1310 H   0  0  0  0  0  0
  -20.5693  -26.2408   23.3663 H   0  0  0  0  0  0
  -21.6672  -26.7433   22.1214 H   0  0  0  0  0  0
  -19.6934  -25.6299   21.1293 H   0  0  0  0  0  0
  -19.6700  -27.3173   20.6730 H   0  0  0  0  0  0
  -17.4239  -26.6722   21.4028 H   0  0  0  0  0  0
  -18.0318  -26.0108   22.9035 H   0  0  0  0  0  0
  -19.7977  -30.7348   24.2184 H   0  0  0  0  0  0
  -17.5047  -31.6279   24.5192 H   0  0  0  0  0  0
  -15.5385  -30.2988   23.7704 H   0  0  0  0  0  0
  -15.8714  -28.0831   22.7095 H   0  0  0  0  0  0
  -24.5902  -30.7120   25.7666 H   0  0  0  0  0  0
  -24.8850  -32.3012   26.4578 H   0  0  0  0  0  0
  -25.7920  -30.9112   27.0220 H   0  0  0  0  0  0
  -26.3143  -29.6556   24.1411 H   0  0  0  0  0  0
  -27.3962  -29.7253   25.5107 H   0  0  0  0  0  0
  -27.9112  -30.4061   23.9893 H   0  0  0  0  0  0
  -27.2611  -33.3699   26.1911 H   0  0  0  0  0  0
  -28.3954  -32.6806   25.0382 H   0  0  0  0  0  0
  -28.0619  -31.8562   26.5544 H   0  0  0  0  0  0
  -28.2556  -38.0063   24.7524 H   0  0  0  0  0  0
  -28.1068  -36.2594   24.6265 H   0  0  0  0  0  0
  -27.2294  -37.1375   25.8875 H   0  0  0  0  0  0
  -20.9629  -29.8746   21.6642 H   0  0  0  0  0  0
  -26.0085  -38.2757   24.1439 H   0  0  0  0  0  0
  -28.4538  -21.1897   21.9686 H   0  0  0  0  0  0
  -29.9197  -20.2203   18.1293 H   0  0  0  0  0  0
  -30.3327  -24.5204   17.0027 H   0  0  0  0  0  0
  -31.2734  -23.4822   18.0703 H   0  0  0  0  0  0
  -30.0994  -24.6085   18.7414 H   0  0  0  0  0  0
  -29.7417  -18.3369   21.7986 H   0  0  0  0  0  0
  -30.9810  -18.4073   20.6250 H   0  0  0  0  0  0
  -27.4376  -24.0883   21.4698 H   0  0  0  0  0  0
  -26.8864  -23.9914   19.8618 H   0  0  0  0  0  0
  -29.4101  -22.2042   16.9493 H   0  0  0  0  0  0
  -28.2315  -23.3017   17.6217 H   0  0  0  0  0  0
  -28.6642  -16.4798   20.3010 H   0  0  0  0  0  0
  1 25  1  0  0  0
  1 30  2  0  0  0
  1 80  1  0  0  0
  2  3  1  0  0  0
  2 25  1  0  0  0
  2 81  1  0  0  0
  2 82  1  0  0  0
  3  4  1  0  0  0
  3 83  1  0  0  0
  3 84  1  0  0  0
  4  5  1  0  0  0
  4 85  1  0  0  0
  4 86  1  0  0  0
  5  6  1  0  0  0
  5 26  1  0  0  0
  5 87  1  0  0  0
  6 25  1  0  0  0
  6 88  1  0  0  0
  6 89  1  0  0  0
  7  8  2  0  0  0
  7 26  1  0  0  0
  7 29  1  0  0  0
  8  9  1  0  0  0
  8 22  1  0  0  0
  9 10  1  0  0  0
  9 27  2  0  0  0
 10 11  2  0  0  0
 10 15  1  0  0  0
 11 12  1  0  0  0
 11 90  1  0  0  0
 12 13  2  0  0  0
 12 91  1  0  0  0
 13 14  1  0  0  0
 13 31  1  0  0  0
 14 15  2  0  0  0
 14 92  1  0  0  0
 15 93  1  0  0  0
 16 17  2  0  0  0
 16 21  1  0  0  0
 16 31  1  0  0  0
 17 18  1  0  0  0
 17 94  1  0  0  0
 18 19  2  0  0  0
 18 95  1  0  0  0
 19 20  1  0  0  0
 19 24  1  0  0  0
 20 21  2  0  0  0
 20 96  1  0  0  0
 21 23  1  0  0  0
 22 28  1  0  0  0
 22 32  2  0  0  0
 26 27  1  0  0  0
 28 97  1  0  0  0
 28 98  1  0  0  0
 29 99  1  0  0  0
 29100  1  0  0  0
 33 34  1  0  0  0
 33 66  1  0  0  0
 33 70  2  0  0  0
 34 36  1  0  0  0
 34 59  1  0  0  0
 34101  1  0  0  0
 35 44  2  0  0  0
 35 45  1  0  0  0
 35 68  1  0  0  0
 36 56  1  0  0  0
 36102  1  0  0  0
 37 39  1  0  0  0
 37 47  1  0  0  0
 37 66  1  0  0  0
 37103  1  0  0  0
 38 43  2  0  0  0
 38 46  1  0  0  0
 38 47  1  0  0  0
 39 64  1  0  0  0
 39 67  2  0  0  0
 40 52  1  0  0  0
 40 53  2  0  0  0
 40 58  1  0  0  0
 41104  1  0  0  0
 41105  1  0  0  0
 41106  1  0  0  0
 41 48  1  0  0  0
 42 43  1  0  0  0
 42 66  1  0  0  0
 42107  1  0  0  0
 42108  1  0  0  0
 43 44  1  0  0  0
 44109  1  0  0  0
 45 46  2  0  0  0
 45110  1  0  0  0
 46111  1  0  0  0
 47112  1  0  0  0
 47113  1  0  0  0
 48 56  1  0  0  0
 48 65  1  0  0  0
 48114  1  0  0  0
 49 50  1  0  0  0
 49 53  1  0  0  0
 49 64  1  0  0  0
 49115  1  0  0  0
 50 51  1  0  0  0
 50116  1  0  0  0
 50117  1  0  0  0
 51 52  1  0  0  0
 51118  1  0  0  0
 51119  1  0  0  0
 52120  1  0  0  0
 52121  1  0  0  0
 53 54  1  0  0  0
 54 55  2  0  0  0
 54122  1  0  0  0
 55 57  1  0  0  0
 55123  1  0  0  0
 56 69  2  0  0  0
 57 58  2  0  0  0
 57124  1  0  0  0
 58125  1  0  0  0
 59 60  1  0  0  0
 59 61  1  0  0  0
 59 62  1  0  0  0
 60126  1  0  0  0
 60127  1  0  0  0
 60128  1  0  0  0
 61129  1  0  0  0
 61130  1  0  0  0
 61131  1  0  0  0
 62132  1  0  0  0
 62133  1  0  0  0
 62134  1  0  0  0
 63 65  1  0  0  0
 63135  1  0  0  0
 63136  1  0  0  0
 63137  1  0  0  0
 64138  1  0  0  0
 65139  1  0  0  0
 68 77  1  0  0  0
 71 73  1  0  0  0
 71 74  2  0  0  0
 71140  1  0  0  0
 72 73  2  0  0  0
 72 79  1  0  0  0
 72141  1  0  0  0
 73 76  1  0  0  0
 74 77  1  0  0  0
 74 79  1  0  0  0
 75 78  1  0  0  0
 75142  1  0  0  0
 75143  1  0  0  0
 75144  1  0  0  0
 76 80  1  0  0  0
 76145  1  0  0  0
 76146  1  0  0  0
 77147  1  0  0  0
 77148  1  0  0  0
 78 79  1  0  0  0
 78149  1  0  0  0
 78150  1  0  0  0
 80151  1  0  0  0
M  ISO  4   1 100  68 101  77 101  80 100
M  END
> <chiral flag>
0

> <version>
0

> <s_m_source_file>
/data/baiqing/PycharmProjects/Reinvent-master-3.2/result/LINK_invent/BTK/process_docking_weight1_custom_sum_contain_oxygen_bond_distance_aromatic_linkinvent_7_9_3/rearranged_h_0036.sdf

> <i_m_source_file_index>
41

> <r_mmod_Potential_Energy-OPLS-2005>
1501.63403320312

> <r_mmod_Stretch_Energy-OPLS-2005>
668.028503417969

> <r_mmod_Bend_Energy-OPLS-2005>
509.709564208984

> <r_mmod_Torsional_Energy-OPLS-2005>
246.794036865234

> <r_mmod_Improper_Torsional_Energy-OPLS-2005>
7.06113433837891

> <r_mmod_Van_der_Waal_Energy-OPLS-2005>
106.577575683594

> <r_mmod_Electrostatic_Energy-OPLS-2005>
-386.000183105469

> <r_mmod_Solvation_Energy-OPLS-2005>
-218.204071044922

> <b_mmod_Minimization_Converged-OPLS-2005>
0

> <r_mmod_RMS_Derivative-OPLS-2005>
1.57353937625885

$$$$
42
                    3D
 Structure written by MMmdl.
173181  0  0  1  0            999 V2000
  -30.7272  -14.5665   20.3872 C   0  0  0  0  0  0
  -30.4045  -12.3252   19.4281 C   0  0  0  0  0  0
  -29.5152  -12.4429   18.1721 C   0  0  0  0  0  0
  -28.0156  -12.6523   18.4900 C   0  0  0  0  0  0
  -27.7054  -12.7384   19.9932 C   0  0  2  0  0  0
  -28.7383  -13.1988   21.0273 C   0  0  0  0  0  0
  -25.3076  -13.7530   20.5564 C   0  0  0  0  0  0
  -24.1833  -13.0437   20.9132 C   0  0  0  0  0  0
  -24.5677  -11.6726   20.8921 C   0  0  0  0  0  0
  -23.8402  -10.4255   21.0665 C   0  0  0  0  0  0
  -24.3179   -9.4216   21.9360 C   0  0  0  0  0  0
  -23.6072   -8.2153   22.0801 C   0  0  0  0  0  0
  -22.4100   -8.0159   21.3533 C   0  0  0  0  0  0
  -21.9597   -9.0099   20.4681 C   0  0  0  0  0  0
  -22.6737  -10.2067   20.3161 C   0  0  0  0  0  0
  -21.6801   -6.0644   22.5282 C   0  0  0  0  0  0
  -21.3958   -6.5592   23.8208 C   0  0  0  0  0  0
  -21.3635   -5.6763   24.9188 C   0  0  0  0  0  0
  -21.6057   -4.3024   24.7251 C   0  0  0  0  0  0
  -21.8844   -3.8101   23.4373 C   0  0  0  0  0  0
  -21.9193   -4.6895   22.3440 C   0  0  0  0  0  0
  -22.7989  -13.5615   21.1759 C   0  0  0  0  0  0
  -22.1657   -4.2077   21.1015 F   0  0  0  0  0  0
  -21.5641   -3.4543   25.7778 F   0  0  0  0  0  0
  -30.0223  -13.4109   20.3483 N   0  0  0  0  0  0
  -26.3029  -12.7823   20.3754 N   0  0  0  0  0  0
  -25.8284  -11.5500   20.6027 N   0  0  0  0  0  0
  -22.0427  -12.8706   22.0245 N   0  0  0  0  0  0
  -25.5456  -15.1114   20.3796 N   0  0  0  0  0  0
  -31.9422  -14.5971   20.1851 O   0  0  0  0  0  0
  -21.6570   -6.8721   21.4209 O   0  0  0  0  0  0
  -22.3888  -14.5996   20.6588 O   0  0  0  0  0  0
  -24.6096  -31.8746   23.2151 C   0  0  0  0  0  0
  -25.9025  -32.4854   23.8436 C   0  0  1  0  0  0
  -27.2356  -27.5033   20.0903 C   0  0  0  0  0  0
  -25.5901  -33.8643   24.2363 N   0  0  0  0  0  0
  -23.3939  -30.5018   21.5531 C   0  0  2  0  0  0
  -24.8363  -28.9854   20.1030 C   0  0  0  0  0  0
  -22.7419  -29.4701   22.5012 C   0  0  0  0  0  0
  -18.0301  -28.1405   22.8508 C   0  0  0  0  0  0
  -24.1498  -36.7340   23.2632 C   0  0  0  0  0  0
  -25.9136  -30.8672   21.3529 C   0  0  0  0  0  0
  -25.9919  -29.5081   20.6989 C   0  0  0  0  0  0
  -27.1928  -28.7757   20.6819 C   0  0  0  0  0  0
  -26.0611  -26.9785   19.4977 C   0  0  0  0  0  0
  -24.8662  -27.7204   19.4907 C   0  0  0  0  0  0
  -23.5942  -29.8400   20.1619 C   0  0  0  0  0  0
  -25.4111  -36.3126   24.0333 C   0  0  1  0  0  0
  -20.5890  -28.3682   23.1344 C   0  0  2  0  0  0
  -20.6784  -26.9436   22.5425 C   0  0  0  0  0  0
  -19.5750  -26.6410   21.5233 C   0  0  0  0  0  0
  -18.1932  -26.7952   22.1641 C   0  0  0  0  0  0
  -19.1548  -28.8859   23.2924 C   0  0  0  0  0  0
  -18.9454  -30.1466   23.8932 C   0  0  0  0  0  0
  -17.6441  -30.6595   24.0584 C   0  0  0  0  0  0
  -25.9017  -34.9488   23.5145 C   0  0  0  0  0  0
  -16.5338  -29.9096   23.6325 C   0  0  0  0  0  0
  -16.7274  -28.6525   23.0323 C   0  0  0  0  0  0
  -26.4467  -31.6600   25.0732 C   0  0  0  0  0  0
  -25.3741  -31.3652   26.1477 C   0  0  0  0  0  0
  -27.0254  -30.3063   24.6000 C   0  0  0  0  0  0
  -27.6078  -32.4291   25.7464 C   0  0  0  0  0  0
  -27.5595  -37.1820   24.8459 C   0  0  0  0  0  0
  -21.4151  -29.3048   22.3749 N   0  0  0  0  0  0
  -26.4304  -37.3812   23.9405 N   0  0  0  0  0  0
  -24.6585  -31.0922   22.1008 N   0  0  0  0  0  0
  -23.4245  -28.8263   23.3018 O   0  0  0  0  0  0
  -28.4353  -26.8337   20.1114 O   0  0  0  0  0  0
  -26.5566  -34.8930   22.4698 O   0  0  0  0  0  0
  -23.5301  -32.1492   23.7564 O   0  0  0  0  0  0
  -27.2210  -21.1743   19.8185 C   0  0  0  0  0  0
  -26.5136  -23.2960   18.2318 C   0  0  0  0  0  0
  -28.0464  -22.3140   19.8400 C   0  0  0  0  0  0
  -27.6778  -23.4010   19.0137 C   0  0  0  0  0  0
  -26.0695  -21.1747   19.0131 C   0  0  0  0  0  0
  -29.2602  -22.3475   20.7548 C   0  0  0  0  0  0
  -30.6374  -16.8825   21.1846 C   0  0  0  0  0  0
  -28.4592  -24.7001   18.9784 C   0  0  0  0  0  0
  -25.1726  -19.9559   18.9324 C   0  0  0  0  0  0
  -25.5139  -19.0810   17.7150 C   0  0  0  0  0  0
  -26.8112  -18.2919   17.9516 C   0  0  0  0  0  0
  -27.3012  -17.4762   16.7524 C   0  0  0  0  0  0
  -28.0698  -16.2135   17.1676 C   0  0  0  0  0  0
  -29.2615  -16.3719   18.1530 C   0  0  0  0  0  0
  -28.8856  -16.0882   19.6329 C   0  0  0  0  0  0
  -28.3800  -25.4362   20.3189 C   0  0  0  0  0  0
  -25.7192  -22.2135   18.2283 N   0  0  0  0  0  0
  -30.0280  -15.7312   20.5050 N   0  0  0  0  0  0
  -31.4557  -12.3597   19.1392 H   0  0  0  0  0  0
  -30.2606  -11.3600   19.9183 H   0  0  0  0  0  0
  -29.6372  -11.5493   17.5628 H   0  0  0  0  0  0
  -29.8783  -13.2659   17.5540 H   0  0  0  0  0  0
  -27.4345  -11.8439   18.0448 H   0  0  0  0  0  0
  -27.6663  -13.5430   17.9868 H   0  0  0  0  0  0
  -27.9604  -11.6838   20.1397 H   0  0  0  0  0  0
  -28.8702  -12.4437   21.8078 H   0  0  0  0  0  0
  -28.3811  -14.0824   21.5590 H   0  0  0  0  0  0
  -25.2348   -9.5797   22.4883 H   0  0  0  0  0  0
  -23.9925   -7.4528   22.7417 H   0  0  0  0  0  0
  -21.0586   -8.8526   19.8974 H   0  0  0  0  0  0
  -22.3174  -10.9613   19.6288 H   0  0  0  0  0  0
  -21.1880   -7.6090   23.9710 H   0  0  0  0  0  0
  -21.1463   -6.0496   25.9098 H   0  0  0  0  0  0
  -22.0652   -2.7553   23.2936 H   0  0  0  0  0  0
  -22.3890  -12.0259   22.4559 H   0  0  0  0  0  0
  -21.1122  -13.1939   22.2505 H   0  0  0  0  0  0
  -24.8246  -15.8176   20.4780 H   0  0  0  0  0  0
  -26.4204  -15.4689   20.0214 H   0  0  0  0  0  0
  -26.7104  -32.5617   23.1225 H   0  0  0  0  0  0
  -25.0086  -33.9802   25.0528 H   0  0  0  0  0  0
  -22.6824  -31.3199   21.4245 H   0  0  0  0  0  0
  -23.3743  -35.9696   23.3286 H   0  0  0  0  0  0
  -24.3602  -36.8955   22.2047 H   0  0  0  0  0  0
  -23.7259  -37.6547   23.6648 H   0  0  0  0  0  0
  -26.0066  -31.6339   20.5829 H   0  0  0  0  0  0
  -26.8109  -30.9267   21.9589 H   0  0  0  0  0  0
  -28.0864  -29.1803   21.1380 H   0  0  0  0  0  0
  -26.0502  -26.0098   19.0279 H   0  0  0  0  0  0
  -23.9822  -27.3214   19.0104 H   0  0  0  0  0  0
  -23.6885  -30.6185   19.4037 H   0  0  0  0  0  0
  -22.7239  -29.2484   19.8698 H   0  0  0  0  0  0
  -25.1289  -36.1988   25.0822 H   0  0  0  0  0  0
  -20.9994  -28.3193   24.1455 H   0  0  0  0  0  0
  -20.5727  -26.2276   23.3599 H   0  0  0  0  0  0
  -21.6645  -26.7499   22.1193 H   0  0  0  0  0  0
  -19.6892  -25.6328   21.1240 H   0  0  0  0  0  0
  -19.6653  -27.3250   20.6781 H   0  0  0  0  0  0
  -17.4220  -26.6752   21.4022 H   0  0  0  0  0  0
  -18.0290  -26.0105   22.9032 H   0  0  0  0  0  0
  -19.7898  -30.7313   24.2318 H   0  0  0  0  0  0
  -17.4956  -31.6269   24.5201 H   0  0  0  0  0  0
  -15.5333  -30.2975   23.7616 H   0  0  0  0  0  0
  -15.8689  -28.0839   22.6974 H   0  0  0  0  0  0
  -24.5975  -30.6938   25.7791 H   0  0  0  0  0  0
  -24.8864  -32.2768   26.4922 H   0  0  0  0  0  0
  -25.8104  -30.8836   27.0231 H   0  0  0  0  0  0
  -26.2729  -29.6861   24.1114 H   0  0  0  0  0  0
  -27.4122  -29.7253   25.4369 H   0  0  0  0  0  0
  -27.8528  -30.4415   23.9041 H   0  0  0  0  0  0
  -27.2751  -33.3600   26.2064 H   0  0  0  0  0  0
  -28.3861  -32.6815   25.0252 H   0  0  0  0  0  0
  -28.0783  -31.8399   26.5347 H   0  0  0  0  0  0
  -28.2605  -38.0127   24.7527 H   0  0  0  0  0  0
  -28.1096  -36.2653   24.6255 H   0  0  0  0  0  0
  -27.2325  -37.1451   25.8868 H   0  0  0  0  0  0
  -20.9331  -29.8715   21.6918 H   0  0  0  0  0  0
  -26.0185  -38.2896   24.1389 H   0  0  0  0  0  0
  -27.4705  -20.3013   20.4063 H   0  0  0  0  0  0
  -26.1933  -24.1076   17.5985 H   0  0  0  0  0  0
  -29.5024  -21.3560   21.1415 H   0  0  0  0  0  0
  -29.0587  -22.9834   21.6178 H   0  0  0  0  0  0
  -30.1422  -22.7281   20.2388 H   0  0  0  0  0  0
  -31.6930  -17.0005   20.9362 H   0  0  0  0  0  0
  -30.5491  -16.7567   22.2651 H   0  0  0  0  0  0
  -30.1567  -17.8281   20.9287 H   0  0  0  0  0  0
  -28.0500  -25.3361   18.1908 H   0  0  0  0  0  0
  -29.4978  -24.5202   18.6995 H   0  0  0  0  0  0
  -24.1311  -20.2760   18.8957 H   0  0  0  0  0  0
  -25.2660  -19.3740   19.8507 H   0  0  0  0  0  0
  -25.5730  -19.6917   16.8130 H   0  0  0  0  0  0
  -24.7002  -18.3743   17.5505 H   0  0  0  0  0  0
  -26.6295  -17.6330   18.7986 H   0  0  0  0  0  0
  -27.6171  -18.9605   18.2509 H   0  0  0  0  0  0
  -27.9039  -18.0993   16.0888 H   0  0  0  0  0  0
  -26.4460  -17.1507   16.1596 H   0  0  0  0  0  0
  -28.4255  -15.7290   16.2585 H   0  0  0  0  0  0
  -27.3270  -15.5381   17.5855 H   0  0  0  0  0  0
  -29.7215  -17.3574   18.0524 H   0  0  0  0  0  0
  -30.0287  -15.6595   17.8468 H   0  0  0  0  0  0
  -28.3593  -16.9465   20.0537 H   0  0  0  0  0  0
  -28.1555  -15.2915   19.6501 H   0  0  0  0  0  0
  -27.4826  -25.1654   20.8776 H   0  0  0  0  0  0
  -29.2252  -25.1519   20.9459 H   0  0  0  0  0  0
  1 25  1  0  0  0
  1 30  2  0  0  0
  1 88  1  0  0  0
  2  3  1  0  0  0
  2 25  1  0  0  0
  2 89  1  0  0  0
  2 90  1  0  0  0
  3  4  1  0  0  0
  3 91  1  0  0  0
  3 92  1  0  0  0
  4  5  1  0  0  0
  4 93  1  0  0  0
  4 94  1  0  0  0
  5  6  1  0  0  0
  5 26  1  0  0  0
  5 95  1  0  0  0
  6 25  1  0  0  0
  6 96  1  0  0  0
  6 97  1  0  0  0
  7  8  2  0  0  0
  7 26  1  0  0  0
  7 29  1  0  0  0
  8  9  1  0  0  0
  8 22  1  0  0  0
  9 10  1  0  0  0
  9 27  2  0  0  0
 10 11  2  0  0  0
 10 15  1  0  0  0
 11 12  1  0  0  0
 11 98  1  0  0  0
 12 13  2  0  0  0
 12 99  1  0  0  0
 13 14  1  0  0  0
 13 31  1  0  0  0
 14 15  2  0  0  0
 14100  1  0  0  0
 15101  1  0  0  0
 16 17  2  0  0  0
 16 21  1  0  0  0
 16 31  1  0  0  0
 17 18  1  0  0  0
 17102  1  0  0  0
 18 19  2  0  0  0
 18103  1  0  0  0
 19 20  1  0  0  0
 19 24  1  0  0  0
 20 21  2  0  0  0
 20104  1  0  0  0
 21 23  1  0  0  0
 22 28  1  0  0  0
 22 32  2  0  0  0
 26 27  1  0  0  0
 28105  1  0  0  0
 28106  1  0  0  0
 29107  1  0  0  0
 29108  1  0  0  0
 33 34  1  0  0  0
 33 66  1  0  0  0
 33 70  2  0  0  0
 34 36  1  0  0  0
 34 59  1  0  0  0
 34109  1  0  0  0
 35 44  2  0  0  0
 35 45  1  0  0  0
 35 68  1  0  0  0
 36 56  1  0  0  0
 36110  1  0  0  0
 37 39  1  0  0  0
 37 47  1  0  0  0
 37 66  1  0  0  0
 37111  1  0  0  0
 38 43  2  0  0  0
 38 46  1  0  0  0
 38 47  1  0  0  0
 39 64  1  0  0  0
 39 67  2  0  0  0
 40 52  1  0  0  0
 40 53  2  0  0  0
 40 58  1  0  0  0
 41112  1  0  0  0
 41113  1  0  0  0
 41114  1  0  0  0
 41 48  1  0  0  0
 42 43  1  0  0  0
 42 66  1  0  0  0
 42115  1  0  0  0
 42116  1  0  0  0
 43 44  1  0  0  0
 44117  1  0  0  0
 45 46  2  0  0  0
 45118  1  0  0  0
 46119  1  0  0  0
 47120  1  0  0  0
 47121  1  0  0  0
 48 56  1  0  0  0
 48 65  1  0  0  0
 48122  1  0  0  0
 49 50  1  0  0  0
 49 53  1  0  0  0
 49 64  1  0  0  0
 49123  1  0  0  0
 50 51  1  0  0  0
 50124  1  0  0  0
 50125  1  0  0  0
 51 52  1  0  0  0
 51126  1  0  0  0
 51127  1  0  0  0
 52128  1  0  0  0
 52129  1  0  0  0
 53 54  1  0  0  0
 54 55  2  0  0  0
 54130  1  0  0  0
 55 57  1  0  0  0
 55131  1  0  0  0
 56 69  2  0  0  0
 57 58  2  0  0  0
 57132  1  0  0  0
 58133  1  0  0  0
 59 60  1  0  0  0
 59 61  1  0  0  0
 59 62  1  0  0  0
 60134  1  0  0  0
 60135  1  0  0  0
 60136  1  0  0  0
 61137  1  0  0  0
 61138  1  0  0  0
 61139  1  0  0  0
 62140  1  0  0  0
 62141  1  0  0  0
 62142  1  0  0  0
 63 65  1  0  0  0
 63143  1  0  0  0
 63144  1  0  0  0
 63145  1  0  0  0
 64146  1  0  0  0
 65147  1  0  0  0
 68 86  1  0  0  0
 71 73  2  0  0  0
 71 75  1  0  0  0
 71148  1  0  0  0
 72 74  2  0  0  0
 72 87  1  0  0  0
 72149  1  0  0  0
 73 74  1  0  0  0
 73 76  1  0  0  0
 74 78  1  0  0  0
 75 79  1  0  0  0
 75 87  2  0  0  0
 76150  1  0  0  0
 76151  1  0  0  0
 76152  1  0  0  0
 77 88  1  0  0  0
 77153  1  0  0  0
 77154  1  0  0  0
 77155  1  0  0  0
 78 86  1  0  0  0
 78156  1  0  0  0
 78157  1  0  0  0
 79 80  1  0  0  0
 79158  1  0  0  0
 79159  1  0  0  0
 80 81  1  0  0  0
 80160  1  0  0  0
 80161  1  0  0  0
 81 82  1  0  0  0
 81162  1  0  0  0
 81163  1  0  0  0
 82 83  1  0  0  0
 82164  1  0  0  0
 82165  1  0  0  0
 83 84  1  0  0  0
 83166  1  0  0  0
 83167  1  0  0  0
 84 85  1  0  0  0
 84168  1  0  0  0
 84169  1  0  0  0
 85 88  1  0  0  0
 85170  1  0  0  0
 85171  1  0  0  0
 86172  1  0  0  0
 86173  1  0  0  0
M  ISO  4   1 100  68 101  86 101  88 100
M  END
> <chiral flag>
0

> <version>
0

> <s_m_source_file>
/data/baiqing/PycharmProjects/Reinvent-master-3.2/result/LINK_invent/BTK/process_docking_weight1_custom_sum_contain_oxygen_bond_distance_aromatic_linkinvent_7_9_3/rearranged_h_0036.sdf

> <i_m_source_file_index>
42

> <r_mmod_Potential_Energy-OPLS-2005>
162.01545715332

> <r_mmod_Stretch_Energy-OPLS-2005>
33.9907341003418

> <r_mmod_Bend_Energy-OPLS-2005>
166.72770690918

> <r_mmod_Torsional_Energy-OPLS-2005>
332.294586181641

> <r_mmod_Improper_Torsional_Energy-OPLS-2005>
4.05316114425659

> <r_mmod_Van_der_Waal_Energy-OPLS-2005>
170.402526855469

> <r_mmod_Electrostatic_Energy-OPLS-2005>
-424.969573974609

> <r_mmod_Solvation_Energy-OPLS-2005>
-201.525955200195

> <b_mmod_Minimization_Converged-OPLS-2005>
0

> <r_mmod_RMS_Derivative-OPLS-2005>
4.85762500762939

$$$$
43
                    3D
 Structure written by MMmdl.
152160  0  0  1  0            999 V2000
  -30.6116  -14.8785   20.4188 C   0  0  0  0  0  0
  -30.4579  -12.5482   19.4924 C   0  0  0  0  0  0
  -29.5368  -12.5141   18.2547 C   0  0  0  0  0  0
  -28.0653  -12.3240   18.6715 C   0  0  0  0  0  0
  -27.6445  -13.2529   19.8417 C   0  0  2  0  0  0
  -28.6922  -13.2796   20.9772 C   0  0  0  0  0  0
  -25.2505  -13.8275   20.5733 C   0  0  0  0  0  0
  -24.1813  -13.0489   20.9267 C   0  0  0  0  0  0
  -24.6445  -11.6990   20.8796 C   0  0  0  0  0  0
  -23.9124  -10.4338   21.0438 C   0  0  0  0  0  0
  -24.3656   -9.4240   21.9200 C   0  0  0  0  0  0
  -23.6332   -8.2277   22.0793 C   0  0  0  0  0  0
  -22.4304   -8.0312   21.3586 C   0  0  0  0  0  0
  -21.9928   -9.0311   20.4684 C   0  0  0  0  0  0
  -22.7297  -10.2190   20.3092 C   0  0  0  0  0  0
  -21.6856   -6.0748   22.5297 C   0  0  0  0  0  0
  -21.4014   -6.5643   23.8231 C   0  0  0  0  0  0
  -21.3654   -5.6775   24.9175 C   0  0  0  0  0  0
  -21.6061   -4.3052   24.7200 C   0  0  0  0  0  0
  -21.8820   -3.8160   23.4309 C   0  0  0  0  0  0
  -21.9204   -4.6986   22.3384 C   0  0  0  0  0  0
  -22.7813  -13.5282   21.1852 C   0  0  0  0  0  0
  -22.1675   -4.2176   21.0959 F   0  0  0  0  0  0
  -21.5627   -3.4532   25.7704 F   0  0  0  0  0  0
  -29.9854  -13.6435   20.3792 N   0  0  0  0  0  0
  -26.2966  -12.9535   20.3275 N   0  0  0  0  0  0
  -25.9391  -11.6664   20.5781 N   0  0  0  0  0  0
  -22.0384  -12.8348   22.0410 N   0  0  0  0  0  0
  -25.4089  -15.2006   20.4149 N   0  0  0  0  0  0
  -31.8065  -14.9412   20.1148 O   0  0  0  0  0  0
  -21.6665   -6.8917   21.4275 O   0  0  0  0  0  0
  -22.3522  -14.5569   20.6653 O   0  0  0  0  0  0
  -24.6394  -31.8485   23.1931 C   0  0  0  0  0  0
  -25.9173  -32.4721   23.8270 C   0  0  1  0  0  0
  -27.2150  -27.1663   20.1492 C   0  0  0  0  0  0
  -25.5962  -33.8526   24.2206 N   0  0  0  0  0  0
  -23.4388  -30.4709   21.5408 C   0  0  2  0  0  0
  -24.8861  -28.8939   20.1233 C   0  0  0  0  0  0
  -22.7518  -29.4595   22.4921 C   0  0  0  0  0  0
  -18.0280  -28.1373   22.8531 C   0  0  0  0  0  0
  -24.1495  -36.7264   23.2629 C   0  0  0  0  0  0
  -25.9975  -30.7283   21.3888 C   0  0  0  0  0  0
  -26.0679  -29.3413   20.7321 C   0  0  0  0  0  0
  -27.2377  -28.4960   20.7232 C   0  0  0  0  0  0
  -26.0053  -26.8039   19.5198 C   0  0  0  0  0  0
  -24.8627  -27.6320   19.5094 C   0  0  0  0  0  0
  -23.6660  -29.8002   20.1610 C   0  0  0  0  0  0
  -25.4130  -36.3052   24.0305 C   0  0  1  0  0  0
  -20.5892  -28.3702   23.1269 C   0  0  2  0  0  0
  -20.6788  -26.9419   22.5402 C   0  0  0  0  0  0
  -19.5730  -26.6390   21.5239 C   0  0  0  0  0  0
  -18.1930  -26.7904   22.1679 C   0  0  0  0  0  0
  -19.1536  -28.8860   23.2897 C   0  0  0  0  0  0
  -18.9461  -30.1462   23.8898 C   0  0  0  0  0  0
  -17.6460  -30.6611   24.0539 C   0  0  0  0  0  0
  -25.9074  -34.9416   23.5062 C   0  0  0  0  0  0
  -16.5355  -29.9076   23.6345 C   0  0  0  0  0  0
  -16.7271  -28.6475   23.0402 C   0  0  0  0  0  0
  -26.4512  -31.6576   25.0696 C   0  0  0  0  0  0
  -25.3696  -31.3747   26.1387 C   0  0  0  0  0  0
  -27.0365  -30.2975   24.6255 C   0  0  0  0  0  0
  -27.6058  -32.4327   25.7473 C   0  0  0  0  0  0
  -27.5589  -37.1782   24.8459 C   0  0  0  0  0  0
  -21.4211  -29.3078   22.3684 N   0  0  0  0  0  0
  -26.4302  -37.3763   23.9403 N   0  0  0  0  0  0
  -24.7113  -31.0368   22.0965 N   0  0  0  0  0  0
  -23.4187  -28.8091   23.3001 O   0  0  0  0  0  0
  -28.2718  -26.1986   20.1237 O   0  0  0  0  0  0
  -26.5655  -34.8892   22.4636 O   0  0  0  0  0  0
  -23.5528  -32.1378   23.7182 O   0  0  0  0  0  0
  -27.9234  -20.9847   19.8074 C   0  0  0  0  0  0
  -29.6800  -22.6398   21.0126 C   0  0  0  0  0  0
  -27.6497  -22.4052   19.8495 C   0  0  0  0  0  0
  -28.5381  -23.3398   20.4743 C   0  0  0  0  0  0
  -29.0629  -20.3701   20.4081 C   0  0  0  0  0  0
  -26.3013  -22.8671   19.3273 C   0  0  0  0  0  0
  -28.1192  -24.8802   20.8965 C   0  0  0  0  0  0
  -29.0837  -18.7494   20.6981 C   0  0  0  0  0  0
  -30.2067  -17.5751   20.3638 C   0  0  0  0  0  0
  -29.9212  -21.2626   21.0003 N   0  0  0  0  0  0
  -29.8620  -16.0568   20.5806 N   0  0  0  0  0  0
  -31.4914  -12.6983   19.1714 H   0  0  0  0  0  0
  -30.4497  -11.5975   20.0258 H   0  0  0  0  0  0
  -29.8365  -11.7053   17.5864 H   0  0  0  0  0  0
  -29.6517  -13.4388   17.6888 H   0  0  0  0  0  0
  -27.9513  -11.2808   18.9726 H   0  0  0  0  0  0
  -27.4106  -12.4714   17.8121 H   0  0  0  0  0  0
  -27.6099  -14.2570   19.4195 H   0  0  0  0  0  0
  -28.7616  -12.3246   21.4981 H   0  0  0  0  0  0
  -28.4082  -14.0220   21.7260 H   0  0  0  0  0  0
  -25.2803   -9.5684   22.4765 H   0  0  0  0  0  0
  -24.0035   -7.4661   22.7513 H   0  0  0  0  0  0
  -21.0850   -8.8884   19.8970 H   0  0  0  0  0  0
  -22.3812  -10.9745   19.6194 H   0  0  0  0  0  0
  -21.2021   -7.6147   23.9751 H   0  0  0  0  0  0
  -21.1469   -6.0477   25.9075 H   0  0  0  0  0  0
  -22.0601   -2.7612   23.2806 H   0  0  0  0  0  0
  -22.3928  -12.0071   22.4949 H   0  0  0  0  0  0
  -21.1003  -13.1482   22.2485 H   0  0  0  0  0  0
  -24.6280  -15.8421   20.5108 H   0  0  0  0  0  0
  -26.2469  -15.6542   20.0752 H   0  0  0  0  0  0
  -26.7226  -32.5335   23.0985 H   0  0  0  0  0  0
  -25.0108  -33.9622   25.0354 H   0  0  0  0  0  0
  -22.7388  -31.2968   21.3908 H   0  0  0  0  0  0
  -23.3772  -35.9587   23.3305 H   0  0  0  0  0  0
  -24.3595  -36.8885   22.2045 H   0  0  0  0  0  0
  -23.7210  -37.6445   23.6666 H   0  0  0  0  0  0
  -26.1606  -31.4849   20.6192 H   0  0  0  0  0  0
  -26.8671  -30.7760   22.0325 H   0  0  0  0  0  0
  -28.1454  -28.8428   21.1972 H   0  0  0  0  0  0
  -25.9287  -25.8393   19.0417 H   0  0  0  0  0  0
  -23.9533  -27.2815   19.0381 H   0  0  0  0  0  0
  -23.8171  -30.5832   19.4174 H   0  0  0  0  0  0
  -22.7766  -29.2545   19.8366 H   0  0  0  0  0  0
  -25.1321  -36.1899   25.0802 H   0  0  0  0  0  0
  -20.9987  -28.3247   24.1382 H   0  0  0  0  0  0
  -20.5719  -26.2295   23.3605 H   0  0  0  0  0  0
  -21.6641  -26.7424   22.1169 H   0  0  0  0  0  0
  -19.6890  -25.6297   21.1271 H   0  0  0  0  0  0
  -19.6617  -27.3207   20.6763 H   0  0  0  0  0  0
  -17.4164  -26.6598   21.4126 H   0  0  0  0  0  0
  -18.0324  -26.0045   22.9075 H   0  0  0  0  0  0
  -19.7923  -30.7315   24.2234 H   0  0  0  0  0  0
  -17.4989  -31.6299   24.5094 H   0  0  0  0  0  0
  -15.5354  -30.2976   23.7665 H   0  0  0  0  0  0
  -15.8668  -28.0789   22.7127 H   0  0  0  0  0  0
  -24.5898  -30.7084   25.7688 H   0  0  0  0  0  0
  -24.8860  -32.2921   26.4749 H   0  0  0  0  0  0
  -25.7966  -30.8946   27.0194 H   0  0  0  0  0  0
  -26.2960  -29.6723   24.1260 H   0  0  0  0  0  0
  -27.3996  -29.7252   25.4803 H   0  0  0  0  0  0
  -27.8870  -30.4237   23.9550 H   0  0  0  0  0  0
  -27.2661  -33.3642   26.2011 H   0  0  0  0  0  0
  -28.3869  -32.6864   25.0293 H   0  0  0  0  0  0
  -28.0726  -31.8472   26.5408 H   0  0  0  0  0  0
  -28.2588  -38.0097   24.7554 H   0  0  0  0  0  0
  -28.1099  -36.2634   24.6255 H   0  0  0  0  0  0
  -27.2307  -37.1366   25.8856 H   0  0  0  0  0  0
  -20.9401  -29.8838   21.6930 H   0  0  0  0  0  0
  -26.0187  -38.2835   24.1432 H   0  0  0  0  0  0
  -27.1667  -20.3326   19.3910 H   0  0  0  0  0  0
  -30.4070  -23.1969   21.5849 H   0  0  0  0  0  0
  -25.6488  -23.1488   20.1553 H   0  0  0  0  0  0
  -25.7978  -22.0718   18.7792 H   0  0  0  0  0  0
  -26.4052  -23.7099   18.6475 H   0  0  0  0  0  0
  -28.7150  -25.0681   21.7896 H   0  0  0  0  0  0
  -27.1020  -24.8307   21.2895 H   0  0  0  0  0  0
  -28.1920  -18.3779   20.1924 H   0  0  0  0  0  0
  -28.8545  -18.6625   21.7589 H   0  0  0  0  0  0
  -30.4993  -17.6848   19.3179 H   0  0  0  0  0  0
  -31.1096  -17.7921   20.9391 H   0  0  0  0  0  0
  -28.8902  -15.8771   20.7840 H   0  0  0  0  0  0
  1 25  1  0  0  0
  1 30  2  0  0  0
  1 81  1  0  0  0
  2  3  1  0  0  0
  2 25  1  0  0  0
  2 82  1  0  0  0
  2 83  1  0  0  0
  3  4  1  0  0  0
  3 84  1  0  0  0
  3 85  1  0  0  0
  4  5  1  0  0  0
  4 86  1  0  0  0
  4 87  1  0  0  0
  5  6  1  0  0  0
  5 26  1  0  0  0
  5 88  1  0  0  0
  6 25  1  0  0  0
  6 89  1  0  0  0
  6 90  1  0  0  0
  7  8  2  0  0  0
  7 26  1  0  0  0
  7 29  1  0  0  0
  8  9  1  0  0  0
  8 22  1  0  0  0
  9 10  1  0  0  0
  9 27  2  0  0  0
 10 11  2  0  0  0
 10 15  1  0  0  0
 11 12  1  0  0  0
 11 91  1  0  0  0
 12 13  2  0  0  0
 12 92  1  0  0  0
 13 14  1  0  0  0
 13 31  1  0  0  0
 14 15  2  0  0  0
 14 93  1  0  0  0
 15 94  1  0  0  0
 16 17  2  0  0  0
 16 21  1  0  0  0
 16 31  1  0  0  0
 17 18  1  0  0  0
 17 95  1  0  0  0
 18 19  2  0  0  0
 18 96  1  0  0  0
 19 20  1  0  0  0
 19 24  1  0  0  0
 20 21  2  0  0  0
 20 97  1  0  0  0
 21 23  1  0  0  0
 22 28  1  0  0  0
 22 32  2  0  0  0
 26 27  1  0  0  0
 28 98  1  0  0  0
 28 99  1  0  0  0
 29100  1  0  0  0
 29101  1  0  0  0
 33 34  1  0  0  0
 33 66  1  0  0  0
 33 70  2  0  0  0
 34 36  1  0  0  0
 34 59  1  0  0  0
 34102  1  0  0  0
 35 44  2  0  0  0
 35 45  1  0  0  0
 35 68  1  0  0  0
 36 56  1  0  0  0
 36103  1  0  0  0
 37 39  1  0  0  0
 37 47  1  0  0  0
 37 66  1  0  0  0
 37104  1  0  0  0
 38 43  2  0  0  0
 38 46  1  0  0  0
 38 47  1  0  0  0
 39 64  1  0  0  0
 39 67  2  0  0  0
 40 52  1  0  0  0
 40 53  2  0  0  0
 40 58  1  0  0  0
 41105  1  0  0  0
 41106  1  0  0  0
 41107  1  0  0  0
 41 48  1  0  0  0
 42 43  1  0  0  0
 42 66  1  0  0  0
 42108  1  0  0  0
 42109  1  0  0  0
 43 44  1  0  0  0
 44110  1  0  0  0
 45 46  2  0  0  0
 45111  1  0  0  0
 46112  1  0  0  0
 47113  1  0  0  0
 47114  1  0  0  0
 48 56  1  0  0  0
 48 65  1  0  0  0
 48115  1  0  0  0
 49 50  1  0  0  0
 49 53  1  0  0  0
 49 64  1  0  0  0
 49116  1  0  0  0
 50 51  1  0  0  0
 50117  1  0  0  0
 50118  1  0  0  0
 51 52  1  0  0  0
 51119  1  0  0  0
 51120  1  0  0  0
 52121  1  0  0  0
 52122  1  0  0  0
 53 54  1  0  0  0
 54 55  2  0  0  0
 54123  1  0  0  0
 55 57  1  0  0  0
 55124  1  0  0  0
 56 69  2  0  0  0
 57 58  2  0  0  0
 57125  1  0  0  0
 58126  1  0  0  0
 59 60  1  0  0  0
 59 61  1  0  0  0
 59 62  1  0  0  0
 60127  1  0  0  0
 60128  1  0  0  0
 60129  1  0  0  0
 61130  1  0  0  0
 61131  1  0  0  0
 61132  1  0  0  0
 62133  1  0  0  0
 62134  1  0  0  0
 62135  1  0  0  0
 63 65  1  0  0  0
 63136  1  0  0  0
 63137  1  0  0  0
 63138  1  0  0  0
 64139  1  0  0  0
 65140  1  0  0  0
 68 77  1  0  0  0
 71 73  2  0  0  0
 71 75  1  0  0  0
 71141  1  0  0  0
 72 74  2  0  0  0
 72 80  1  0  0  0
 72142  1  0  0  0
 73 74  1  0  0  0
 73 76  1  0  0  0
 74 77  1  0  0  0
 75 78  1  0  0  0
 75 80  2  0  0  0
 76143  1  0  0  0
 76144  1  0  0  0
 76145  1  0  0  0
 77146  1  0  0  0
 77147  1  0  0  0
 78 79  1  0  0  0
 78148  1  0  0  0
 78149  1  0  0  0
 79 81  1  0  0  0
 79150  1  0  0  0
 79151  1  0  0  0
 81152  1  0  0  0
M  ISO  4   1 100  68 101  77 101  81 100
M  END
> <chiral flag>
0

> <version>
0

> <s_m_source_file>
/data/baiqing/PycharmProjects/Reinvent-master-3.2/result/LINK_invent/BTK/process_docking_weight1_custom_sum_contain_oxygen_bond_distance_aromatic_linkinvent_7_9_3/rearranged_h_0036.sdf

> <i_m_source_file_index>
43

> <r_mmod_Potential_Energy-OPLS-2005>
299.298675537109

> <r_mmod_Stretch_Energy-OPLS-2005>
199.104125976562

> <r_mmod_Bend_Energy-OPLS-2005>
248.056091308594

> <r_mmod_Torsional_Energy-OPLS-2005>
244.078598022461

> <r_mmod_Improper_Torsional_Energy-OPLS-2005>
11.4874067306519

> <r_mmod_Van_der_Waal_Energy-OPLS-2005>
130.314758300781

> <r_mmod_Electrostatic_Energy-OPLS-2005>
-455.464294433594

> <r_mmod_Solvation_Energy-OPLS-2005>
-234.36408996582

> <b_mmod_Minimization_Converged-OPLS-2005>
0

> <r_mmod_RMS_Derivative-OPLS-2005>
5.05832576751709

$$$$
44
                    3D
 Structure written by MMmdl.
167175  0  0  1  0            999 V2000
  -30.7052  -14.4942   20.4743 C   0  0  0  0  0  0
  -30.4194  -12.2885   19.4351 C   0  0  0  0  0  0
  -29.5031  -12.4485   18.2069 C   0  0  0  0  0  0
  -28.0155  -12.3646   18.6111 C   0  0  0  0  0  0
  -27.6560  -13.2111   19.8645 C   0  0  2  0  0  0
  -28.7049  -13.0370   20.9840 C   0  0  0  0  0  0
  -25.2554  -13.8118   20.5695 C   0  0  0  0  0  0
  -24.1837  -13.0400   20.9213 C   0  0  0  0  0  0
  -24.6405  -11.6865   20.8758 C   0  0  0  0  0  0
  -23.9066  -10.4263   21.0417 C   0  0  0  0  0  0
  -24.3604   -9.4178   21.9203 C   0  0  0  0  0  0
  -23.6272   -8.2221   22.0763 C   0  0  0  0  0  0
  -22.4259   -8.0261   21.3550 C   0  0  0  0  0  0
  -21.9902   -9.0239   20.4653 C   0  0  0  0  0  0
  -22.7236  -10.2115   20.3062 C   0  0  0  0  0  0
  -21.6849   -6.0715   22.5277 C   0  0  0  0  0  0
  -21.4026   -6.5627   23.8208 C   0  0  0  0  0  0
  -21.3668   -5.6784   24.9174 C   0  0  0  0  0  0
  -21.6051   -4.3047   24.7229 C   0  0  0  0  0  0
  -21.8805   -3.8129   23.4351 C   0  0  0  0  0  0
  -21.9188   -4.6942   22.3404 C   0  0  0  0  0  0
  -22.7859  -13.5204   21.1845 C   0  0  0  0  0  0
  -22.1654   -4.2127   21.0979 F   0  0  0  0  0  0
  -21.5629   -3.4532   25.7745 F   0  0  0  0  0  0
  -30.0238  -13.3190   20.4049 N   0  0  0  0  0  0
  -26.3008  -12.9320   20.3356 N   0  0  0  0  0  0
  -25.9334  -11.6472   20.5784 N   0  0  0  0  0  0
  -22.0484  -12.8232   22.0404 N   0  0  0  0  0  0
  -25.4189  -15.1819   20.4010 N   0  0  0  0  0  0
  -31.9084  -14.5645   20.2069 O   0  0  0  0  0  0
  -21.6627   -6.8860   21.4239 O   0  0  0  0  0  0
  -22.3557  -14.5502   20.6649 O   0  0  0  0  0  0
  -24.6123  -31.8694   23.2125 C   0  0  0  0  0  0
  -25.9019  -32.4831   23.8419 C   0  0  1  0  0  0
  -27.2327  -27.4476   20.0925 C   0  0  0  0  0  0
  -25.5879  -33.8634   24.2362 N   0  0  0  0  0  0
  -23.4003  -30.4941   21.5517 C   0  0  2  0  0  0
  -24.8484  -28.9688   20.1121 C   0  0  0  0  0  0
  -22.7400  -29.4656   22.4982 C   0  0  0  0  0  0
  -18.0265  -28.1380   22.8485 C   0  0  0  0  0  0
  -24.1477  -36.7322   23.2635 C   0  0  0  0  0  0
  -25.9280  -30.8406   21.3632 C   0  0  0  0  0  0
  -26.0071  -29.4760   20.7124 C   0  0  0  0  0  0
  -27.2031  -28.7231   20.7002 C   0  0  0  0  0  0
  -26.0554  -26.9628   19.4726 C   0  0  0  0  0  0
  -24.8670  -27.7113   19.4896 C   0  0  0  0  0  0
  -23.6099  -29.8319   20.1646 C   0  0  0  0  0  0
  -25.4097  -36.3127   24.0343 C   0  0  1  0  0  0
  -20.5855  -28.3666   23.1327 C   0  0  2  0  0  0
  -20.6756  -26.9404   22.5423 C   0  0  0  0  0  0
  -19.5734  -26.6392   21.5216 C   0  0  0  0  0  0
  -18.1911  -26.7922   22.1625 C   0  0  0  0  0  0
  -19.1515  -28.8837   23.2896 C   0  0  0  0  0  0
  -18.9446  -30.1438   23.8913 C   0  0  0  0  0  0
  -17.6451  -30.6581   24.0573 C   0  0  0  0  0  0
  -25.9019  -34.9489   23.5152 C   0  0  0  0  0  0
  -16.5340  -29.9094   23.6325 C   0  0  0  0  0  0
  -16.7257  -28.6516   23.0335 C   0  0  0  0  0  0
  -26.4467  -31.6588   25.0725 C   0  0  0  0  0  0
  -25.3734  -31.3703   26.1476 C   0  0  0  0  0  0
  -27.0305  -30.3043   24.6072 C   0  0  0  0  0  0
  -27.6056  -32.4284   25.7484 C   0  0  0  0  0  0
  -27.5582  -37.1810   24.8466 C   0  0  0  0  0  0
  -21.4127  -29.3042   22.3741 N   0  0  0  0  0  0
  -26.4299  -37.3799   23.9406 N   0  0  0  0  0  0
  -24.6649  -31.0800   22.1024 N   0  0  0  0  0  0
  -23.4182  -28.8170   23.2993 O   0  0  0  0  0  0
  -28.3925  -26.6988   20.1268 O   0  0  0  0  0  0
  -26.5581  -34.8943   22.4709 O   0  0  0  0  0  0
  -23.5319  -32.1442   23.7525 O   0  0  0  0  0  0
  -30.7848  -18.4206   21.9288 C   0  0  0  0  0  0
  -30.9924  -19.8071   21.8160 C   0  0  0  0  0  0
  -29.5578  -17.8636   21.5091 C   0  0  0  0  0  0
  -29.9763  -20.6100   21.2721 C   0  0  0  0  0  0
  -28.5650  -18.7626   21.0341 C   0  0  0  0  0  0
  -26.1111  -18.6184   21.6737 C   0  0  0  0  0  0
  -28.9606  -16.3449   18.0919 C   0  0  0  0  0  0
  -29.4073  -16.3255   21.5040 C   0  0  0  0  0  0
  -30.2599  -22.0662   20.9004 C   0  0  0  0  0  0
  -27.1719  -18.3272   20.6051 C   0  0  0  0  0  0
  -29.0885  -23.0542   21.0808 C   0  0  0  0  0  0
  -29.4366  -24.5047   20.6632 C   0  0  0  0  0  0
  -30.1483  -16.4045   19.0690 C   0  0  0  0  0  0
  -28.1849  -25.2859   20.2356 C   0  0  0  0  0  0
  -28.7861  -20.0921   20.9028 N   0  0  0  0  0  0
  -29.9373  -15.6078   20.3108 N   0  0  0  0  0  0
  -31.4649  -12.3710   19.1335 H   0  0  0  0  0  0
  -30.3102  -11.2957   19.8734 H   0  0  0  0  0  0
  -29.7288  -11.6789   17.4674 H   0  0  0  0  0  0
  -29.7153  -13.3965   17.7161 H   0  0  0  0  0  0
  -27.7934  -11.3146   18.8021 H   0  0  0  0  0  0
  -27.3859  -12.6574   17.7702 H   0  0  0  0  0  0
  -27.6773  -14.2526   19.5507 H   0  0  0  0  0  0
  -28.6833  -12.0178   21.3727 H   0  0  0  0  0  0
  -28.4913  -13.6879   21.8315 H   0  0  0  0  0  0
  -25.2744   -9.5640   22.4790 H   0  0  0  0  0  0
  -23.9967   -7.4605   22.7482 H   0  0  0  0  0  0
  -21.0830   -8.8740   19.8970 H   0  0  0  0  0  0
  -22.3688  -10.9641   19.6164 H   0  0  0  0  0  0
  -21.2032   -7.6138   23.9703 H   0  0  0  0  0  0
  -21.1522   -6.0528   25.9079 H   0  0  0  0  0  0
  -22.0585   -2.7590   23.2855 H   0  0  0  0  0  0
  -22.4073  -11.9903   22.4842 H   0  0  0  0  0  0
  -21.1099  -13.1283   22.2557 H   0  0  0  0  0  0
  -24.6378  -15.8225   20.4794 H   0  0  0  0  0  0
  -26.2439  -15.6006   19.9971 H   0  0  0  0  0  0
  -26.7085  -32.5577   23.1189 H   0  0  0  0  0  0
  -25.0058  -33.9795   25.0531 H   0  0  0  0  0  0
  -22.6876  -31.3097   21.4126 H   0  0  0  0  0  0
  -23.3740  -35.9645   23.3304 H   0  0  0  0  0  0
  -24.3590  -36.8931   22.2047 H   0  0  0  0  0  0
  -23.7230  -37.6534   23.6647 H   0  0  0  0  0  0
  -26.0322  -31.6034   20.5892 H   0  0  0  0  0  0
  -26.8185  -30.9020   21.9765 H   0  0  0  0  0  0
  -28.0956  -29.1076   21.1746 H   0  0  0  0  0  0
  -26.0365  -26.0101   18.9653 H   0  0  0  0  0  0
  -23.9787  -27.3183   19.0148 H   0  0  0  0  0  0
  -23.7184  -30.6086   19.4058 H   0  0  0  0  0  0
  -22.7347  -29.2500   19.8690 H   0  0  0  0  0  0
  -25.1262  -36.2011   25.0835 H   0  0  0  0  0  0
  -20.9943  -28.3224   24.1445 H   0  0  0  0  0  0
  -20.5665  -26.2261   23.3595 H   0  0  0  0  0  0
  -21.6622  -26.7440   22.1198 H   0  0  0  0  0  0
  -19.6896  -25.6315   21.1215 H   0  0  0  0  0  0
  -19.6679  -27.3223   20.6762 H   0  0  0  0  0  0
  -17.4176  -26.6669   21.4029 H   0  0  0  0  0  0
  -18.0308  -26.0070   22.9028 H   0  0  0  0  0  0
  -19.7929  -30.7243   24.2291 H   0  0  0  0  0  0
  -17.5016  -31.6260   24.5176 H   0  0  0  0  0  0
  -15.5342  -30.2999   23.7651 H   0  0  0  0  0  0
  -15.8656  -28.0852   22.7024 H   0  0  0  0  0  0
  -24.5908  -30.7034   25.7843 H   0  0  0  0  0  0
  -24.8897  -32.2851   26.4909 H   0  0  0  0  0  0
  -25.8074  -30.8904   27.0253 H   0  0  0  0  0  0
  -26.2860  -29.6785   24.1131 H   0  0  0  0  0  0
  -27.4129  -29.7292   25.4518 H   0  0  0  0  0  0
  -27.8660  -30.4395   23.9193 H   0  0  0  0  0  0
  -27.2716  -33.3598   26.2070 H   0  0  0  0  0  0
  -28.3868  -32.6807   25.0297 H   0  0  0  0  0  0
  -28.0711  -31.8378   26.5387 H   0  0  0  0  0  0
  -28.2596  -38.0113   24.7517 H   0  0  0  0  0  0
  -28.1081  -36.2643   24.6274 H   0  0  0  0  0  0
  -27.2297  -37.1440   25.8871 H   0  0  0  0  0  0
  -20.9273  -29.8838   21.7037 H   0  0  0  0  0  0
  -26.0194  -38.2877   24.1419 H   0  0  0  0  0  0
  -31.5817  -17.7861   22.2885 H   0  0  0  0  0  0
  -31.9471  -20.2390   22.0824 H   0  0  0  0  0  0
  -26.0561  -19.6838   21.8990 H   0  0  0  0  0  0
  -26.3434  -18.0890   22.5979 H   0  0  0  0  0  0
  -25.1242  -18.2930   21.3429 H   0  0  0  0  0  0
  -29.0428  -17.1342   17.3433 H   0  0  0  0  0  0
  -28.0008  -16.4657   18.5826 H   0  0  0  0  0  0
  -28.9269  -15.4049   17.5480 H   0  0  0  0  0  0
  -28.3680  -16.0390   21.6608 H   0  0  0  0  0  0
  -29.9190  -15.9564   22.3963 H   0  0  0  0  0  0
  -30.5849  -22.0767   19.8591 H   0  0  0  0  0  0
  -31.1106  -22.4194   21.4842 H   0  0  0  0  0  0
  -27.1482  -17.2693   20.3730 H   0  0  0  0  0  0
  -26.9129  -18.8360   19.6750 H   0  0  0  0  0  0
  -28.7399  -23.0446   22.1141 H   0  0  0  0  0  0
  -28.2475  -22.7020   20.4815 H   0  0  0  0  0  0
  -30.1345  -24.5004   19.8259 H   0  0  0  0  0  0
  -29.9426  -25.0076   21.4884 H   0  0  0  0  0  0
  -30.3975  -17.4441   19.2681 H   0  0  0  0  0  0
  -31.0202  -16.0600   18.5111 H   0  0  0  0  0  0
  -27.3895  -25.0941   20.9582 H   0  0  0  0  0  0
  -27.8568  -24.8886   19.2747 H   0  0  0  0  0  0
  1 25  1  0  0  0
  1 30  2  0  0  0
  1 86  1  0  0  0
  2  3  1  0  0  0
  2 25  1  0  0  0
  2 87  1  0  0  0
  2 88  1  0  0  0
  3  4  1  0  0  0
  3 89  1  0  0  0
  3 90  1  0  0  0
  4  5  1  0  0  0
  4 91  1  0  0  0
  4 92  1  0  0  0
  5  6  1  0  0  0
  5 26  1  0  0  0
  5 93  1  0  0  0
  6 25  1  0  0  0
  6 94  1  0  0  0
  6 95  1  0  0  0
  7  8  2  0  0  0
  7 26  1  0  0  0
  7 29  1  0  0  0
  8  9  1  0  0  0
  8 22  1  0  0  0
  9 10  1  0  0  0
  9 27  2  0  0  0
 10 11  2  0  0  0
 10 15  1  0  0  0
 11 12  1  0  0  0
 11 96  1  0  0  0
 12 13  2  0  0  0
 12 97  1  0  0  0
 13 14  1  0  0  0
 13 31  1  0  0  0
 14 15  2  0  0  0
 14 98  1  0  0  0
 15 99  1  0  0  0
 16 17  2  0  0  0
 16 21  1  0  0  0
 16 31  1  0  0  0
 17 18  1  0  0  0
 17100  1  0  0  0
 18 19  2  0  0  0
 18101  1  0  0  0
 19 20  1  0  0  0
 19 24  1  0  0  0
 20 21  2  0  0  0
 20102  1  0  0  0
 21 23  1  0  0  0
 22 28  1  0  0  0
 22 32  2  0  0  0
 26 27  1  0  0  0
 28103  1  0  0  0
 28104  1  0  0  0
 29105  1  0  0  0
 29106  1  0  0  0
 33 34  1  0  0  0
 33 66  1  0  0  0
 33 70  2  0  0  0
 34 36  1  0  0  0
 34 59  1  0  0  0
 34107  1  0  0  0
 35 44  2  0  0  0
 35 45  1  0  0  0
 35 68  1  0  0  0
 36 56  1  0  0  0
 36108  1  0  0  0
 37 39  1  0  0  0
 37 47  1  0  0  0
 37 66  1  0  0  0
 37109  1  0  0  0
 38 43  2  0  0  0
 38 46  1  0  0  0
 38 47  1  0  0  0
 39 64  1  0  0  0
 39 67  2  0  0  0
 40 52  1  0  0  0
 40 53  2  0  0  0
 40 58  1  0  0  0
 41110  1  0  0  0
 41111  1  0  0  0
 41112  1  0  0  0
 41 48  1  0  0  0
 42 43  1  0  0  0
 42 66  1  0  0  0
 42113  1  0  0  0
 42114  1  0  0  0
 43 44  1  0  0  0
 44115  1  0  0  0
 45 46  2  0  0  0
 45116  1  0  0  0
 46117  1  0  0  0
 47118  1  0  0  0
 47119  1  0  0  0
 48 56  1  0  0  0
 48 65  1  0  0  0
 48120  1  0  0  0
 49 50  1  0  0  0
 49 53  1  0  0  0
 49 64  1  0  0  0
 49121  1  0  0  0
 50 51  1  0  0  0
 50122  1  0  0  0
 50123  1  0  0  0
 51 52  1  0  0  0
 51124  1  0  0  0
 51125  1  0  0  0
 52126  1  0  0  0
 52127  1  0  0  0
 53 54  1  0  0  0
 54 55  2  0  0  0
 54128  1  0  0  0
 55 57  1  0  0  0
 55129  1  0  0  0
 56 69  2  0  0  0
 57 58  2  0  0  0
 57130  1  0  0  0
 58131  1  0  0  0
 59 60  1  0  0  0
 59 61  1  0  0  0
 59 62  1  0  0  0
 60132  1  0  0  0
 60133  1  0  0  0
 60134  1  0  0  0
 61135  1  0  0  0
 61136  1  0  0  0
 61137  1  0  0  0
 62138  1  0  0  0
 62139  1  0  0  0
 62140  1  0  0  0
 63 65  1  0  0  0
 63141  1  0  0  0
 63142  1  0  0  0
 63143  1  0  0  0
 64144  1  0  0  0
 65145  1  0  0  0
 68 84  1  0  0  0
 71 72  2  0  0  0
 71 73  1  0  0  0
 71146  1  0  0  0
 72 74  1  0  0  0
 72147  1  0  0  0
 73 75  2  0  0  0
 73 78  1  0  0  0
 74 79  1  0  0  0
 74 85  2  0  0  0
 75 80  1  0  0  0
 75 85  1  0  0  0
 76 80  1  0  0  0
 76148  1  0  0  0
 76149  1  0  0  0
 76150  1  0  0  0
 77 83  1  0  0  0
 77151  1  0  0  0
 77152  1  0  0  0
 77153  1  0  0  0
 78 86  1  0  0  0
 78154  1  0  0  0
 78155  1  0  0  0
 79 81  1  0  0  0
 79156  1  0  0  0
 79157  1  0  0  0
 80158  1  0  0  0
 80159  1  0  0  0
 81 82  1  0  0  0
 81160  1  0  0  0
 81161  1  0  0  0
 82 84  1  0  0  0
 82162  1  0  0  0
 82163  1  0  0  0
 83 86  1  0  0  0
 83164  1  0  0  0
 83165  1  0  0  0
 84166  1  0  0  0
 84167  1  0  0  0
M  ISO  4   1 100  68 101  84 101  86 100
M  END
> <chiral flag>
0

> <version>
0

> <s_m_source_file>
/data/baiqing/PycharmProjects/Reinvent-master-3.2/result/LINK_invent/BTK/process_docking_weight1_custom_sum_contain_oxygen_bond_distance_aromatic_linkinvent_7_9_3/rearranged_h_0036.sdf

> <i_m_source_file_index>
44

> <r_mmod_Potential_Energy-OPLS-2005>
18.9260520935059

> <r_mmod_Stretch_Energy-OPLS-2005>
41.3859252929688

> <r_mmod_Bend_Energy-OPLS-2005>
99.1489639282227

> <r_mmod_Torsional_Energy-OPLS-2005>
294.213226318359

> <r_mmod_Improper_Torsional_Energy-OPLS-2005>
20.2896175384521

> <r_mmod_Van_der_Waal_Energy-OPLS-2005>
156.455062866211

> <r_mmod_Electrostatic_Energy-OPLS-2005>
-419.05078125

> <r_mmod_Solvation_Energy-OPLS-2005>
-196.084106445312

> <b_mmod_Minimization_Converged-OPLS-2005>
0

> <r_mmod_RMS_Derivative-OPLS-2005>
2.42966723442078

$$$$
45
                    3D
 Structure written by MMmdl.
177185  0  0  1  0            999 V2000
  -30.7030  -14.4060   20.6178 C   0  0  0  0  0  0
  -30.4305  -12.2774   19.4143 C   0  0  0  0  0  0
  -29.4979  -12.5195   18.2076 C   0  0  0  0  0  0
  -28.0157  -12.3868   18.6121 C   0  0  0  0  0  0
  -27.6706  -13.1974   19.8878 C   0  0  2  0  0  0
  -28.7057  -12.9155   21.0006 C   0  0  0  0  0  0
  -25.2616  -13.8146   20.5660 C   0  0  0  0  0  0
  -24.1833  -13.0438   20.9135 C   0  0  0  0  0  0
  -24.6385  -11.6902   20.8721 C   0  0  0  0  0  0
  -23.9046  -10.4291   21.0393 C   0  0  0  0  0  0
  -24.3603   -9.4208   21.9171 C   0  0  0  0  0  0
  -23.6289   -8.2241   22.0738 C   0  0  0  0  0  0
  -22.4274   -8.0279   21.3528 C   0  0  0  0  0  0
  -21.9905   -9.0251   20.4635 C   0  0  0  0  0  0
  -22.7221  -10.2141   20.3048 C   0  0  0  0  0  0
  -21.6861   -6.0725   22.5263 C   0  0  0  0  0  0
  -21.4025   -6.5621   23.8198 C   0  0  0  0  0  0
  -21.3666   -5.6772   24.9155 C   0  0  0  0  0  0
  -21.6049   -4.3031   24.7211 C   0  0  0  0  0  0
  -21.8818   -3.8130   23.4328 C   0  0  0  0  0  0
  -21.9202   -4.6952   22.3388 C   0  0  0  0  0  0
  -22.7859  -13.5255   21.1781 C   0  0  0  0  0  0
  -22.1661   -4.2130   21.0964 F   0  0  0  0  0  0
  -21.5646   -3.4515   25.7721 F   0  0  0  0  0  0
  -30.0518  -13.2212   20.4748 N   0  0  0  0  0  0
  -26.3053  -12.9292   20.3404 N   0  0  0  0  0  0
  -25.9304  -11.6463   20.5760 N   0  0  0  0  0  0
  -22.0503  -12.8278   22.0382 N   0  0  0  0  0  0
  -25.4386  -15.1850   20.4062 N   0  0  0  0  0  0
  -31.7770  -14.6676   20.0678 O   0  0  0  0  0  0
  -21.6640   -6.8874   21.4230 O   0  0  0  0  0  0
  -22.3546  -14.5551   20.6629 O   0  0  0  0  0  0
  -24.6112  -31.8700   23.2109 C   0  0  0  0  0  0
  -25.9020  -32.4827   23.8398 C   0  0  1  0  0  0
  -27.2412  -27.4590   20.1058 C   0  0  0  0  0  0
  -25.5887  -33.8631   24.2331 N   0  0  0  0  0  0
  -23.3976  -30.4934   21.5497 C   0  0  2  0  0  0
  -24.8460  -28.9584   20.1170 C   0  0  0  0  0  0
  -22.7378  -29.4680   22.4995 C   0  0  0  0  0  0
  -18.0264  -28.1377   22.8496 C   0  0  0  0  0  0
  -24.1486  -36.7325   23.2638 C   0  0  0  0  0  0
  -25.9226  -30.8450   21.3586 C   0  0  0  0  0  0
  -26.0023  -29.4797   20.7100 C   0  0  0  0  0  0
  -27.2020  -28.7385   20.6978 C   0  0  0  0  0  0
  -26.0713  -26.9476   19.5000 C   0  0  0  0  0  0
  -24.8743  -27.6902   19.5083 C   0  0  0  0  0  0
  -23.6052  -29.8211   20.1648 C   0  0  0  0  0  0
  -25.4105  -36.3120   24.0337 C   0  0  1  0  0  0
  -20.5848  -28.3669   23.1319 C   0  0  2  0  0  0
  -20.6756  -26.9409   22.5417 C   0  0  0  0  0  0
  -19.5735  -26.6392   21.5213 C   0  0  0  0  0  0
  -18.1913  -26.7924   22.1627 C   0  0  0  0  0  0
  -19.1512  -28.8837   23.2907 C   0  0  0  0  0  0
  -18.9445  -30.1441   23.8919 C   0  0  0  0  0  0
  -17.6451  -30.6585   24.0571 C   0  0  0  0  0  0
  -25.9028  -34.9482   23.5130 C   0  0  0  0  0  0
  -16.5341  -29.9095   23.6320 C   0  0  0  0  0  0
  -16.7257  -28.6510   23.0344 C   0  0  0  0  0  0
  -26.4458  -31.6595   25.0715 C   0  0  0  0  0  0
  -25.3732  -31.3705   26.1468 C   0  0  0  0  0  0
  -27.0278  -30.3035   24.6081 C   0  0  0  0  0  0
  -27.6035  -32.4307   25.7478 C   0  0  0  0  0  0
  -27.5580  -37.1815   24.8463 C   0  0  0  0  0  0
  -21.4112  -29.3046   22.3728 N   0  0  0  0  0  0
  -26.4295  -37.3797   23.9406 N   0  0  0  0  0  0
  -24.6618  -31.0828   22.0992 N   0  0  0  0  0  0
  -23.4162  -28.8231   23.3035 O   0  0  0  0  0  0
  -28.4331  -26.7717   20.1041 O   0  0  0  0  0  0
  -26.5594  -34.8925   22.4692 O   0  0  0  0  0  0
  -23.5311  -32.1441   23.7522 O   0  0  0  0  0  0
  -31.7819  -24.7925   15.7391 C   0  0  0  0  0  0
  -31.2099  -25.1566   16.9637 C   0  0  0  0  0  0
  -32.5709  -23.6319   15.6357 C   0  0  0  0  0  0
  -31.4143  -24.3750   18.1163 C   0  0  0  0  0  0
  -32.8258  -22.8477   16.7965 C   0  0  0  0  0  0
  -32.2472  -23.2195   18.0485 C   0  0  0  0  0  0
  -33.7061  -21.5986   16.7105 C   0  0  0  0  0  0
  -34.5406  -23.7265   14.0068 C   0  0  0  0  0  0
  -33.0964  -23.2634   14.2501 C   0  0  0  0  0  0
  -30.6906  -24.8444   19.3749 C   0  0  0  0  0  0
  -32.4933  -22.3445   19.2871 C   0  0  0  0  0  0
  -29.1694  -24.6146   19.2965 C   0  0  0  0  0  0
  -31.4259  -21.2451   19.4371 C   0  0  0  0  0  0
  -31.7966  -20.0940   20.3941 C   0  0  0  0  0  0
  -30.6547  -19.0617   20.4608 C   0  0  0  0  0  0
  -31.0114  -17.6826   21.0506 C   0  0  0  0  0  0
  -29.8272  -16.7184   20.8240 C   0  0  0  0  0  0
  -28.4001  -25.3706   20.3878 C   0  0  0  0  0  0
  -30.0002  -15.3378   21.2745 N   0  0  0  0  0  0
  -31.4721  -12.3931   19.1109 H   0  0  0  0  0  0
  -30.3412  -11.2531   19.7782 H   0  0  0  0  0  0
  -29.7303  -11.8178   17.4057 H   0  0  0  0  0  0
  -29.6797  -13.5173   17.8045 H   0  0  0  0  0  0
  -27.8087  -11.3296   18.7832 H   0  0  0  0  0  0
  -27.3747  -12.6945   17.7851 H   0  0  0  0  0  0
  -27.7366  -14.2551   19.6298 H   0  0  0  0  0  0
  -28.6621  -11.8640   21.2894 H   0  0  0  0  0  0
  -28.4622  -13.4665   21.9089 H   0  0  0  0  0  0
  -25.2766   -9.5674   22.4723 H   0  0  0  0  0  0
  -23.9995   -7.4631   22.7457 H   0  0  0  0  0  0
  -21.0834   -8.8784   19.8936 H   0  0  0  0  0  0
  -22.3698  -10.9678   19.6141 H   0  0  0  0  0  0
  -21.2014   -7.6127   23.9698 H   0  0  0  0  0  0
  -21.1495   -6.0492   25.9059 H   0  0  0  0  0  0
  -22.0606   -2.7586   23.2829 H   0  0  0  0  0  0
  -22.4125  -11.9970   22.4827 H   0  0  0  0  0  0
  -21.1101  -13.1284   22.2536 H   0  0  0  0  0  0
  -24.6829  -15.8530   20.5095 H   0  0  0  0  0  0
  -26.3046  -15.6160   20.1073 H   0  0  0  0  0  0
  -26.7096  -32.5551   23.1172 H   0  0  0  0  0  0
  -25.0040  -33.9801   25.0478 H   0  0  0  0  0  0
  -22.6855  -31.3089   21.4090 H   0  0  0  0  0  0
  -23.3736  -35.9668   23.3311 H   0  0  0  0  0  0
  -24.3587  -36.8931   22.2051 H   0  0  0  0  0  0
  -23.7250  -37.6541   23.6642 H   0  0  0  0  0  0
  -26.0277  -31.6113   20.5896 H   0  0  0  0  0  0
  -26.8129  -30.9014   21.9734 H   0  0  0  0  0  0
  -28.0967  -29.1426   21.1511 H   0  0  0  0  0  0
  -26.0841  -25.9860   19.0076 H   0  0  0  0  0  0
  -23.9885  -27.2847   19.0392 H   0  0  0  0  0  0
  -23.7065  -30.5931   19.4012 H   0  0  0  0  0  0
  -22.7315  -29.2352   19.8732 H   0  0  0  0  0  0
  -25.1279  -36.1988   25.0829 H   0  0  0  0  0  0
  -20.9950  -28.3248   24.1436 H   0  0  0  0  0  0
  -20.5663  -26.2289   23.3611 H   0  0  0  0  0  0
  -21.6628  -26.7462   22.1211 H   0  0  0  0  0  0
  -19.6906  -25.6309   21.1234 H   0  0  0  0  0  0
  -19.6667  -27.3209   20.6745 H   0  0  0  0  0  0
  -17.4185  -26.6669   21.4028 H   0  0  0  0  0  0
  -18.0319  -26.0057   22.9016 H   0  0  0  0  0  0
  -19.7925  -30.7244   24.2301 H   0  0  0  0  0  0
  -17.5013  -31.6268   24.5174 H   0  0  0  0  0  0
  -15.5347  -30.3014   23.7625 H   0  0  0  0  0  0
  -15.8654  -28.0845   22.7043 H   0  0  0  0  0  0
  -24.5895  -30.7064   25.7810 H   0  0  0  0  0  0
  -24.8938  -32.2866   26.4926 H   0  0  0  0  0  0
  -25.8092  -30.8867   27.0216 H   0  0  0  0  0  0
  -26.2823  -29.6816   24.1113 H   0  0  0  0  0  0
  -27.4023  -29.7249   25.4537 H   0  0  0  0  0  0
  -27.8664  -30.4350   23.9238 H   0  0  0  0  0  0
  -27.2649  -33.3588   26.2091 H   0  0  0  0  0  0
  -28.3824  -32.6899   25.0297 H   0  0  0  0  0  0
  -28.0717  -31.8409   26.5368 H   0  0  0  0  0  0
  -28.2598  -38.0109   24.7498 H   0  0  0  0  0  0
  -28.1067  -36.2641   24.6289 H   0  0  0  0  0  0
  -27.2298  -37.1471   25.8864 H   0  0  0  0  0  0
  -20.9259  -29.8775   21.6963 H   0  0  0  0  0  0
  -26.0183  -38.2880   24.1388 H   0  0  0  0  0  0
  -31.5938  -25.4095   14.8711 H   0  0  0  0  0  0
  -30.5892  -26.0413   17.0139 H   0  0  0  0  0  0
  -34.0352  -21.3420   15.7069 H   0  0  0  0  0  0
  -33.1779  -20.7260   17.0965 H   0  0  0  0  0  0
  -34.6139  -21.7375   17.2981 H   0  0  0  0  0  0
  -34.8689  -23.4579   13.0013 H   0  0  0  0  0  0
  -35.2386  -23.2749   14.7127 H   0  0  0  0  0  0
  -34.6232  -24.8094   14.1007 H   0  0  0  0  0  0
  -32.4499  -23.7175   13.4971 H   0  0  0  0  0  0
  -32.9907  -22.1940   14.0754 H   0  0  0  0  0  0
  -30.8836  -25.9124   19.4718 H   0  0  0  0  0  0
  -31.0824  -24.4084   20.2896 H   0  0  0  0  0  0
  -32.5568  -22.9418   20.1933 H   0  0  0  0  0  0
  -33.4822  -21.8930   19.2328 H   0  0  0  0  0  0
  -28.9663  -23.5470   19.3734 H   0  0  0  0  0  0
  -28.7819  -24.9241   18.3263 H   0  0  0  0  0  0
  -31.2437  -20.8115   18.4526 H   0  0  0  0  0  0
  -30.4853  -21.6988   19.7443 H   0  0  0  0  0  0
  -32.0127  -20.4781   21.3914 H   0  0  0  0  0  0
  -32.7109  -19.6157   20.0399 H   0  0  0  0  0  0
  -30.2865  -18.9000   19.4466 H   0  0  0  0  0  0
  -29.8175  -19.4929   21.0105 H   0  0  0  0  0  0
  -31.2479  -17.7644   22.1122 H   0  0  0  0  0  0
  -31.9045  -17.3015   20.5550 H   0  0  0  0  0  0
  -29.5703  -16.6903   19.7630 H   0  0  0  0  0  0
  -28.9433  -17.1113   21.3274 H   0  0  0  0  0  0
  -28.8794  -25.2032   21.3534 H   0  0  0  0  0  0
  -27.3933  -24.9643   20.4924 H   0  0  0  0  0  0
  -29.2068  -14.9606   21.7726 H   0  0  0  0  0  0
  1 25  1  0  0  0
  1 30  2  0  0  0
  1 89  1  0  0  0
  2  3  1  0  0  0
  2 25  1  0  0  0
  2 90  1  0  0  0
  2 91  1  0  0  0
  3  4  1  0  0  0
  3 92  1  0  0  0
  3 93  1  0  0  0
  4  5  1  0  0  0
  4 94  1  0  0  0
  4 95  1  0  0  0
  5  6  1  0  0  0
  5 26  1  0  0  0
  5 96  1  0  0  0
  6 25  1  0  0  0
  6 97  1  0  0  0
  6 98  1  0  0  0
  7  8  2  0  0  0
  7 26  1  0  0  0
  7 29  1  0  0  0
  8  9  1  0  0  0
  8 22  1  0  0  0
  9 10  1  0  0  0
  9 27  2  0  0  0
 10 11  2  0  0  0
 10 15  1  0  0  0
 11 12  1  0  0  0
 11 99  1  0  0  0
 12 13  2  0  0  0
 12100  1  0  0  0
 13 14  1  0  0  0
 13 31  1  0  0  0
 14 15  2  0  0  0
 14101  1  0  0  0
 15102  1  0  0  0
 16 17  2  0  0  0
 16 21  1  0  0  0
 16 31  1  0  0  0
 17 18  1  0  0  0
 17103  1  0  0  0
 18 19  2  0  0  0
 18104  1  0  0  0
 19 20  1  0  0  0
 19 24  1  0  0  0
 20 21  2  0  0  0
 20105  1  0  0  0
 21 23  1  0  0  0
 22 28  1  0  0  0
 22 32  2  0  0  0
 26 27  1  0  0  0
 28106  1  0  0  0
 28107  1  0  0  0
 29108  1  0  0  0
 29109  1  0  0  0
 33 34  1  0  0  0
 33 66  1  0  0  0
 33 70  2  0  0  0
 34 36  1  0  0  0
 34 59  1  0  0  0
 34110  1  0  0  0
 35 44  2  0  0  0
 35 45  1  0  0  0
 35 68  1  0  0  0
 36 56  1  0  0  0
 36111  1  0  0  0
 37 39  1  0  0  0
 37 47  1  0  0  0
 37 66  1  0  0  0
 37112  1  0  0  0
 38 43  2  0  0  0
 38 46  1  0  0  0
 38 47  1  0  0  0
 39 64  1  0  0  0
 39 67  2  0  0  0
 40 52  1  0  0  0
 40 53  2  0  0  0
 40 58  1  0  0  0
 41113  1  0  0  0
 41114  1  0  0  0
 41115  1  0  0  0
 41 48  1  0  0  0
 42 43  1  0  0  0
 42 66  1  0  0  0
 42116  1  0  0  0
 42117  1  0  0  0
 43 44  1  0  0  0
 44118  1  0  0  0
 45 46  2  0  0  0
 45119  1  0  0  0
 46120  1  0  0  0
 47121  1  0  0  0
 47122  1  0  0  0
 48 56  1  0  0  0
 48 65  1  0  0  0
 48123  1  0  0  0
 49 50  1  0  0  0
 49 53  1  0  0  0
 49 64  1  0  0  0
 49124  1  0  0  0
 50 51  1  0  0  0
 50125  1  0  0  0
 50126  1  0  0  0
 51 52  1  0  0  0
 51127  1  0  0  0
 51128  1  0  0  0
 52129  1  0  0  0
 52130  1  0  0  0
 53 54  1  0  0  0
 54 55  2  0  0  0
 54131  1  0  0  0
 55 57  1  0  0  0
 55132  1  0  0  0
 56 69  2  0  0  0
 57 58  2  0  0  0
 57133  1  0  0  0
 58134  1  0  0  0
 59 60  1  0  0  0
 59 61  1  0  0  0
 59 62  1  0  0  0
 60135  1  0  0  0
 60136  1  0  0  0
 60137  1  0  0  0
 61138  1  0  0  0
 61139  1  0  0  0
 61140  1  0  0  0
 62141  1  0  0  0
 62142  1  0  0  0
 62143  1  0  0  0
 63 65  1  0  0  0
 63144  1  0  0  0
 63145  1  0  0  0
 63146  1  0  0  0
 64147  1  0  0  0
 65148  1  0  0  0
 68 88  1  0  0  0
 71 72  2  0  0  0
 71 73  1  0  0  0
 71149  1  0  0  0
 72 74  1  0  0  0
 72150  1  0  0  0
 73 75  2  0  0  0
 73 79  1  0  0  0
 74 76  2  0  0  0
 74 80  1  0  0  0
 75 76  1  0  0  0
 75 77  1  0  0  0
 76 81  1  0  0  0
 77151  1  0  0  0
 77152  1  0  0  0
 77153  1  0  0  0
 78 79  1  0  0  0
 78154  1  0  0  0
 78155  1  0  0  0
 78156  1  0  0  0
 79157  1  0  0  0
 79158  1  0  0  0
 80 82  1  0  0  0
 80159  1  0  0  0
 80160  1  0  0  0
 81 83  1  0  0  0
 81161  1  0  0  0
 81162  1  0  0  0
 82 88  1  0  0  0
 82163  1  0  0  0
 82164  1  0  0  0
 83 84  1  0  0  0
 83165  1  0  0  0
 83166  1  0  0  0
 84 85  1  0  0  0
 84167  1  0  0  0
 84168  1  0  0  0
 85 86  1  0  0  0
 85169  1  0  0  0
 85170  1  0  0  0
 86 87  1  0  0  0
 86171  1  0  0  0
 86172  1  0  0  0
 87 89  1  0  0  0
 87173  1  0  0  0
 87174  1  0  0  0
 88175  1  0  0  0
 88176  1  0  0  0
 89177  1  0  0  0
M  ISO  4   1 100  68 101  88 101  89 100
M  END
> <chiral flag>
0

> <version>
0

> <s_m_source_file>
/data/baiqing/PycharmProjects/Reinvent-master-3.2/result/LINK_invent/BTK/process_docking_weight1_custom_sum_contain_oxygen_bond_distance_aromatic_linkinvent_7_9_3/rearranged_h_0036.sdf

> <i_m_source_file_index>
45

> <r_mmod_Potential_Energy-OPLS-2005>
-61.0922431945801

> <r_mmod_Stretch_Energy-OPLS-2005>
37.5053558349609

> <r_mmod_Bend_Energy-OPLS-2005>
105.763595581055

> <r_mmod_Torsional_Energy-OPLS-2005>
227.446670532227

> <r_mmod_Improper_Torsional_Energy-OPLS-2005>
6.3833475112915

> <r_mmod_Van_der_Waal_Energy-OPLS-2005>
160.799606323242

> <r_mmod_Electrostatic_Energy-OPLS-2005>
-402.219604492188

> <r_mmod_Solvation_Energy-OPLS-2005>
-205.089279174805

> <b_mmod_Minimization_Converged-OPLS-2005>
0

> <r_mmod_RMS_Derivative-OPLS-2005>
2.70595979690552

$$$$
46
                    3D
 Structure written by MMmdl.
148156  0  0  1  0            999 V2000
  -30.5985  -14.9640   20.4123 C   0  0  0  0  0  0
  -30.4298  -12.5916   19.5405 C   0  0  0  0  0  0
  -29.5468  -12.5347   18.2770 C   0  0  0  0  0  0
  -28.0679  -12.3382   18.6581 C   0  0  0  0  0  0
  -27.6218  -13.2725   19.8147 C   0  0  2  0  0  0
  -28.6504  -13.3514   20.9608 C   0  0  0  0  0  0
  -25.2370  -13.8228   20.5589 C   0  0  0  0  0  0
  -24.1748  -13.0393   20.9186 C   0  0  0  0  0  0
  -24.6435  -11.6929   20.8667 C   0  0  0  0  0  0
  -23.9129  -10.4270   21.0328 C   0  0  0  0  0  0
  -24.3684   -9.4200   21.9103 C   0  0  0  0  0  0
  -23.6339   -8.2254   22.0724 C   0  0  0  0  0  0
  -22.4306   -8.0284   21.3529 C   0  0  0  0  0  0
  -21.9936   -9.0250   20.4624 C   0  0  0  0  0  0
  -22.7297  -10.2115   20.3001 C   0  0  0  0  0  0
  -21.6886   -6.0717   22.5253 C   0  0  0  0  0  0
  -21.4028   -6.5622   23.8179 C   0  0  0  0  0  0
  -21.3671   -5.6793   24.9139 C   0  0  0  0  0  0
  -21.6072   -4.3048   24.7208 C   0  0  0  0  0  0
  -21.8835   -3.8141   23.4326 C   0  0  0  0  0  0
  -21.9224   -4.6950   22.3388 C   0  0  0  0  0  0
  -22.7761  -13.5127   21.1874 C   0  0  0  0  0  0
  -22.1678   -4.2138   21.0958 F   0  0  0  0  0  0
  -21.5643   -3.4539   25.7712 F   0  0  0  0  0  0
  -29.9477  -13.7259   20.3827 N   0  0  0  0  0  0
  -26.2828  -12.9547   20.3025 N   0  0  0  0  0  0
  -25.9370  -11.6651   20.5576 N   0  0  0  0  0  0
  -22.0480  -12.8088   22.0467 N   0  0  0  0  0  0
  -25.3857  -15.1973   20.4064 N   0  0  0  0  0  0
  -31.8072  -14.9338   20.1617 O   0  0  0  0  0  0
  -21.6669   -6.8894   21.4223 O   0  0  0  0  0  0
  -22.3396  -14.5397   20.6697 O   0  0  0  0  0  0
  -24.6459  -31.8435   23.1846 C   0  0  0  0  0  0
  -25.9242  -32.4674   23.8240 C   0  0  1  0  0  0
  -27.2175  -27.1305   20.1630 C   0  0  0  0  0  0
  -25.5985  -33.8481   24.2140 N   0  0  0  0  0  0
  -23.4491  -30.4643   21.5282 C   0  0  2  0  0  0
  -24.9006  -28.8897   20.1107 C   0  0  0  0  0  0
  -22.7579  -29.4552   22.4827 C   0  0  0  0  0  0
  -18.0289  -28.1410   22.8469 C   0  0  0  0  0  0
  -24.1500  -36.7279   23.2634 C   0  0  0  0  0  0
  -26.0066  -30.7202   21.3802 C   0  0  0  0  0  0
  -26.0780  -29.3297   20.7259 C   0  0  0  0  0  0
  -27.2411  -28.4694   20.7290 C   0  0  0  0  0  0
  -26.0096  -26.7924   19.5132 C   0  0  0  0  0  0
  -24.8793  -27.6352   19.4875 C   0  0  0  0  0  0
  -23.6795  -29.7936   20.1485 C   0  0  0  0  0  0
  -25.4122  -36.3004   24.0287 C   0  0  1  0  0  0
  -20.5915  -28.3734   23.1237 C   0  0  2  0  0  0
  -20.6789  -26.9438   22.5402 C   0  0  0  0  0  0
  -19.5767  -26.6374   21.5225 C   0  0  0  0  0  0
  -18.1940  -26.7926   22.1624 C   0  0  0  0  0  0
  -19.1547  -28.8890   23.2841 C   0  0  0  0  0  0
  -18.9465  -30.1481   23.8865 C   0  0  0  0  0  0
  -17.6465  -30.6597   24.0564 C   0  0  0  0  0  0
  -25.9084  -34.9391   23.5016 C   0  0  0  0  0  0
  -16.5360  -29.9089   23.6350 C   0  0  0  0  0  0
  -16.7275  -28.6528   23.0349 C   0  0  0  0  0  0
  -26.4537  -31.6562   25.0713 C   0  0  0  0  0  0
  -25.3709  -31.3834   26.1412 C   0  0  0  0  0  0
  -27.0401  -30.2929   24.6351 C   0  0  0  0  0  0
  -27.6024  -32.4353   25.7543 C   0  0  0  0  0  0
  -27.5569  -37.1785   24.8445 C   0  0  0  0  0  0
  -21.4264  -29.3059   22.3615 N   0  0  0  0  0  0
  -26.4263  -37.3728   23.9400 N   0  0  0  0  0  0
  -24.7203  -31.0310   22.0863 N   0  0  0  0  0  0
  -23.4230  -28.8070   23.2960 O   0  0  0  0  0  0
  -28.2716  -26.1453   20.2295 O   0  0  0  0  0  0
  -26.5666  -34.8907   22.4600 O   0  0  0  0  0  0
  -23.5580  -32.1313   23.7062 O   0  0  0  0  0  0
  -28.5982  -16.8522   20.7235 C   0  0  0  0  0  0
  -30.5429  -17.7133   20.3182 C   0  0  0  0  0  0
  -29.9495  -16.4394   20.4980 C   0  0  0  0  0  0
  -28.7223  -21.6618   20.5215 C   0  0  0  0  0  0
  -29.0675  -23.3188   20.3293 C   0  0  0  0  0  0
  -29.7879  -20.3895   20.1900 C   0  0  0  0  0  0
  -27.9749  -24.6115   20.2854 C   0  0  0  0  0  0
  -28.4020  -18.2040   20.6453 N   0  0  0  0  0  0
  -29.6040  -18.8182   20.4075 N   0  0  0  0  0  0
  -31.4739  -12.7040   19.2512 H   0  0  0  0  0  0
  -30.3771  -11.6528   20.0942 H   0  0  0  0  0  0
  -29.8828  -11.7291   17.6223 H   0  0  0  0  0  0
  -29.6694  -13.4628   17.7165 H   0  0  0  0  0  0
  -27.9499  -11.2943   18.9496 H   0  0  0  0  0  0
  -27.4363  -12.4907   17.7830 H   0  0  0  0  0  0
  -27.5674  -14.2669   19.3705 H   0  0  0  0  0  0
  -28.7126  -12.4043   21.4975 H   0  0  0  0  0  0
  -28.3362  -14.0973   21.6918 H   0  0  0  0  0  0
  -25.2855   -9.5678   22.4620 H   0  0  0  0  0  0
  -24.0076   -7.4666   22.7434 H   0  0  0  0  0  0
  -21.0885   -8.8786   19.8919 H   0  0  0  0  0  0
  -22.3772  -10.9637   19.6093 H   0  0  0  0  0  0
  -21.1980   -7.6121   23.9677 H   0  0  0  0  0  0
  -21.1482   -6.0490   25.9046 H   0  0  0  0  0  0
  -22.0605   -2.7603   23.2813 H   0  0  0  0  0  0
  -22.4219  -11.9810   22.4870 H   0  0  0  0  0  0
  -21.1028  -13.0962   22.2614 H   0  0  0  0  0  0
  -24.6104  -15.8305   20.5652 H   0  0  0  0  0  0
  -26.1979  -15.6629   20.0259 H   0  0  0  0  0  0
  -26.7323  -32.5269   23.0986 H   0  0  0  0  0  0
  -25.0123  -33.9595   25.0276 H   0  0  0  0  0  0
  -22.7506  -31.2887   21.3698 H   0  0  0  0  0  0
  -23.3726  -35.9650   23.3267 H   0  0  0  0  0  0
  -24.3599  -36.8971   22.2063 H   0  0  0  0  0  0
  -23.7308  -37.6478   23.6721 H   0  0  0  0  0  0
  -26.1629  -31.4705   20.6022 H   0  0  0  0  0  0
  -26.8767  -30.7703   22.0234 H   0  0  0  0  0  0
  -28.1434  -28.8064   21.2211 H   0  0  0  0  0  0
  -25.8981  -25.8371   19.0271 H   0  0  0  0  0  0
  -23.9763  -27.2928   18.9969 H   0  0  0  0  0  0
  -23.8287  -30.5663   19.3933 H   0  0  0  0  0  0
  -22.7929  -29.2419   19.8303 H   0  0  0  0  0  0
  -25.1316  -36.1791   25.0770 H   0  0  0  0  0  0
  -20.9990  -28.3318   24.1372 H   0  0  0  0  0  0
  -20.5707  -26.2345   23.3620 H   0  0  0  0  0  0
  -21.6656  -26.7450   22.1204 H   0  0  0  0  0  0
  -19.6934  -25.6270   21.1304 H   0  0  0  0  0  0
  -19.6716  -27.3142   20.6733 H   0  0  0  0  0  0
  -17.4208  -26.6660   21.4033 H   0  0  0  0  0  0
  -18.0346  -26.0082   22.9038 H   0  0  0  0  0  0
  -19.7947  -30.7322   24.2210 H   0  0  0  0  0  0
  -17.5016  -31.6270   24.5182 H   0  0  0  0  0  0
  -15.5358  -30.2990   23.7694 H   0  0  0  0  0  0
  -15.8673  -28.0850   22.7069 H   0  0  0  0  0  0
  -24.5772  -30.7327   25.7735 H   0  0  0  0  0  0
  -24.9069  -32.3093   26.4825 H   0  0  0  0  0  0
  -25.7958  -30.8962   27.0196 H   0  0  0  0  0  0
  -26.3043  -29.6630   24.1332 H   0  0  0  0  0  0
  -27.3944  -29.7266   25.4977 H   0  0  0  0  0  0
  -27.8989  -30.4130   23.9737 H   0  0  0  0  0  0
  -27.2522  -33.3597   26.2147 H   0  0  0  0  0  0
  -28.3848  -32.7003   25.0427 H   0  0  0  0  0  0
  -28.0680  -31.8482   26.5468 H   0  0  0  0  0  0
  -28.2520  -38.0127   24.7472 H   0  0  0  0  0  0
  -28.1103  -36.2646   24.6242 H   0  0  0  0  0  0
  -27.2308  -37.1420   25.8848 H   0  0  0  0  0  0
  -20.9451  -29.8843   21.6869 H   0  0  0  0  0  0
  -26.0104  -38.2787   24.1383 H   0  0  0  0  0  0
  -27.7456  -16.2252   20.9218 H   0  0  0  0  0  0
  -31.5852  -17.9332   20.1176 H   0  0  0  0  0  0
  -27.8041  -21.4621   19.9722 H   0  0  0  0  0  0
  -28.4367  -21.5462   21.5678 H   0  0  0  0  0  0
  -29.6457  -23.4021   19.4099 H   0  0  0  0  0  0
  -29.7814  -23.5604   21.1186 H   0  0  0  0  0  0
  -30.7213  -20.6408   20.6963 H   0  0  0  0  0  0
  -30.0317  -20.4956   19.1319 H   0  0  0  0  0  0
  -27.3122  -24.4903   21.1454 H   0  0  0  0  0  0
  -27.3538  -24.3855   19.4225 H   0  0  0  0  0  0
  1 25  1  0  0  0
  1 30  2  0  0  0
  1 73  1  0  0  0
  2  3  1  0  0  0
  2 25  1  0  0  0
  2 80  1  0  0  0
  2 81  1  0  0  0
  3  4  1  0  0  0
  3 82  1  0  0  0
  3 83  1  0  0  0
  4  5  1  0  0  0
  4 84  1  0  0  0
  4 85  1  0  0  0
  5  6  1  0  0  0
  5 26  1  0  0  0
  5 86  1  0  0  0
  6 25  1  0  0  0
  6 87  1  0  0  0
  6 88  1  0  0  0
  7  8  2  0  0  0
  7 26  1  0  0  0
  7 29  1  0  0  0
  8  9  1  0  0  0
  8 22  1  0  0  0
  9 10  1  0  0  0
  9 27  2  0  0  0
 10 11  2  0  0  0
 10 15  1  0  0  0
 11 12  1  0  0  0
 11 89  1  0  0  0
 12 13  2  0  0  0
 12 90  1  0  0  0
 13 14  1  0  0  0
 13 31  1  0  0  0
 14 15  2  0  0  0
 14 91  1  0  0  0
 15 92  1  0  0  0
 16 17  2  0  0  0
 16 21  1  0  0  0
 16 31  1  0  0  0
 17 18  1  0  0  0
 17 93  1  0  0  0
 18 19  2  0  0  0
 18 94  1  0  0  0
 19 20  1  0  0  0
 19 24  1  0  0  0
 20 21  2  0  0  0
 20 95  1  0  0  0
 21 23  1  0  0  0
 22 28  1  0  0  0
 22 32  2  0  0  0
 26 27  1  0  0  0
 28 96  1  0  0  0
 28 97  1  0  0  0
 29 98  1  0  0  0
 29 99  1  0  0  0
 33 34  1  0  0  0
 33 66  1  0  0  0
 33 70  2  0  0  0
 34 36  1  0  0  0
 34 59  1  0  0  0
 34100  1  0  0  0
 35 44  2  0  0  0
 35 45  1  0  0  0
 35 68  1  0  0  0
 36 56  1  0  0  0
 36101  1  0  0  0
 37 39  1  0  0  0
 37 47  1  0  0  0
 37 66  1  0  0  0
 37102  1  0  0  0
 38 43  2  0  0  0
 38 46  1  0  0  0
 38 47  1  0  0  0
 39 64  1  0  0  0
 39 67  2  0  0  0
 40 52  1  0  0  0
 40 53  2  0  0  0
 40 58  1  0  0  0
 41103  1  0  0  0
 41104  1  0  0  0
 41105  1  0  0  0
 41 48  1  0  0  0
 42 43  1  0  0  0
 42 66  1  0  0  0
 42106  1  0  0  0
 42107  1  0  0  0
 43 44  1  0  0  0
 44108  1  0  0  0
 45 46  2  0  0  0
 45109  1  0  0  0
 46110  1  0  0  0
 47111  1  0  0  0
 47112  1  0  0  0
 48 56  1  0  0  0
 48 65  1  0  0  0
 48113  1  0  0  0
 49 50  1  0  0  0
 49 53  1  0  0  0
 49 64  1  0  0  0
 49114  1  0  0  0
 50 51  1  0  0  0
 50115  1  0  0  0
 50116  1  0  0  0
 51 52  1  0  0  0
 51117  1  0  0  0
 51118  1  0  0  0
 52119  1  0  0  0
 52120  1  0  0  0
 53 54  1  0  0  0
 54 55  2  0  0  0
 54121  1  0  0  0
 55 57  1  0  0  0
 55122  1  0  0  0
 56 69  2  0  0  0
 57 58  2  0  0  0
 57123  1  0  0  0
 58124  1  0  0  0
 59 60  1  0  0  0
 59 61  1  0  0  0
 59 62  1  0  0  0
 60125  1  0  0  0
 60126  1  0  0  0
 60127  1  0  0  0
 61128  1  0  0  0
 61129  1  0  0  0
 61130  1  0  0  0
 62131  1  0  0  0
 62132  1  0  0  0
 62133  1  0  0  0
 63 65  1  0  0  0
 63134  1  0  0  0
 63135  1  0  0  0
 63136  1  0  0  0
 64137  1  0  0  0
 65138  1  0  0  0
 68 77  1  0  0  0
 71 73  1  0  0  0
 71 78  2  0  0  0
 71139  1  0  0  0
 72 73  2  0  0  0
 72 79  1  0  0  0
 72140  1  0  0  0
 74 75  1  0  0  0
 74 76  1  0  0  0
 74141  1  0  0  0
 74142  1  0  0  0
 75 77  1  0  0  0
 75143  1  0  0  0
 75144  1  0  0  0
 76 79  1  0  0  0
 76145  1  0  0  0
 76146  1  0  0  0
 77147  1  0  0  0
 77148  1  0  0  0
 78 79  1  0  0  0
M  ISO  4   1 100  68 101  73 100  77 101
M  END
> <chiral flag>
0

> <version>
0

> <s_m_source_file>
/data/baiqing/PycharmProjects/Reinvent-master-3.2/result/LINK_invent/BTK/process_docking_weight1_custom_sum_contain_oxygen_bond_distance_aromatic_linkinvent_7_9_3/rearranged_h_0036.sdf

> <i_m_source_file_index>
46

> <r_mmod_Potential_Energy-OPLS-2005>
533.0224609375

> <r_mmod_Stretch_Energy-OPLS-2005>
267.118621826172

> <r_mmod_Bend_Energy-OPLS-2005>
281.650909423828

> <r_mmod_Torsional_Energy-OPLS-2005>
203.485488891602

> <r_mmod_Improper_Torsional_Energy-OPLS-2005>
4.81556558609009

> <r_mmod_Van_der_Waal_Energy-OPLS-2005>
109.411499023438

> <r_mmod_Electrostatic_Energy-OPLS-2005>
-332.699432373047

> <r_mmod_Solvation_Energy-OPLS-2005>
-203.285568237305

> <b_mmod_Minimization_Converged-OPLS-2005>
0

> <r_mmod_RMS_Derivative-OPLS-2005>
5.0116925239563

$$$$
47
                    3D
 Structure written by MMmdl.
162170  0  0  1  0            999 V2000
  -30.7187  -14.4277   20.6396 C   0  0  0  0  0  0
  -30.4263  -12.3087   19.4031 C   0  0  0  0  0  0
  -29.4892  -12.5136   18.1962 C   0  0  0  0  0  0
  -28.0136  -12.3621   18.6167 C   0  0  0  0  0  0
  -27.6627  -13.2002   19.8759 C   0  0  2  0  0  0
  -28.7018  -12.9552   20.9910 C   0  0  0  0  0  0
  -25.2608  -13.8147   20.5684 C   0  0  0  0  0  0
  -24.1853  -13.0437   20.9182 C   0  0  0  0  0  0
  -24.6388  -11.6898   20.8735 C   0  0  0  0  0  0
  -23.9047  -10.4294   21.0401 C   0  0  0  0  0  0
  -24.3595   -9.4208   21.9178 C   0  0  0  0  0  0
  -23.6286   -8.2236   22.0741 C   0  0  0  0  0  0
  -22.4270   -8.0267   21.3530 C   0  0  0  0  0  0
  -21.9897   -9.0242   20.4639 C   0  0  0  0  0  0
  -22.7215  -10.2131   20.3058 C   0  0  0  0  0  0
  -21.6847   -6.0733   22.5278 C   0  0  0  0  0  0
  -21.4011   -6.5636   23.8207 C   0  0  0  0  0  0
  -21.3664   -5.6786   24.9171 C   0  0  0  0  0  0
  -21.6047   -4.3056   24.7221 C   0  0  0  0  0  0
  -21.8820   -3.8145   23.4340 C   0  0  0  0  0  0
  -21.9193   -4.6961   22.3401 C   0  0  0  0  0  0
  -22.7884  -13.5253   21.1866 C   0  0  0  0  0  0
  -22.1663   -4.2149   21.0977 F   0  0  0  0  0  0
  -21.5631   -3.4534   25.7733 F   0  0  0  0  0  0
  -30.0352  -13.2689   20.4456 N   0  0  0  0  0  0
  -26.3031  -12.9301   20.3374 N   0  0  0  0  0  0
  -25.9309  -11.6464   20.5760 N   0  0  0  0  0  0
  -22.0515  -12.8248   22.0417 N   0  0  0  0  0  0
  -25.4365  -15.1858   20.4087 N   0  0  0  0  0  0
  -31.8084  -14.6660   20.1109 O   0  0  0  0  0  0
  -21.6630   -6.8868   21.4235 O   0  0  0  0  0  0
  -22.3581  -14.5564   20.6718 O   0  0  0  0  0  0
  -24.6158  -31.8682   23.2080 C   0  0  0  0  0  0
  -25.9057  -32.4817   23.8385 C   0  0  1  0  0  0
  -27.2298  -27.4332   20.0912 C   0  0  0  0  0  0
  -25.5920  -33.8622   24.2316 N   0  0  0  0  0  0
  -23.4018  -30.4917   21.5488 C   0  0  2  0  0  0
  -24.8452  -28.9536   20.1164 C   0  0  0  0  0  0
  -22.7406  -29.4663   22.4980 C   0  0  0  0  0  0
  -18.0274  -28.1383   22.8493 C   0  0  0  0  0  0
  -24.1486  -36.7321   23.2635 C   0  0  0  0  0  0
  -25.9307  -30.8324   21.3585 C   0  0  0  0  0  0
  -26.0063  -29.4641   20.7112 C   0  0  0  0  0  0
  -27.2024  -28.7122   20.6937 C   0  0  0  0  0  0
  -26.0528  -26.9345   19.4957 C   0  0  0  0  0  0
  -24.8618  -27.6855   19.5092 C   0  0  0  0  0  0
  -23.6084  -29.8215   20.1641 C   0  0  0  0  0  0
  -25.4104  -36.3112   24.0332 C   0  0  1  0  0  0
  -20.5867  -28.3659   23.1315 C   0  0  2  0  0  0
  -20.6768  -26.9389   22.5417 C   0  0  0  0  0  0
  -19.5738  -26.6379   21.5220 C   0  0  0  0  0  0
  -18.1917  -26.7929   22.1629 C   0  0  0  0  0  0
  -19.1524  -28.8844   23.2909 C   0  0  0  0  0  0
  -18.9451  -30.1449   23.8914 C   0  0  0  0  0  0
  -17.6447  -30.6586   24.0565 C   0  0  0  0  0  0
  -25.9046  -34.9483   23.5118 C   0  0  0  0  0  0
  -16.5342  -29.9080   23.6331 C   0  0  0  0  0  0
  -16.7267  -28.6503   23.0342 C   0  0  0  0  0  0
  -26.4477  -31.6587   25.0714 C   0  0  0  0  0  0
  -25.3748  -31.3690   26.1473 C   0  0  0  0  0  0
  -27.0286  -30.3030   24.6064 C   0  0  0  0  0  0
  -27.6068  -32.4292   25.7483 C   0  0  0  0  0  0
  -27.5572  -37.1804   24.8468 C   0  0  0  0  0  0
  -21.4137  -29.3032   22.3732 N   0  0  0  0  0  0
  -26.4282  -37.3800   23.9426 N   0  0  0  0  0  0
  -24.6680  -31.0782   22.0971 N   0  0  0  0  0  0
  -23.4178  -28.8210   23.3029 O   0  0  0  0  0  0
  -28.4069  -26.7205   20.0394 O   0  0  0  0  0  0
  -26.5598  -34.8936   22.4667 O   0  0  0  0  0  0
  -23.5356  -32.1435   23.7473 O   0  0  0  0  0  0
  -30.5651  -21.3766   20.6711 C   0  0  0  0  0  0
  -30.0280  -22.5846   20.1865 C   0  0  0  0  0  0
  -28.3602  -20.7159   21.4365 C   0  0  0  0  0  0
  -29.7352  -20.4326   21.3069 C   0  0  0  0  0  0
  -28.6539  -22.8851   20.3203 C   0  0  0  0  0  0
  -27.8068  -21.9238   20.9451 C   0  0  0  0  0  0
  -25.9405  -22.9550   22.3429 C   0  0  0  0  0  0
  -30.3328  -19.1627   21.9076 C   0  0  0  0  0  0
  -28.1639  -24.2258   19.7543 C   0  0  0  0  0  0
  -26.3047  -22.1231   21.1084 C   0  0  0  0  0  0
  -29.9102  -17.8401   21.2284 C   0  0  0  0  0  0
  -30.6184  -16.6232   21.8687 C   0  0  0  0  0  0
  -28.4279  -25.4379   20.6856 C   0  0  0  0  0  0
  -30.0949  -15.3310   21.4131 N   0  0  0  0  0  0
  -31.4674  -12.4218   19.0961 H   0  0  0  0  0  0
  -30.3392  -11.2909   19.7849 H   0  0  0  0  0  0
  -29.7288  -11.7956   17.4107 H   0  0  0  0  0  0
  -29.6493  -13.5026   17.7638 H   0  0  0  0  0  0
  -27.8361  -11.3049   18.8180 H   0  0  0  0  0  0
  -27.3555  -12.6253   17.7888 H   0  0  0  0  0  0
  -27.7162  -14.2522   19.5934 H   0  0  0  0  0  0
  -28.6789  -11.9104   21.3039 H   0  0  0  0  0  0
  -28.4515  -13.5241   21.8870 H   0  0  0  0  0  0
  -25.2735   -9.5697   22.4756 H   0  0  0  0  0  0
  -24.0005   -7.4627   22.7455 H   0  0  0  0  0  0
  -21.0826   -8.8754   19.8948 H   0  0  0  0  0  0
  -22.3657  -10.9665   19.6176 H   0  0  0  0  0  0
  -21.1988   -7.6142   23.9715 H   0  0  0  0  0  0
  -21.1497   -6.0514   25.9074 H   0  0  0  0  0  0
  -22.0598   -2.7610   23.2836 H   0  0  0  0  0  0
  -22.4098  -11.9899   22.4813 H   0  0  0  0  0  0
  -21.1129  -13.1283   22.2609 H   0  0  0  0  0  0
  -24.6755  -15.8482   20.5141 H   0  0  0  0  0  0
  -26.2974  -15.6178   20.0957 H   0  0  0  0  0  0
  -26.7128  -32.5531   23.1157 H   0  0  0  0  0  0
  -25.0114  -33.9785   25.0488 H   0  0  0  0  0  0
  -22.6914  -31.3093   21.4078 H   0  0  0  0  0  0
  -23.3739  -35.9659   23.3310 H   0  0  0  0  0  0
  -24.3606  -36.8920   22.2050 H   0  0  0  0  0  0
  -23.7242  -37.6527   23.6649 H   0  0  0  0  0  0
  -26.0359  -31.5933   20.5840 H   0  0  0  0  0  0
  -26.8238  -30.8918   21.9700 H   0  0  0  0  0  0
  -28.1049  -29.1067   21.1399 H   0  0  0  0  0  0
  -26.0513  -25.9802   18.9954 H   0  0  0  0  0  0
  -23.9689  -27.2871   19.0471 H   0  0  0  0  0  0
  -23.7143  -30.5953   19.4021 H   0  0  0  0  0  0
  -22.7308  -29.2403   19.8737 H   0  0  0  0  0  0
  -25.1262  -36.1951   25.0816 H   0  0  0  0  0  0
  -20.9973  -28.3233   24.1427 H   0  0  0  0  0  0
  -20.5684  -26.2264   23.3605 H   0  0  0  0  0  0
  -21.6636  -26.7426   22.1192 H   0  0  0  0  0  0
  -19.6892  -25.6294   21.1228 H   0  0  0  0  0  0
  -19.6694  -27.3231   20.6781 H   0  0  0  0  0  0
  -17.4188  -26.6698   21.4026 H   0  0  0  0  0  0
  -18.0290  -26.0082   22.9031 H   0  0  0  0  0  0
  -19.7930  -30.7268   24.2285 H   0  0  0  0  0  0
  -17.5004  -31.6264   24.5158 H   0  0  0  0  0  0
  -15.5347  -30.2977   23.7651 H   0  0  0  0  0  0
  -15.8672  -28.0833   22.7025 H   0  0  0  0  0  0
  -24.5922  -30.7027   25.7827 H   0  0  0  0  0  0
  -24.8929  -32.2839   26.4925 H   0  0  0  0  0  0
  -25.8103  -30.8862   27.0232 H   0  0  0  0  0  0
  -26.2806  -29.6835   24.1103 H   0  0  0  0  0  0
  -27.4042  -29.7225   25.4499 H   0  0  0  0  0  0
  -27.8661  -30.4352   23.9211 H   0  0  0  0  0  0
  -27.2695  -33.3586   26.2087 H   0  0  0  0  0  0
  -28.3875  -32.6848   25.0311 H   0  0  0  0  0  0
  -28.0745  -31.8388   26.5370 H   0  0  0  0  0  0
  -28.2586  -38.0105   24.7531 H   0  0  0  0  0  0
  -28.1054  -36.2639   24.6241 H   0  0  0  0  0  0
  -27.2317  -37.1410   25.8879 H   0  0  0  0  0  0
  -20.9285  -29.8764   21.6977 H   0  0  0  0  0  0
  -26.0161  -38.2872   24.1422 H   0  0  0  0  0  0
  -31.6245  -21.1868   20.5635 H   0  0  0  0  0  0
  -30.6882  -23.2947   19.7067 H   0  0  0  0  0  0
  -27.7236  -19.9969   21.9337 H   0  0  0  0  0  0
  -26.3415  -22.5084   23.2527 H   0  0  0  0  0  0
  -24.8581  -23.0212   22.4571 H   0  0  0  0  0  0
  -26.3198  -23.9709   22.2744 H   0  0  0  0  0  0
  -30.0529  -19.1304   22.9614 H   0  0  0  0  0  0
  -31.4205  -19.2447   21.8950 H   0  0  0  0  0  0
  -27.1142  -24.1672   19.4822 H   0  0  0  0  0  0
  -28.6908  -24.3880   18.8132 H   0  0  0  0  0  0
  -25.8311  -21.1451   21.2066 H   0  0  0  0  0  0
  -25.8679  -22.5510   20.2080 H   0  0  0  0  0  0
  -30.1466  -17.8779   20.1636 H   0  0  0  0  0  0
  -28.8291  -17.7242   21.3050 H   0  0  0  0  0  0
  -30.4850  -16.6575   22.9508 H   0  0  0  0  0  0
  -31.6942  -16.6893   21.6988 H   0  0  0  0  0  0
  -29.4335  -25.3409   21.0960 H   0  0  0  0  0  0
  -27.7604  -25.4310   21.5454 H   0  0  0  0  0  0
  -29.1923  -15.0530   21.7687 H   0  0  0  0  0  0
  1 25  1  0  0  0
  1 30  2  0  0  0
  1 84  1  0  0  0
  2  3  1  0  0  0
  2 25  1  0  0  0
  2 85  1  0  0  0
  2 86  1  0  0  0
  3  4  1  0  0  0
  3 87  1  0  0  0
  3 88  1  0  0  0
  4  5  1  0  0  0
  4 89  1  0  0  0
  4 90  1  0  0  0
  5  6  1  0  0  0
  5 26  1  0  0  0
  5 91  1  0  0  0
  6 25  1  0  0  0
  6 92  1  0  0  0
  6 93  1  0  0  0
  7  8  2  0  0  0
  7 26  1  0  0  0
  7 29  1  0  0  0
  8  9  1  0  0  0
  8 22  1  0  0  0
  9 10  1  0  0  0
  9 27  2  0  0  0
 10 11  2  0  0  0
 10 15  1  0  0  0
 11 12  1  0  0  0
 11 94  1  0  0  0
 12 13  2  0  0  0
 12 95  1  0  0  0
 13 14  1  0  0  0
 13 31  1  0  0  0
 14 15  2  0  0  0
 14 96  1  0  0  0
 15 97  1  0  0  0
 16 17  2  0  0  0
 16 21  1  0  0  0
 16 31  1  0  0  0
 17 18  1  0  0  0
 17 98  1  0  0  0
 18 19  2  0  0  0
 18 99  1  0  0  0
 19 20  1  0  0  0
 19 24  1  0  0  0
 20 21  2  0  0  0
 20100  1  0  0  0
 21 23  1  0  0  0
 22 28  1  0  0  0
 22 32  2  0  0  0
 26 27  1  0  0  0
 28101  1  0  0  0
 28102  1  0  0  0
 29103  1  0  0  0
 29104  1  0  0  0
 33 34  1  0  0  0
 33 66  1  0  0  0
 33 70  2  0  0  0
 34 36  1  0  0  0
 34 59  1  0  0  0
 34105  1  0  0  0
 35 44  2  0  0  0
 35 45  1  0  0  0
 35 68  1  0  0  0
 36 56  1  0  0  0
 36106  1  0  0  0
 37 39  1  0  0  0
 37 47  1  0  0  0
 37 66  1  0  0  0
 37107  1  0  0  0
 38 43  2  0  0  0
 38 46  1  0  0  0
 38 47  1  0  0  0
 39 64  1  0  0  0
 39 67  2  0  0  0
 40 52  1  0  0  0
 40 53  2  0  0  0
 40 58  1  0  0  0
 41108  1  0  0  0
 41109  1  0  0  0
 41110  1  0  0  0
 41 48  1  0  0  0
 42 43  1  0  0  0
 42 66  1  0  0  0
 42111  1  0  0  0
 42112  1  0  0  0
 43 44  1  0  0  0
 44113  1  0  0  0
 45 46  2  0  0  0
 45114  1  0  0  0
 46115  1  0  0  0
 47116  1  0  0  0
 47117  1  0  0  0
 48 56  1  0  0  0
 48 65  1  0  0  0
 48118  1  0  0  0
 49 50  1  0  0  0
 49 53  1  0  0  0
 49 64  1  0  0  0
 49119  1  0  0  0
 50 51  1  0  0  0
 50120  1  0  0  0
 50121  1  0  0  0
 51 52  1  0  0  0
 51122  1  0  0  0
 51123  1  0  0  0
 52124  1  0  0  0
 52125  1  0  0  0
 53 54  1  0  0  0
 54 55  2  0  0  0
 54126  1  0  0  0
 55 57  1  0  0  0
 55127  1  0  0  0
 56 69  2  0  0  0
 57 58  2  0  0  0
 57128  1  0  0  0
 58129  1  0  0  0
 59 60  1  0  0  0
 59 61  1  0  0  0
 59 62  1  0  0  0
 60130  1  0  0  0
 60131  1  0  0  0
 60132  1  0  0  0
 61133  1  0  0  0
 61134  1  0  0  0
 61135  1  0  0  0
 62136  1  0  0  0
 62137  1  0  0  0
 62138  1  0  0  0
 63 65  1  0  0  0
 63139  1  0  0  0
 63140  1  0  0  0
 63141  1  0  0  0
 64142  1  0  0  0
 65143  1  0  0  0
 68 83  1  0  0  0
 71 72  2  0  0  0
 71 74  1  0  0  0
 71144  1  0  0  0
 72 75  1  0  0  0
 72145  1  0  0  0
 73 74  2  0  0  0
 73 76  1  0  0  0
 73146  1  0  0  0
 74 78  1  0  0  0
 75 76  2  0  0  0
 75 79  1  0  0  0
 76 80  1  0  0  0
 77 80  1  0  0  0
 77147  1  0  0  0
 77148  1  0  0  0
 77149  1  0  0  0
 78 81  1  0  0  0
 78150  1  0  0  0
 78151  1  0  0  0
 79 83  1  0  0  0
 79152  1  0  0  0
 79153  1  0  0  0
 80154  1  0  0  0
 80155  1  0  0  0
 81 82  1  0  0  0
 81156  1  0  0  0
 81157  1  0  0  0
 82 84  1  0  0  0
 82158  1  0  0  0
 82159  1  0  0  0
 83160  1  0  0  0
 83161  1  0  0  0
 84162  1  0  0  0
M  ISO  4   1 100  68 101  83 101  84 100
M  END
> <chiral flag>
0

> <version>
0

> <s_m_source_file>
/data/baiqing/PycharmProjects/Reinvent-master-3.2/result/LINK_invent/BTK/process_docking_weight1_custom_sum_contain_oxygen_bond_distance_aromatic_linkinvent_7_9_3/rearranged_h_0036.sdf

> <i_m_source_file_index>
47

> <r_mmod_Potential_Energy-OPLS-2005>
-80.0671539306641

> <r_mmod_Stretch_Energy-OPLS-2005>
36.2996940612793

> <r_mmod_Bend_Energy-OPLS-2005>
95.6321105957031

> <r_mmod_Torsional_Energy-OPLS-2005>
209.947982788086

> <r_mmod_Improper_Torsional_Energy-OPLS-2005>
2.0928099155426

> <r_mmod_Van_der_Waal_Energy-OPLS-2005>
145.678085327148

> <r_mmod_Electrostatic_Energy-OPLS-2005>
-376.530487060547

> <r_mmod_Solvation_Energy-OPLS-2005>
-202.539276123047

> <b_mmod_Minimization_Converged-OPLS-2005>
0

> <r_mmod_RMS_Derivative-OPLS-2005>
1.99257075786591

$$$$
48
                    3D
 Structure written by MMmdl.
156164  0  0  1  0            999 V2000
  -30.5519  -14.9763   20.4848 C   0  0  0  0  0  0
  -30.4434  -12.6057   19.5616 C   0  0  0  0  0  0
  -29.5509  -12.5548   18.2980 C   0  0  0  0  0  0
  -28.0787  -12.3367   18.6938 C   0  0  0  0  0  0
  -27.6357  -13.2631   19.8566 C   0  0  2  0  0  0
  -28.6627  -13.2993   21.0123 C   0  0  0  0  0  0
  -25.2452  -13.8220   20.5733 C   0  0  0  0  0  0
  -24.1755  -13.0434   20.9206 C   0  0  0  0  0  0
  -24.6415  -11.6927   20.8742 C   0  0  0  0  0  0
  -23.9134  -10.4300   21.0404 C   0  0  0  0  0  0
  -24.3674   -9.4192   21.9182 C   0  0  0  0  0  0
  -23.6277   -8.2275   22.0757 C   0  0  0  0  0  0
  -22.4242   -8.0345   21.3597 C   0  0  0  0  0  0
  -21.9932   -9.0314   20.4690 C   0  0  0  0  0  0
  -22.7295  -10.2160   20.3052 C   0  0  0  0  0  0
  -21.6833   -6.0755   22.5276 C   0  0  0  0  0  0
  -21.4034   -6.5638   23.8224 C   0  0  0  0  0  0
  -21.3660   -5.6787   24.9177 C   0  0  0  0  0  0
  -21.6041   -4.3051   24.7212 C   0  0  0  0  0  0
  -21.8807   -3.8157   23.4324 C   0  0  0  0  0  0
  -21.9174   -4.6986   22.3394 C   0  0  0  0  0  0
  -22.7779  -13.5213   21.1844 C   0  0  0  0  0  0
  -22.1652   -4.2205   21.0958 F   0  0  0  0  0  0
  -21.5615   -3.4511   25.7720 F   0  0  0  0  0  0
  -29.9522  -13.7105   20.4404 N   0  0  0  0  0  0
  -26.2909  -12.9499   20.3275 N   0  0  0  0  0  0
  -25.9360  -11.6606   20.5729 N   0  0  0  0  0  0
  -22.0431  -12.8243   22.0438 N   0  0  0  0  0  0
  -25.4062  -15.1959   20.4203 N   0  0  0  0  0  0
  -31.7318  -15.0336   20.1160 O   0  0  0  0  0  0
  -21.6626   -6.8919   21.4247 O   0  0  0  0  0  0
  -22.3461  -14.5517   20.6654 O   0  0  0  0  0  0
  -24.6412  -31.8433   23.1924 C   0  0  0  0  0  0
  -25.9188  -32.4712   23.8298 C   0  0  1  0  0  0
  -27.2131  -27.1189   20.1696 C   0  0  0  0  0  0
  -25.5947  -33.8510   24.2171 N   0  0  0  0  0  0
  -23.4449  -30.4643   21.5392 C   0  0  2  0  0  0
  -24.9010  -28.8921   20.1089 C   0  0  0  0  0  0
  -22.7578  -29.4521   22.4900 C   0  0  0  0  0  0
  -18.0308  -28.1400   22.8504 C   0  0  0  0  0  0
  -24.1510  -36.7244   23.2634 C   0  0  0  0  0  0
  -26.0053  -30.7130   21.3989 C   0  0  0  0  0  0
  -26.0761  -29.3228   20.7347 C   0  0  0  0  0  0
  -27.2353  -28.4559   20.7412 C   0  0  0  0  0  0
  -26.0152  -26.7921   19.4958 C   0  0  0  0  0  0
  -24.8867  -27.6430   19.4680 C   0  0  0  0  0  0
  -23.6749  -29.7969   20.1541 C   0  0  0  0  0  0
  -25.4148  -36.3039   24.0300 C   0  0  1  0  0  0
  -20.5929  -28.3714   23.1297 C   0  0  2  0  0  0
  -20.6806  -26.9418   22.5461 C   0  0  0  0  0  0
  -19.5793  -26.6374   21.5267 C   0  0  0  0  0  0
  -18.1953  -26.7966   22.1628 C   0  0  0  0  0  0
  -19.1558  -28.8887   23.2891 C   0  0  0  0  0  0
  -18.9472  -30.1485   23.8932 C   0  0  0  0  0  0
  -17.6458  -30.6599   24.0566 C   0  0  0  0  0  0
  -25.9082  -34.9420   23.5044 C   0  0  0  0  0  0
  -16.5355  -29.9096   23.6344 C   0  0  0  0  0  0
  -16.7282  -28.6504   23.0389 C   0  0  0  0  0  0
  -26.4512  -31.6582   25.0738 C   0  0  0  0  0  0
  -25.3665  -31.3815   26.1414 C   0  0  0  0  0  0
  -27.0345  -30.2974   24.6329 C   0  0  0  0  0  0
  -27.6081  -32.4333   25.7485 C   0  0  0  0  0  0
  -27.5598  -37.1764   24.8444 C   0  0  0  0  0  0
  -21.4271  -29.3024   22.3644 N   0  0  0  0  0  0
  -26.4298  -37.3762   23.9404 N   0  0  0  0  0  0
  -24.7172  -31.0293   22.0980 N   0  0  0  0  0  0
  -23.4220  -28.8073   23.3033 O   0  0  0  0  0  0
  -28.2707  -26.1262   20.1966 O   0  0  0  0  0  0
  -26.5674  -34.8916   22.4628 O   0  0  0  0  0  0
  -23.5536  -32.1322   23.7151 O   0  0  0  0  0  0
  -28.4371  -21.6313   22.1402 C   0  0  0  0  0  0
  -29.3939  -20.4178   20.2869 C   0  0  0  0  0  0
  -28.9036  -21.7236   20.8147 C   0  0  0  0  0  0
  -28.5189  -20.4412   22.9050 C   0  0  0  0  0  0
  -29.4827  -19.1189   21.0241 C   0  0  0  0  0  0
  -29.0714  -19.2263   22.3883 C   0  0  0  0  0  0
  -28.0317  -20.5301   24.3517 C   0  0  0  0  0  0
  -29.2659  -18.0406   23.3339 C   0  0  0  0  0  0
  -28.9363  -23.2331   20.1101 C   0  0  0  0  0  0
  -30.1636  -17.7057   20.4489 C   0  0  0  0  0  0
  -28.0223  -24.6106   20.5363 C   0  0  0  0  0  0
  -29.8239  -16.1764   20.7511 N   0  0  0  0  0  0
  -31.4928  -12.7342   19.2867 H   0  0  0  0  0  0
  -30.4068  -11.6530   20.0966 H   0  0  0  0  0  0
  -29.8815  -11.7638   17.6231 H   0  0  0  0  0  0
  -29.6596  -13.4889   17.7452 H   0  0  0  0  0  0
  -27.9747  -11.2938   18.9967 H   0  0  0  0  0  0
  -27.4302  -12.4778   17.8268 H   0  0  0  0  0  0
  -27.5987  -14.2673   19.4282 H   0  0  0  0  0  0
  -28.7371  -12.3299   21.5129 H   0  0  0  0  0  0
  -28.3451  -14.0147   21.7742 H   0  0  0  0  0  0
  -25.2817   -9.5619   22.4750 H   0  0  0  0  0  0
  -23.9992   -7.4616   22.7384 H   0  0  0  0  0  0
  -21.0898   -8.8824   19.8963 H   0  0  0  0  0  0
  -22.3770  -10.9698   19.6162 H   0  0  0  0  0  0
  -21.2079   -7.6158   23.9750 H   0  0  0  0  0  0
  -21.1479   -6.0510   25.9086 H   0  0  0  0  0  0
  -22.0586   -2.7624   23.2772 H   0  0  0  0  0  0
  -22.4019  -11.9974   22.4991 H   0  0  0  0  0  0
  -21.1047  -13.1297   22.2581 H   0  0  0  0  0  0
  -24.6352  -15.8418   20.5391 H   0  0  0  0  0  0
  -26.2484  -15.6517   20.0921 H   0  0  0  0  0  0
  -26.7246  -32.5307   23.0995 H   0  0  0  0  0  0
  -25.0092  -33.9666   25.0322 H   0  0  0  0  0  0
  -22.7457  -31.2895   21.3935 H   0  0  0  0  0  0
  -23.3805  -35.9533   23.3278 H   0  0  0  0  0  0
  -24.3574  -36.8903   22.2052 H   0  0  0  0  0  0
  -23.7236  -37.6417   23.6701 H   0  0  0  0  0  0
  -26.1707  -31.4725   20.6341 H   0  0  0  0  0  0
  -26.8697  -30.7579   22.0479 H   0  0  0  0  0  0
  -28.1363  -28.7899   21.2378 H   0  0  0  0  0  0
  -25.9316  -25.8430   18.9890 H   0  0  0  0  0  0
  -23.9939  -27.3169   18.9508 H   0  0  0  0  0  0
  -23.8153  -30.5807   19.4098 H   0  0  0  0  0  0
  -22.7876  -29.2485   19.8364 H   0  0  0  0  0  0
  -25.1327  -36.1873   25.0791 H   0  0  0  0  0  0
  -21.0000  -28.3330   24.1431 H   0  0  0  0  0  0
  -20.5813  -26.2283   23.3638 H   0  0  0  0  0  0
  -21.6663  -26.7499   22.1198 H   0  0  0  0  0  0
  -19.6941  -25.6286   21.1304 H   0  0  0  0  0  0
  -19.6769  -27.3195   20.6819 H   0  0  0  0  0  0
  -17.4237  -26.6765   21.4005 H   0  0  0  0  0  0
  -18.0307  -26.0094   22.9006 H   0  0  0  0  0  0
  -19.7921  -30.7314   24.2336 H   0  0  0  0  0  0
  -17.4991  -31.6302   24.5119 H   0  0  0  0  0  0
  -15.5366  -30.2993   23.7675 H   0  0  0  0  0  0
  -15.8660  -28.0805   22.7151 H   0  0  0  0  0  0
  -24.5827  -30.7189   25.7734 H   0  0  0  0  0  0
  -24.8862  -32.3017   26.4777 H   0  0  0  0  0  0
  -25.7898  -30.9009   27.0233 H   0  0  0  0  0  0
  -26.2949  -29.6727   24.1307 H   0  0  0  0  0  0
  -27.3923  -29.7295   25.4929 H   0  0  0  0  0  0
  -27.8905  -30.4238   23.9681 H   0  0  0  0  0  0
  -27.2700  -33.3629   26.2080 H   0  0  0  0  0  0
  -28.3855  -32.6866   25.0261 H   0  0  0  0  0  0
  -28.0765  -31.8416   26.5354 H   0  0  0  0  0  0
  -28.2582  -38.0103   24.7545 H   0  0  0  0  0  0
  -28.1123  -36.2624   24.6192 H   0  0  0  0  0  0
  -27.2299  -37.1334   25.8842 H   0  0  0  0  0  0
  -20.9479  -29.8619   21.6699 H   0  0  0  0  0  0
  -26.0160  -38.2808   24.1481 H   0  0  0  0  0  0
  -28.0387  -22.5204   22.6099 H   0  0  0  0  0  0
  -29.7529  -20.4172   19.2654 H   0  0  0  0  0  0
  -27.3893  -21.3996   24.5043 H   0  0  0  0  0  0
  -28.8769  -20.6318   25.0361 H   0  0  0  0  0  0
  -27.4501  -19.6541   24.6437 H   0  0  0  0  0  0
  -29.3834  -18.3289   24.3840 H   0  0  0  0  0  0
  -30.1778  -17.4896   23.1001 H   0  0  0  0  0  0
  -28.4059  -17.3722   23.2651 H   0  0  0  0  0  0
  -28.8062  -23.0750   19.0400 H   0  0  0  0  0  0
  -29.9793  -23.5322   20.2083 H   0  0  0  0  0  0
  -31.2199  -17.8031   20.7081 H   0  0  0  0  0  0
  -30.1526  -17.8026   19.3666 H   0  0  0  0  0  0
  -28.0505  -24.6281   21.6222 H   0  0  0  0  0  0
  -26.9847  -24.3712   20.2993 H   0  0  0  0  0  0
  -28.8871  -16.0214   21.0918 H   0  0  0  0  0  0
  1 25  1  0  0  0
  1 30  2  0  0  0
  1 82  1  0  0  0
  2  3  1  0  0  0
  2 25  1  0  0  0
  2 83  1  0  0  0
  2 84  1  0  0  0
  3  4  1  0  0  0
  3 85  1  0  0  0
  3 86  1  0  0  0
  4  5  1  0  0  0
  4 87  1  0  0  0
  4 88  1  0  0  0
  5  6  1  0  0  0
  5 26  1  0  0  0
  5 89  1  0  0  0
  6 25  1  0  0  0
  6 90  1  0  0  0
  6 91  1  0  0  0
  7  8  2  0  0  0
  7 26  1  0  0  0
  7 29  1  0  0  0
  8  9  1  0  0  0
  8 22  1  0  0  0
  9 10  1  0  0  0
  9 27  2  0  0  0
 10 11  2  0  0  0
 10 15  1  0  0  0
 11 12  1  0  0  0
 11 92  1  0  0  0
 12 13  2  0  0  0
 12 93  1  0  0  0
 13 14  1  0  0  0
 13 31  1  0  0  0
 14 15  2  0  0  0
 14 94  1  0  0  0
 15 95  1  0  0  0
 16 17  2  0  0  0
 16 21  1  0  0  0
 16 31  1  0  0  0
 17 18  1  0  0  0
 17 96  1  0  0  0
 18 19  2  0  0  0
 18 97  1  0  0  0
 19 20  1  0  0  0
 19 24  1  0  0  0
 20 21  2  0  0  0
 20 98  1  0  0  0
 21 23  1  0  0  0
 22 28  1  0  0  0
 22 32  2  0  0  0
 26 27  1  0  0  0
 28 99  1  0  0  0
 28100  1  0  0  0
 29101  1  0  0  0
 29102  1  0  0  0
 33 34  1  0  0  0
 33 66  1  0  0  0
 33 70  2  0  0  0
 34 36  1  0  0  0
 34 59  1  0  0  0
 34103  1  0  0  0
 35 44  2  0  0  0
 35 45  1  0  0  0
 35 68  1  0  0  0
 36 56  1  0  0  0
 36104  1  0  0  0
 37 39  1  0  0  0
 37 47  1  0  0  0
 37 66  1  0  0  0
 37105  1  0  0  0
 38 43  2  0  0  0
 38 46  1  0  0  0
 38 47  1  0  0  0
 39 64  1  0  0  0
 39 67  2  0  0  0
 40 52  1  0  0  0
 40 53  2  0  0  0
 40 58  1  0  0  0
 41106  1  0  0  0
 41107  1  0  0  0
 41108  1  0  0  0
 41 48  1  0  0  0
 42 43  1  0  0  0
 42 66  1  0  0  0
 42109  1  0  0  0
 42110  1  0  0  0
 43 44  1  0  0  0
 44111  1  0  0  0
 45 46  2  0  0  0
 45112  1  0  0  0
 46113  1  0  0  0
 47114  1  0  0  0
 47115  1  0  0  0
 48 56  1  0  0  0
 48 65  1  0  0  0
 48116  1  0  0  0
 49 50  1  0  0  0
 49 53  1  0  0  0
 49 64  1  0  0  0
 49117  1  0  0  0
 50 51  1  0  0  0
 50118  1  0  0  0
 50119  1  0  0  0
 51 52  1  0  0  0
 51120  1  0  0  0
 51121  1  0  0  0
 52122  1  0  0  0
 52123  1  0  0  0
 53 54  1  0  0  0
 54 55  2  0  0  0
 54124  1  0  0  0
 55 57  1  0  0  0
 55125  1  0  0  0
 56 69  2  0  0  0
 57 58  2  0  0  0
 57126  1  0  0  0
 58127  1  0  0  0
 59 60  1  0  0  0
 59 61  1  0  0  0
 59 62  1  0  0  0
 60128  1  0  0  0
 60129  1  0  0  0
 60130  1  0  0  0
 61131  1  0  0  0
 61132  1  0  0  0
 61133  1  0  0  0
 62134  1  0  0  0
 62135  1  0  0  0
 62136  1  0  0  0
 63 65  1  0  0  0
 63137  1  0  0  0
 63138  1  0  0  0
 63139  1  0  0  0
 64140  1  0  0  0
 65141  1  0  0  0
 68 81  1  0  0  0
 71 73  2  0  0  0
 71 74  1  0  0  0
 71142  1  0  0  0
 72 73  1  0  0  0
 72 75  2  0  0  0
 72143  1  0  0  0
 73 79  1  0  0  0
 74 76  2  0  0  0
 74 77  1  0  0  0
 75 76  1  0  0  0
 75 80  1  0  0  0
 76 78  1  0  0  0
 77144  1  0  0  0
 77145  1  0  0  0
 77146  1  0  0  0
 78147  1  0  0  0
 78148  1  0  0  0
 78149  1  0  0  0
 79 81  1  0  0  0
 79150  1  0  0  0
 79151  1  0  0  0
 80 82  1  0  0  0
 80152  1  0  0  0
 80153  1  0  0  0
 81154  1  0  0  0
 81155  1  0  0  0
 82156  1  0  0  0
M  ISO  4   1 100  68 101  81 101  82 100
M  END
> <chiral flag>
0

> <version>
0

> <s_m_source_file>
/data/baiqing/PycharmProjects/Reinvent-master-3.2/result/LINK_invent/BTK/process_docking_weight1_custom_sum_contain_oxygen_bond_distance_aromatic_linkinvent_7_9_3/rearranged_h_0036.sdf

> <i_m_source_file_index>
48

> <r_mmod_Potential_Energy-OPLS-2005>
499.949066162109

> <r_mmod_Stretch_Energy-OPLS-2005>
293.719177246094

> <r_mmod_Bend_Energy-OPLS-2005>
264.317138671875

> <r_mmod_Torsional_Energy-OPLS-2005>
217.618362426758

> <r_mmod_Improper_Torsional_Energy-OPLS-2005>
5.01045751571655

> <r_mmod_Van_der_Waal_Energy-OPLS-2005>
132.710266113281

> <r_mmod_Electrostatic_Energy-OPLS-2005>
-412.134552001953

> <r_mmod_Solvation_Energy-OPLS-2005>
-207.829696655273

> <b_mmod_Minimization_Converged-OPLS-2005>
0

> <r_mmod_RMS_Derivative-OPLS-2005>
6.97146034240723

$$$$
49
                    3D
 Structure written by MMmdl.
180188  0  0  1  0            999 V2000
  -30.7683  -14.3606   20.6862 C   0  0  0  0  0  0
  -30.4169  -12.2922   19.3885 C   0  0  0  0  0  0
  -29.4842  -12.5379   18.1884 C   0  0  0  0  0  0
  -28.0082  -12.3914   18.6042 C   0  0  0  0  0  0
  -27.6672  -13.2051   19.8806 C   0  0  2  0  0  0
  -28.7054  -12.9387   20.9922 C   0  0  0  0  0  0
  -25.2600  -13.8156   20.5672 C   0  0  0  0  0  0
  -24.1844  -13.0433   20.9156 C   0  0  0  0  0  0
  -24.6398  -11.6903   20.8710 C   0  0  0  0  0  0
  -23.9063  -10.4291   21.0385 C   0  0  0  0  0  0
  -24.3615   -9.4212   21.9171 C   0  0  0  0  0  0
  -23.6290   -8.2247   22.0747 C   0  0  0  0  0  0
  -22.4265   -8.0283   21.3549 C   0  0  0  0  0  0
  -21.9909   -9.0248   20.4642 C   0  0  0  0  0  0
  -22.7234  -10.2130   20.3045 C   0  0  0  0  0  0
  -21.6858   -6.0735   22.5278 C   0  0  0  0  0  0
  -21.4012   -6.5638   23.8211 C   0  0  0  0  0  0
  -21.3663   -5.6793   24.9176 C   0  0  0  0  0  0
  -21.6042   -4.3054   24.7228 C   0  0  0  0  0  0
  -21.8823   -3.8147   23.4350 C   0  0  0  0  0  0
  -21.9189   -4.6962   22.3404 C   0  0  0  0  0  0
  -22.7870  -13.5233   21.1829 C   0  0  0  0  0  0
  -22.1662   -4.2147   21.0983 F   0  0  0  0  0  0
  -21.5630   -3.4539   25.7745 F   0  0  0  0  0  0
  -30.0485  -13.2324   20.4568 N   0  0  0  0  0  0
  -26.3049  -12.9331   20.3377 N   0  0  0  0  0  0
  -25.9323  -11.6488   20.5738 N   0  0  0  0  0  0
  -22.0516  -12.8218   22.0386 N   0  0  0  0  0  0
  -25.4317  -15.1876   20.4101 N   0  0  0  0  0  0
  -31.7959  -14.6493   20.0655 O   0  0  0  0  0  0
  -21.6639   -6.8874   21.4239 O   0  0  0  0  0  0
  -22.3554  -14.5544   20.6688 O   0  0  0  0  0  0
  -24.6099  -31.8717   23.2106 C   0  0  0  0  0  0
  -25.9003  -32.4840   23.8398 C   0  0  1  0  0  0
  -27.2390  -27.4770   20.0872 C   0  0  0  0  0  0
  -25.5899  -33.8634   24.2340 N   0  0  0  0  0  0
  -23.3950  -30.4946   21.5495 C   0  0  2  0  0  0
  -24.8436  -28.9640   20.1164 C   0  0  0  0  0  0
  -22.7371  -29.4668   22.4972 C   0  0  0  0  0  0
  -18.0264  -28.1353   22.8499 C   0  0  0  0  0  0
  -24.1495  -36.7313   23.2636 C   0  0  0  0  0  0
  -25.9182  -30.8535   21.3518 C   0  0  0  0  0  0
  -26.0009  -29.4891   20.7052 C   0  0  0  0  0  0
  -27.2052  -28.7541   20.6889 C   0  0  0  0  0  0
  -26.0625  -26.9451   19.5239 C   0  0  0  0  0  0
  -24.8655  -27.6869   19.5251 C   0  0  0  0  0  0
  -23.6025  -29.8264   20.1645 C   0  0  0  0  0  0
  -25.4109  -36.3115   24.0343 C   0  0  1  0  0  0
  -20.5853  -28.3655   23.1304 C   0  0  2  0  0  0
  -20.6742  -26.9390   22.5403 C   0  0  0  0  0  0
  -19.5740  -26.6380   21.5177 C   0  0  0  0  0  0
  -18.1921  -26.7904   22.1598 C   0  0  0  0  0  0
  -19.1513  -28.8812   23.2914 C   0  0  0  0  0  0
  -18.9451  -30.1421   23.8926 C   0  0  0  0  0  0
  -17.6455  -30.6579   24.0553 C   0  0  0  0  0  0
  -25.9045  -34.9483   23.5128 C   0  0  0  0  0  0
  -16.5345  -29.9086   23.6309 C   0  0  0  0  0  0
  -16.7255  -28.6496   23.0346 C   0  0  0  0  0  0
  -26.4472  -31.6602   25.0704 C   0  0  0  0  0  0
  -25.3760  -31.3673   26.1458 C   0  0  0  0  0  0
  -27.0330  -30.3072   24.6017 C   0  0  0  0  0  0
  -27.6062  -32.4318   25.7454 C   0  0  0  0  0  0
  -27.5574  -37.1802   24.8467 C   0  0  0  0  0  0
  -21.4100  -29.3046   22.3722 N   0  0  0  0  0  0
  -26.4290  -37.3805   23.9421 N   0  0  0  0  0  0
  -24.6583  -31.0860   22.0981 N   0  0  0  0  0  0
  -23.4143  -28.8202   23.2993 O   0  0  0  0  0  0
  -28.3782  -26.7137   20.0454 O   0  0  0  0  0  0
  -26.5604  -34.8941   22.4686 O   0  0  0  0  0  0
  -23.5305  -32.1458   23.7533 O   0  0  0  0  0  0
  -28.4586  -24.8331   16.9470 C   0  0  0  0  0  0
  -29.0101  -26.1048   17.2791 C   0  0  0  0  0  0
  -27.5767  -25.0845   15.9308 C   0  0  0  0  0  0
  -26.8738  -27.2600   14.7631 C   0  0  0  0  0  0
  -30.0505  -26.4358   18.3211 C   0  0  0  0  0  0
  -26.7202  -24.1438   15.1263 C   0  0  0  0  0  0
  -27.5377  -19.6095   19.9594 C   0  0  0  0  0  0
  -29.0071  -19.1808   20.1133 C   0  0  0  0  0  0
  -27.3845  -20.8913   19.1197 C   0  0  0  0  0  0
  -29.1892  -17.9181   20.9749 C   0  0  0  0  0  0
  -25.9347  -21.4127   19.0764 C   0  0  0  0  0  0
  -30.6739  -17.5733   21.1953 C   0  0  0  0  0  0
  -25.7457  -22.6807   18.2177 C   0  0  0  0  0  0
  -30.9085  -16.3817   22.1447 C   0  0  0  0  0  0
  -25.8194  -22.4019   16.7028 C   0  0  0  0  0  0
  -29.5139  -27.3327   19.4506 C   0  0  0  0  0  0
  -28.5213  -27.0633   16.5085 N   0  0  0  0  0  0
  -27.6232  -26.4519   15.7069 N   0  0  0  0  0  0
  -30.2998  -15.1421   21.6673 N   0  0  0  0  0  0
  -25.5640  -23.5998   15.8709 N   0  3  0  0  0  0
  -31.4599  -12.3942   19.0836 H   0  0  0  0  0  0
  -30.3136  -11.2672   19.7473 H   0  0  0  0  0  0
  -29.7162  -11.8432   17.3800 H   0  0  0  0  0  0
  -29.6540  -13.5397   17.7895 H   0  0  0  0  0  0
  -27.8122  -11.3319   18.7747 H   0  0  0  0  0  0
  -27.3559  -12.6927   17.7832 H   0  0  0  0  0  0
  -27.7267  -14.2615   19.6154 H   0  0  0  0  0  0
  -28.6667  -11.8927   21.2997 H   0  0  0  0  0  0
  -28.4521  -13.5075   21.8867 H   0  0  0  0  0  0
  -25.2765   -9.5687   22.4740 H   0  0  0  0  0  0
  -24.0001   -7.4644   22.7474 H   0  0  0  0  0  0
  -21.0840   -8.8765   19.8954 H   0  0  0  0  0  0
  -22.3691  -10.9662   19.6149 H   0  0  0  0  0  0
  -21.2005   -7.6148   23.9715 H   0  0  0  0  0  0
  -21.1482   -6.0525   25.9080 H   0  0  0  0  0  0
  -22.0597   -2.7607   23.2854 H   0  0  0  0  0  0
  -22.4135  -11.9875   22.4764 H   0  0  0  0  0  0
  -21.1134  -13.1238   22.2591 H   0  0  0  0  0  0
  -24.6657  -15.8436   20.5195 H   0  0  0  0  0  0
  -26.2951  -15.6305   20.1208 H   0  0  0  0  0  0
  -26.7059  -32.5596   23.1166 H   0  0  0  0  0  0
  -25.0039  -33.9814   25.0467 H   0  0  0  0  0  0
  -22.6838  -31.3113   21.4102 H   0  0  0  0  0  0
  -23.3763  -35.9639   23.3321 H   0  0  0  0  0  0
  -24.3589  -36.8923   22.2048 H   0  0  0  0  0  0
  -23.7237  -37.6517   23.6651 H   0  0  0  0  0  0
  -26.0133  -31.6143   20.5760 H   0  0  0  0  0  0
  -26.8112  -30.9184   21.9615 H   0  0  0  0  0  0
  -28.1005  -29.1610   21.1392 H   0  0  0  0  0  0
  -26.0829  -25.9635   19.0740 H   0  0  0  0  0  0
  -23.9717  -27.2724   19.0809 H   0  0  0  0  0  0
  -23.7098  -30.6043   19.4075 H   0  0  0  0  0  0
  -22.7265  -29.2467   19.8652 H   0  0  0  0  0  0
  -25.1275  -36.1969   25.0835 H   0  0  0  0  0  0
  -20.9968  -28.3213   24.1412 H   0  0  0  0  0  0
  -20.5609  -26.2261   23.3588 H   0  0  0  0  0  0
  -21.6615  -26.7415   22.1213 H   0  0  0  0  0  0
  -19.6915  -25.6295   21.1204 H   0  0  0  0  0  0
  -19.6673  -27.3187   20.6696 H   0  0  0  0  0  0
  -17.4179  -26.6656   21.4008 H   0  0  0  0  0  0
  -18.0357  -26.0009   22.8967 H   0  0  0  0  0  0
  -19.7934  -30.7218   24.2321 H   0  0  0  0  0  0
  -17.5029  -31.6281   24.5130 H   0  0  0  0  0  0
  -15.5358  -30.3016   23.7620 H   0  0  0  0  0  0
  -15.8646  -28.0840   22.7040 H   0  0  0  0  0  0
  -24.5925  -30.7026   25.7780 H   0  0  0  0  0  0
  -24.8937  -32.2821   26.4935 H   0  0  0  0  0  0
  -25.8118  -30.8816   27.0195 H   0  0  0  0  0  0
  -26.2851  -29.6790   24.1154 H   0  0  0  0  0  0
  -27.4258  -29.7337   25.4419 H   0  0  0  0  0  0
  -27.8608  -30.4462   23.9051 H   0  0  0  0  0  0
  -27.2705  -33.3626   26.2052 H   0  0  0  0  0  0
  -28.3862  -32.6869   25.0262 H   0  0  0  0  0  0
  -28.0748  -31.8428   26.5364 H   0  0  0  0  0  0
  -28.2583  -38.0104   24.7538 H   0  0  0  0  0  0
  -28.1087  -36.2644   24.6270 H   0  0  0  0  0  0
  -27.2316  -37.1416   25.8876 H   0  0  0  0  0  0
  -20.9239  -29.8799   21.6991 H   0  0  0  0  0  0
  -26.0189  -38.2886   24.1429 H   0  0  0  0  0  0
  -28.6858  -23.8724   17.3881 H   0  0  0  0  0  0
  -25.8152  -27.0103   14.8217 H   0  0  0  0  0  0
  -27.2304  -27.0765   13.7496 H   0  0  0  0  0  0
  -26.9882  -28.3215   14.9890 H   0  0  0  0  0  0
  -30.9077  -26.9206   17.8525 H   0  0  0  0  0  0
  -30.4336  -25.5134   18.7577 H   0  0  0  0  0  0
  -27.3277  -23.3336   14.7237 H   0  0  0  0  0  0
  -26.3266  -24.6593   14.2512 H   0  0  0  0  0  0
  -27.1023  -19.7683   20.9469 H   0  0  0  0  0  0
  -26.9681  -18.8014   19.4977 H   0  0  0  0  0  0
  -29.5694  -20.0025   20.5589 H   0  0  0  0  0  0
  -29.4428  -19.0122   19.1276 H   0  0  0  0  0  0
  -27.7444  -20.6910   18.1105 H   0  0  0  0  0  0
  -28.0295  -21.6722   19.5258 H   0  0  0  0  0  0
  -28.6788  -17.0779   20.5025 H   0  0  0  0  0  0
  -28.7092  -18.0662   21.9434 H   0  0  0  0  0  0
  -25.6154  -21.6329   20.0963 H   0  0  0  0  0  0
  -25.2665  -20.6276   18.7190 H   0  0  0  0  0  0
  -31.1847  -18.4428   21.6109 H   0  0  0  0  0  0
  -31.1535  -17.3807   20.2342 H   0  0  0  0  0  0
  -26.4724  -23.4384   18.5111 H   0  0  0  0  0  0
  -24.7640  -23.1001   18.4458 H   0  0  0  0  0  0
  -30.4972  -16.6082   23.1291 H   0  0  0  0  0  0
  -31.9790  -16.2286   22.2942 H   0  0  0  0  0  0
  -25.0510  -21.6696   16.4517 H   0  0  0  0  0  0
  -26.7687  -21.9391   16.4347 H   0  0  0  0  0  0
  -29.2859  -28.3194   19.0428 H   0  0  0  0  0  0
  -30.2797  -27.4765   20.2135 H   0  0  0  0  0  0
  -29.4718  -14.8184   22.1451 H   0  0  0  0  0  0
  -24.9046  -23.3098   15.1669 H   0  0  0  0  0  0
  -25.1229  -24.3283   16.4055 H   0  0  0  0  0  0
  1 25  1  0  0  0
  1 30  2  0  0  0
  1 89  1  0  0  0
  2  3  1  0  0  0
  2 25  1  0  0  0
  2 91  1  0  0  0
  2 92  1  0  0  0
  3  4  1  0  0  0
  3 93  1  0  0  0
  3 94  1  0  0  0
  4  5  1  0  0  0
  4 95  1  0  0  0
  4 96  1  0  0  0
  5  6  1  0  0  0
  5 26  1  0  0  0
  5 97  1  0  0  0
  6 25  1  0  0  0
  6 98  1  0  0  0
  6 99  1  0  0  0
  7  8  2  0  0  0
  7 26  1  0  0  0
  7 29  1  0  0  0
  8  9  1  0  0  0
  8 22  1  0  0  0
  9 10  1  0  0  0
  9 27  2  0  0  0
 10 11  2  0  0  0
 10 15  1  0  0  0
 11 12  1  0  0  0
 11100  1  0  0  0
 12 13  2  0  0  0
 12101  1  0  0  0
 13 14  1  0  0  0
 13 31  1  0  0  0
 14 15  2  0  0  0
 14102  1  0  0  0
 15103  1  0  0  0
 16 17  2  0  0  0
 16 21  1  0  0  0
 16 31  1  0  0  0
 17 18  1  0  0  0
 17104  1  0  0  0
 18 19  2  0  0  0
 18105  1  0  0  0
 19 20  1  0  0  0
 19 24  1  0  0  0
 20 21  2  0  0  0
 20106  1  0  0  0
 21 23  1  0  0  0
 22 28  1  0  0  0
 22 32  2  0  0  0
 26 27  1  0  0  0
 28107  1  0  0  0
 28108  1  0  0  0
 29109  1  0  0  0
 29110  1  0  0  0
 33 34  1  0  0  0
 33 66  1  0  0  0
 33 70  2  0  0  0
 34 36  1  0  0  0
 34 59  1  0  0  0
 34111  1  0  0  0
 35 44  2  0  0  0
 35 45  1  0  0  0
 35 68  1  0  0  0
 36 56  1  0  0  0
 36112  1  0  0  0
 37 39  1  0  0  0
 37 47  1  0  0  0
 37 66  1  0  0  0
 37113  1  0  0  0
 38 43  2  0  0  0
 38 46  1  0  0  0
 38 47  1  0  0  0
 39 64  1  0  0  0
 39 67  2  0  0  0
 40 52  1  0  0  0
 40 53  2  0  0  0
 40 58  1  0  0  0
 41114  1  0  0  0
 41115  1  0  0  0
 41116  1  0  0  0
 41 48  1  0  0  0
 42 43  1  0  0  0
 42 66  1  0  0  0
 42117  1  0  0  0
 42118  1  0  0  0
 43 44  1  0  0  0
 44119  1  0  0  0
 45 46  2  0  0  0
 45120  1  0  0  0
 46121  1  0  0  0
 47122  1  0  0  0
 47123  1  0  0  0
 48 56  1  0  0  0
 48 65  1  0  0  0
 48124  1  0  0  0
 49 50  1  0  0  0
 49 53  1  0  0  0
 49 64  1  0  0  0
 49125  1  0  0  0
 50 51  1  0  0  0
 50126  1  0  0  0
 50127  1  0  0  0
 51 52  1  0  0  0
 51128  1  0  0  0
 51129  1  0  0  0
 52130  1  0  0  0
 52131  1  0  0  0
 53 54  1  0  0  0
 54 55  2  0  0  0
 54132  1  0  0  0
 55 57  1  0  0  0
 55133  1  0  0  0
 56 69  2  0  0  0
 57 58  2  0  0  0
 57134  1  0  0  0
 58135  1  0  0  0
 59 60  1  0  0  0
 59 61  1  0  0  0
 59 62  1  0  0  0
 60136  1  0  0  0
 60137  1  0  0  0
 60138  1  0  0  0
 61139  1  0  0  0
 61140  1  0  0  0
 61141  1  0  0  0
 62142  1  0  0  0
 62143  1  0  0  0
 62144  1  0  0  0
 63 65  1  0  0  0
 63145  1  0  0  0
 63146  1  0  0  0
 63147  1  0  0  0
 64148  1  0  0  0
 65149  1  0  0  0
 68 86  1  0  0  0
 71 72  1  0  0  0
 71 73  2  0  0  0
 71150  1  0  0  0
 72 75  1  0  0  0
 72 87  2  0  0  0
 73 76  1  0  0  0
 73 88  1  0  0  0
 74 88  1  0  0  0
 74151  1  0  0  0
 74152  1  0  0  0
 74153  1  0  0  0
 75 86  1  0  0  0
 75154  1  0  0  0
 75155  1  0  0  0
 76 90  1  0  0  0
 76156  1  0  0  0
 76157  1  0  0  0
 77 78  1  0  0  0
 77 79  1  0  0  0
 77158  1  0  0  0
 77159  1  0  0  0
 78 80  1  0  0  0
 78160  1  0  0  0
 78161  1  0  0  0
 79 81  1  0  0  0
 79162  1  0  0  0
 79163  1  0  0  0
 80 82  1  0  0  0
 80164  1  0  0  0
 80165  1  0  0  0
 81 83  1  0  0  0
 81166  1  0  0  0
 81167  1  0  0  0
 82 84  1  0  0  0
 82168  1  0  0  0
 82169  1  0  0  0
 83 85  1  0  0  0
 83170  1  0  0  0
 83171  1  0  0  0
 84 89  1  0  0  0
 84172  1  0  0  0
 84173  1  0  0  0
 85 90  1  0  0  0
 85174  1  0  0  0
 85175  1  0  0  0
 86176  1  0  0  0
 86177  1  0  0  0
 87 88  1  0  0  0
 89178  1  0  0  0
 90179  1  0  0  0
 90180  1  0  0  0
M  CHG  1  90   1
M  ISO  4   1 100  68 101  86 101  89 100
M  END
> <chiral flag>
0

> <version>
0

> <s_m_source_file>
/data/baiqing/PycharmProjects/Reinvent-master-3.2/result/LINK_invent/BTK/process_docking_weight1_custom_sum_contain_oxygen_bond_distance_aromatic_linkinvent_7_9_3/rearranged_h_0036.sdf

> <i_m_source_file_index>
49

> <r_mmod_Potential_Energy-OPLS-2005>
-361.117858886719

> <r_mmod_Stretch_Energy-OPLS-2005>
31.3148021697998

> <r_mmod_Bend_Energy-OPLS-2005>
93.8602294921875

> <r_mmod_Torsional_Energy-OPLS-2005>
211.743011474609

> <r_mmod_Improper_Torsional_Energy-OPLS-2005>
1.76847732067108

> <r_mmod_Van_der_Waal_Energy-OPLS-2005>
110.054016113281

> <r_mmod_Electrostatic_Energy-OPLS-2005>
-321.549865722656

> <r_mmod_Solvation_Energy-OPLS-2005>
-494.529632568359

> <b_mmod_Minimization_Converged-OPLS-2005>
0

> <r_mmod_RMS_Derivative-OPLS-2005>
2.16015267372131

$$$$
50
                    3D
 Structure written by MMmdl.
158166  0  0  1  0            999 V2000
  -30.6506  -14.7052   20.4955 C   0  0  0  0  0  0
  -30.4382  -12.4414   19.4705 C   0  0  0  0  0  0
  -29.5120  -12.5062   18.2361 C   0  0  0  0  0  0
  -28.0384  -12.3290   18.6504 C   0  0  0  0  0  0
  -27.6467  -13.2276   19.8531 C   0  0  2  0  0  0
  -28.6928  -13.1568   20.9880 C   0  0  0  0  0  0
  -25.2532  -13.8200   20.5648 C   0  0  0  0  0  0
  -24.1829  -13.0441   20.9194 C   0  0  0  0  0  0
  -24.6416  -11.6919   20.8747 C   0  0  0  0  0  0
  -23.9080  -10.4304   21.0411 C   0  0  0  0  0  0
  -24.3619   -9.4209   21.9174 C   0  0  0  0  0  0
  -23.6291   -8.2249   22.0750 C   0  0  0  0  0  0
  -22.4268   -8.0284   21.3549 C   0  0  0  0  0  0
  -21.9910   -9.0260   20.4651 C   0  0  0  0  0  0
  -22.7254  -10.2137   20.3058 C   0  0  0  0  0  0
  -21.6857   -6.0732   22.5274 C   0  0  0  0  0  0
  -21.4023   -6.5642   23.8204 C   0  0  0  0  0  0
  -21.3669   -5.6797   24.9167 C   0  0  0  0  0  0
  -21.6037   -4.3055   24.7217 C   0  0  0  0  0  0
  -21.8824   -3.8146   23.4343 C   0  0  0  0  0  0
  -21.9202   -4.6961   22.3400 C   0  0  0  0  0  0
  -22.7846  -13.5206   21.1851 C   0  0  0  0  0  0
  -22.1649   -4.2145   21.0973 F   0  0  0  0  0  0
  -21.5637   -3.4539   25.7736 F   0  0  0  0  0  0
  -29.9991  -13.4971   20.4075 N   0  0  0  0  0  0
  -26.2967  -12.9395   20.3286 N   0  0  0  0  0  0
  -25.9340  -11.6541   20.5767 N   0  0  0  0  0  0
  -22.0499  -12.8207   22.0417 N   0  0  0  0  0  0
  -25.4218  -15.1925   20.4027 N   0  0  0  0  0  0
  -31.8359  -14.7969   20.1714 O   0  0  0  0  0  0
  -21.6632   -6.8877   21.4236 O   0  0  0  0  0  0
  -22.3524  -14.5497   20.6685 O   0  0  0  0  0  0
  -24.6292  -31.8533   23.1979 C   0  0  0  0  0  0
  -25.9112  -32.4749   23.8327 C   0  0  1  0  0  0
  -27.2302  -27.2976   20.1349 C   0  0  0  0  0  0
  -25.5902  -33.8549   24.2241 N   0  0  0  0  0  0
  -23.4268  -30.4748   21.5377 C   0  0  2  0  0  0
  -24.8750  -28.9161   20.1188 C   0  0  0  0  0  0
  -22.7493  -29.4595   22.4891 C   0  0  0  0  0  0
  -18.0285  -28.1396   22.8485 C   0  0  0  0  0  0
  -24.1485  -36.7310   23.2643 C   0  0  0  0  0  0
  -25.9666  -30.7831   21.3665 C   0  0  0  0  0  0
  -26.0449  -29.4045   20.7161 C   0  0  0  0  0  0
  -27.2309  -28.6096   20.7059 C   0  0  0  0  0  0
  -26.0393  -26.8561   19.5258 C   0  0  0  0  0  0
  -24.8720  -27.6469   19.5176 C   0  0  0  0  0  0
  -23.6472  -29.8025   20.1568 C   0  0  0  0  0  0
  -25.4102  -36.3064   24.0322 C   0  0  1  0  0  0
  -20.5882  -28.3700   23.1262 C   0  0  2  0  0  0
  -20.6767  -26.9413   22.5401 C   0  0  0  0  0  0
  -19.5749  -26.6386   21.5202 C   0  0  0  0  0  0
  -18.1935  -26.7942   22.1615 C   0  0  0  0  0  0
  -19.1536  -28.8858   23.2880 C   0  0  0  0  0  0
  -18.9462  -30.1456   23.8909 C   0  0  0  0  0  0
  -17.6465  -30.6596   24.0555 C   0  0  0  0  0  0
  -25.9032  -34.9440   23.5081 C   0  0  0  0  0  0
  -16.5354  -29.9100   23.6319 C   0  0  0  0  0  0
  -16.7274  -28.6509   23.0354 C   0  0  0  0  0  0
  -26.4516  -31.6579   25.0712 C   0  0  0  0  0  0
  -25.3787  -31.3725   26.1470 C   0  0  0  0  0  0
  -27.0363  -30.3000   24.6176 C   0  0  0  0  0  0
  -27.6043  -32.4358   25.7508 C   0  0  0  0  0  0
  -27.5571  -37.1802   24.8458 C   0  0  0  0  0  0
  -21.4192  -29.3057   22.3654 N   0  0  0  0  0  0
  -26.4278  -37.3753   23.9413 N   0  0  0  0  0  0
  -24.6932  -31.0555   22.0915 N   0  0  0  0  0  0
  -23.4201  -28.8116   23.2969 O   0  0  0  0  0  0
  -28.3460  -26.4447   20.1311 O   0  0  0  0  0  0
  -26.5610  -34.8913   22.4661 O   0  0  0  0  0  0
  -23.5449  -32.1311   23.7312 O   0  0  0  0  0  0
  -29.4504  -19.7842   20.8290 C   0  0  0  0  0  0
  -29.2366  -20.8653   18.6915 C   0  0  0  0  0  0
  -29.1419  -20.9882   20.0880 C   0  0  0  0  0  0
  -29.8547  -18.5478   20.1901 C   0  0  0  0  0  0
  -29.9353  -18.6218   18.7760 C   0  0  0  0  0  0
  -29.3398  -16.4853   17.5286 C   0  0  0  0  0  0
  -28.6678  -22.3549   20.7446 C   0  0  0  0  0  0
  -30.3580  -17.2710   21.0103 C   0  0  0  0  0  0
  -30.4444  -17.4734   17.9214 C   0  0  0  0  0  0
  -28.7204  -23.7606   19.9499 C   0  0  0  0  0  0
  -28.2062  -25.0800   20.7151 C   0  0  0  0  0  0
  -29.6094  -19.7299   18.0672 N   0  0  0  0  0  0
  -29.9034  -15.8343   20.7710 N   0  0  0  0  0  0
  -31.4788  -12.5657   19.1633 H   0  0  0  0  0  0
  -30.3805  -11.4660   19.9549 H   0  0  0  0  0  0
  -29.7914  -11.7355   17.5161 H   0  0  0  0  0  0
  -29.6358  -13.4643   17.7329 H   0  0  0  0  0  0
  -27.8961  -11.2808   18.9133 H   0  0  0  0  0  0
  -27.3817  -12.5204   17.8011 H   0  0  0  0  0  0
  -27.6428  -14.2506   19.4791 H   0  0  0  0  0  0
  -28.7207  -12.1584   21.4290 H   0  0  0  0  0  0
  -28.4289  -13.8385   21.7977 H   0  0  0  0  0  0
  -25.2761   -9.5677   22.4742 H   0  0  0  0  0  0
  -24.0021   -7.4639   22.7454 H   0  0  0  0  0  0
  -21.0850   -8.8790   19.8949 H   0  0  0  0  0  0
  -22.3722  -10.9676   19.6176 H   0  0  0  0  0  0
  -21.2013   -7.6144   23.9701 H   0  0  0  0  0  0
  -21.1479   -6.0521   25.9074 H   0  0  0  0  0  0
  -22.0602   -2.7610   23.2820 H   0  0  0  0  0  0
  -22.4108  -11.9898   22.4849 H   0  0  0  0  0  0
  -21.1126  -13.1252   22.2604 H   0  0  0  0  0  0
  -24.6508  -15.8461   20.4950 H   0  0  0  0  0  0
  -26.2629  -15.6263   20.0444 H   0  0  0  0  0  0
  -26.7183  -32.5417   23.1078 H   0  0  0  0  0  0
  -25.0069  -33.9685   25.0402 H   0  0  0  0  0  0
  -22.7241  -31.2969   21.3863 H   0  0  0  0  0  0
  -23.3715  -35.9671   23.3299 H   0  0  0  0  0  0
  -24.3577  -36.8942   22.2056 H   0  0  0  0  0  0
  -23.7272  -37.6523   23.6683 H   0  0  0  0  0  0
  -26.0921  -31.5404   20.5923 H   0  0  0  0  0  0
  -26.8496  -30.8419   21.9907 H   0  0  0  0  0  0
  -28.1366  -28.9825   21.1649 H   0  0  0  0  0  0
  -26.0077  -25.8797   19.0635 H   0  0  0  0  0  0
  -23.9731  -27.2628   19.0564 H   0  0  0  0  0  0
  -23.7800  -30.5742   19.3980 H   0  0  0  0  0  0
  -22.7684  -29.2364   19.8446 H   0  0  0  0  0  0
  -25.1286  -36.1901   25.0807 H   0  0  0  0  0  0
  -20.9987  -28.3281   24.1374 H   0  0  0  0  0  0
  -20.5641  -26.2317   23.3608 H   0  0  0  0  0  0
  -21.6640  -26.7433   22.1200 H   0  0  0  0  0  0
  -19.6898  -25.6293   21.1246 H   0  0  0  0  0  0
  -19.6683  -27.3178   20.6719 H   0  0  0  0  0  0
  -17.4193  -26.6676   21.4031 H   0  0  0  0  0  0
  -18.0342  -26.0085   22.9010 H   0  0  0  0  0  0
  -19.7942  -30.7255   24.2298 H   0  0  0  0  0  0
  -17.5026  -31.6272   24.5165 H   0  0  0  0  0  0
  -15.5361  -30.3009   23.7639 H   0  0  0  0  0  0
  -15.8671  -28.0828   22.7084 H   0  0  0  0  0  0
  -24.5905  -30.7127   25.7827 H   0  0  0  0  0  0
  -24.9069  -32.2905   26.4984 H   0  0  0  0  0  0
  -25.8149  -30.8840   27.0193 H   0  0  0  0  0  0
  -26.2912  -29.6742   24.1236 H   0  0  0  0  0  0
  -27.4083  -29.7270   25.4684 H   0  0  0  0  0  0
  -27.8787  -30.4275   23.9370 H   0  0  0  0  0  0
  -27.2572  -33.3619   26.2115 H   0  0  0  0  0  0
  -28.3848  -32.6997   25.0359 H   0  0  0  0  0  0
  -28.0728  -31.8490   26.5419 H   0  0  0  0  0  0
  -28.2572  -38.0111   24.7483 H   0  0  0  0  0  0
  -28.1078  -36.2636   24.6294 H   0  0  0  0  0  0
  -27.2302  -37.1463   25.8864 H   0  0  0  0  0  0
  -20.9374  -29.8806   21.6881 H   0  0  0  0  0  0
  -26.0153  -38.2823   24.1415 H   0  0  0  0  0  0
  -29.3990  -19.8177   21.9073 H   0  0  0  0  0  0
  -29.0114  -21.7034   18.0470 H   0  0  0  0  0  0
  -29.7420  -15.7075   16.8798 H   0  0  0  0  0  0
  -28.5257  -16.9806   17.0005 H   0  0  0  0  0  0
  -28.9107  -15.9989   18.4007 H   0  0  0  0  0  0
  -29.2252  -22.4736   21.6739 H   0  0  0  0  0  0
  -27.6317  -22.1970   21.0537 H   0  0  0  0  0  0
  -30.1417  -17.4731   22.0605 H   0  0  0  0  0  0
  -31.4475  -17.2890   20.9556 H   0  0  0  0  0  0
  -31.2678  -16.9679   18.4232 H   0  0  0  0  0  0
  -30.8770  -17.8805   17.0050 H   0  0  0  0  0  0
  -28.1390  -23.6669   19.0322 H   0  0  0  0  0  0
  -29.7489  -23.9328   19.6326 H   0  0  0  0  0  0
  -28.7637  -25.1263   21.6514 H   0  0  0  0  0  0
  -27.1763  -24.9112   21.0289 H   0  0  0  0  0  0
  -28.9356  -15.6516   20.9922 H   0  0  0  0  0  0
  1 25  1  0  0  0
  1 30  2  0  0  0
  1 83  1  0  0  0
  2  3  1  0  0  0
  2 25  1  0  0  0
  2 84  1  0  0  0
  2 85  1  0  0  0
  3  4  1  0  0  0
  3 86  1  0  0  0
  3 87  1  0  0  0
  4  5  1  0  0  0
  4 88  1  0  0  0
  4 89  1  0  0  0
  5  6  1  0  0  0
  5 26  1  0  0  0
  5 90  1  0  0  0
  6 25  1  0  0  0
  6 91  1  0  0  0
  6 92  1  0  0  0
  7  8  2  0  0  0
  7 26  1  0  0  0
  7 29  1  0  0  0
  8  9  1  0  0  0
  8 22  1  0  0  0
  9 10  1  0  0  0
  9 27  2  0  0  0
 10 11  2  0  0  0
 10 15  1  0  0  0
 11 12  1  0  0  0
 11 93  1  0  0  0
 12 13  2  0  0  0
 12 94  1  0  0  0
 13 14  1  0  0  0
 13 31  1  0  0  0
 14 15  2  0  0  0
 14 95  1  0  0  0
 15 96  1  0  0  0
 16 17  2  0  0  0
 16 21  1  0  0  0
 16 31  1  0  0  0
 17 18  1  0  0  0
 17 97  1  0  0  0
 18 19  2  0  0  0
 18 98  1  0  0  0
 19 20  1  0  0  0
 19 24  1  0  0  0
 20 21  2  0  0  0
 20 99  1  0  0  0
 21 23  1  0  0  0
 22 28  1  0  0  0
 22 32  2  0  0  0
 26 27  1  0  0  0
 28100  1  0  0  0
 28101  1  0  0  0
 29102  1  0  0  0
 29103  1  0  0  0
 33 34  1  0  0  0
 33 66  1  0  0  0
 33 70  2  0  0  0
 34 36  1  0  0  0
 34 59  1  0  0  0
 34104  1  0  0  0
 35 44  2  0  0  0
 35 45  1  0  0  0
 35 68  1  0  0  0
 36 56  1  0  0  0
 36105  1  0  0  0
 37 39  1  0  0  0
 37 47  1  0  0  0
 37 66  1  0  0  0
 37106  1  0  0  0
 38 43  2  0  0  0
 38 46  1  0  0  0
 38 47  1  0  0  0
 39 64  1  0  0  0
 39 67  2  0  0  0
 40 52  1  0  0  0
 40 53  2  0  0  0
 40 58  1  0  0  0
 41107  1  0  0  0
 41108  1  0  0  0
 41109  1  0  0  0
 41 48  1  0  0  0
 42 43  1  0  0  0
 42 66  1  0  0  0
 42110  1  0  0  0
 42111  1  0  0  0
 43 44  1  0  0  0
 44112  1  0  0  0
 45 46  2  0  0  0
 45113  1  0  0  0
 46114  1  0  0  0
 47115  1  0  0  0
 47116  1  0  0  0
 48 56  1  0  0  0
 48 65  1  0  0  0
 48117  1  0  0  0
 49 50  1  0  0  0
 49 53  1  0  0  0
 49 64  1  0  0  0
 49118  1  0  0  0
 50 51  1  0  0  0
 50119  1  0  0  0
 50120  1  0  0  0
 51 52  1  0  0  0
 51121  1  0  0  0
 51122  1  0  0  0
 52123  1  0  0  0
 52124  1  0  0  0
 53 54  1  0  0  0
 54 55  2  0  0  0
 54125  1  0  0  0
 55 57  1  0  0  0
 55126  1  0  0  0
 56 69  2  0  0  0
 57 58  2  0  0  0
 57127  1  0  0  0
 58128  1  0  0  0
 59 60  1  0  0  0
 59 61  1  0  0  0
 59 62  1  0  0  0
 60129  1  0  0  0
 60130  1  0  0  0
 60131  1  0  0  0
 61132  1  0  0  0
 61133  1  0  0  0
 61134  1  0  0  0
 62135  1  0  0  0
 62136  1  0  0  0
 62137  1  0  0  0
 63 65  1  0  0  0
 63138  1  0  0  0
 63139  1  0  0  0
 63140  1  0  0  0
 64141  1  0  0  0
 65142  1  0  0  0
 68 81  1  0  0  0
 71 73  2  0  0  0
 71 74  1  0  0  0
 71143  1  0  0  0
 72 73  1  0  0  0
 72 82  2  0  0  0
 72144  1  0  0  0
 73 77  1  0  0  0
 74 75  2  0  0  0
 74 78  1  0  0  0
 75 79  1  0  0  0
 75 82  1  0  0  0
 76 79  1  0  0  0
 76145  1  0  0  0
 76146  1  0  0  0
 76147  1  0  0  0
 77 80  1  0  0  0
 77148  1  0  0  0
 77149  1  0  0  0
 78 83  1  0  0  0
 78150  1  0  0  0
 78151  1  0  0  0
 79152  1  0  0  0
 79153  1  0  0  0
 80 81  1  0  0  0
 80154  1  0  0  0
 80155  1  0  0  0
 81156  1  0  0  0
 81157  1  0  0  0
 83158  1  0  0  0
M  ISO  4   1 100  68 101  81 101  83 100
M  END
> <chiral flag>
0

> <version>
0

> <s_m_source_file>
/data/baiqing/PycharmProjects/Reinvent-master-3.2/result/LINK_invent/BTK/process_docking_weight1_custom_sum_contain_oxygen_bond_distance_aromatic_linkinvent_7_9_3/rearranged_h_0036.sdf

> <i_m_source_file_index>
50

> <r_mmod_Potential_Energy-OPLS-2005>
-43.722770690918

> <r_mmod_Stretch_Energy-OPLS-2005>
105.268943786621

> <r_mmod_Bend_Energy-OPLS-2005>
155.578018188477

> <r_mmod_Torsional_Energy-OPLS-2005>
213.08219909668

> <r_mmod_Improper_Torsional_Energy-OPLS-2005>
5.06941843032837

> <r_mmod_Van_der_Waal_Energy-OPLS-2005>
129.045822143555

> <r_mmod_Electrostatic_Energy-OPLS-2005>
-497.453186035156

> <r_mmod_Solvation_Energy-OPLS-2005>
-220.559555053711

> <b_mmod_Minimization_Converged-OPLS-2005>
0

> <r_mmod_RMS_Derivative-OPLS-2005>
3.44203162193298

$$$$
51
                    3D
 Structure written by MMmdl.
180188  0  0  1  0            999 V2000
  -29.8568  -14.9681   20.3925 C   0  0  0  0  0  0
  -30.4626  -12.6676   19.4861 C   0  0  0  0  0  0
  -29.5189  -12.4151   18.2694 C   0  0  0  0  0  0
  -28.0790  -12.0800   18.7152 C   0  0  0  0  0  0
  -27.5690  -13.0678   19.7815 C   0  0  2  0  0  0
  -28.5333  -13.0440   20.9701 C   0  0  0  0  0  0
  -25.2281  -13.7667   20.5345 C   0  0  0  0  0  0
  -24.1634  -13.0314   20.9224 C   0  0  0  0  0  0
  -24.6012  -11.6671   20.8792 C   0  0  0  0  0  0
  -23.8785  -10.4221   21.0531 C   0  0  0  0  0  0
  -24.3435   -9.4139   21.9266 C   0  0  0  0  0  0
  -23.6177   -8.2161   22.0775 C   0  0  0  0  0  0
  -22.4203   -8.0197   21.3533 C   0  0  0  0  0  0
  -21.9787   -9.0140   20.4675 C   0  0  0  0  0  0
  -22.6999  -10.2040   20.3114 C   0  0  0  0  0  0
  -21.6811   -6.0694   22.5273 C   0  0  0  0  0  0
  -21.3986   -6.5615   23.8216 C   0  0  0  0  0  0
  -21.3650   -5.6762   24.9182 C   0  0  0  0  0  0
  -21.6039   -4.3046   24.7221 C   0  0  0  0  0  0
  -21.8829   -3.8112   23.4378 C   0  0  0  0  0  0
  -21.9187   -4.6927   22.3406 C   0  0  0  0  0  0
  -22.7696  -13.5194   21.1983 C   0  0  0  0  0  0
  -22.1667   -4.2110   21.0990 F   0  0  0  0  0  0
  -21.5628   -3.4534   25.7757 F   0  0  0  0  0  0
  -29.7664  -13.5819   20.4263 N   0  0  0  0  0  0
  -26.2430  -12.8581   20.2629 N   0  0  0  0  0  0
  -25.8787  -11.6043   20.5472 N   0  0  0  0  0  0
  -22.0343  -12.8267   22.0517 N   0  0  0  0  0  0
  -25.4002  -15.1341   20.3336 N   0  0  0  0  0  0
  -31.0248  -15.4020   20.1668 O   0  0  0  0  0  0
  -21.6600   -6.8798   21.4248 O   0  0  0  0  0  0
  -22.3548  -14.5602   20.6837 O   0  0  0  0  0  0
  -24.6803  -31.8796   23.2085 C   0  0  0  0  0  0
  -25.9645  -32.4762   23.8440 C   0  0  1  0  0  0
  -27.0133  -27.2793   19.9484 C   0  0  0  0  0  0
  -25.6684  -33.8682   24.2440 N   0  0  0  0  0  0
  -23.4113  -30.5832   21.4946 C   0  0  2  0  0  0
  -24.8532  -29.0544   20.1055 C   0  0  0  0  0  0
  -22.4865  -29.5739   22.3198 C   0  0  0  0  0  0
  -17.7013  -28.1808   22.8446 C   0  0  0  0  0  0
  -24.1545  -36.7308   23.2638 C   0  0  0  0  0  0
  -26.0383  -30.7589   21.4091 C   0  0  0  0  0  0
  -26.0658  -29.3861   20.7415 C   0  0  0  0  0  0
  -27.1754  -28.5034   20.6995 C   0  0  0  0  0  0
  -25.8590  -27.1607   19.1586 C   0  0  0  0  0  0
  -24.7645  -27.9407   19.3033 C   0  0  0  0  0  0
  -23.5841  -29.8965   20.1585 C   0  0  0  0  0  0
  -25.4183  -36.3167   24.0300 C   0  0  1  0  0  0
  -20.2514  -28.4305   22.9051 C   0  0  2  0  0  0
  -20.2200  -26.9541   22.4349 C   0  0  0  0  0  0
  -19.0933  -26.4710   21.4624 C   0  0  0  0  0  0
  -17.7348  -26.7885   22.1193 C   0  0  0  0  0  0
  -18.8459  -28.9899   23.0713 C   0  0  0  0  0  0
  -18.6507  -30.3430   23.4628 C   0  0  0  0  0  0
  -17.4016  -30.8085   23.8969 C   0  0  0  0  0  0
  -25.9263  -34.9668   23.5061 C   0  0  0  0  0  0
  -16.3621  -29.8852   23.8453 C   0  0  0  0  0  0
  -16.4782  -28.6730   23.1495 C   0  0  0  0  0  0
  -26.4698  -31.6631   25.0942 C   0  0  0  0  0  0
  -25.3661  -31.3983   26.1313 C   0  0  0  0  0  0
  -27.0408  -30.3067   24.6399 C   0  0  0  0  0  0
  -27.6251  -32.4268   25.7944 C   0  0  0  0  0  0
  -27.5577  -37.1907   24.8473 C   0  0  0  0  0  0
  -21.1431  -29.3303   22.0162 N   0  0  0  0  0  0
  -26.4289  -37.3955   23.9343 N   0  0  0  0  0  0
  -24.7040  -31.0105   22.1176 N   0  0  0  0  0  0
  -23.0778  -28.9738   23.2144 O   0  0  0  0  0  0
  -27.8250  -26.1523   19.8785 O   0  0  0  0  0  0
  -26.5561  -34.9365   22.4593 O   0  0  0  0  0  0
  -23.5814  -32.2025   23.6684 O   0  0  0  0  0  0
  -23.0719  -23.0160   20.1719 C   0  0  0  0  0  0
  -21.1607  -22.1663   18.5211 C   0  0  0  0  0  0
  -22.3084  -23.9574   19.4348 C   0  0  0  0  0  0
  -22.8728  -21.5822   20.1314 C   0  0  0  0  0  0
  -21.4504  -21.4712   19.8070 C   0  0  0  0  0  0
  -21.6325  -23.4859   18.3245 C   0  0  0  0  0  0
  -22.0531  -25.4361   19.7106 C   0  0  0  0  0  0
  -19.7210  -21.1221   21.7678 C   0  0  0  0  0  0
  -20.2818  -22.0824   20.7390 C   0  0  0  0  0  0
  -23.8505  -20.3324   20.7801 C   0  0  0  0  0  0
  -21.7524  -24.3251   16.9904 C   0  0  0  0  0  0
  -25.4403  -19.6291   20.3592 C   0  0  0  0  0  0
  -26.3008  -18.0543   20.5664 C   0  0  0  0  0  0
  -25.4835  -23.7069   17.4782 C   0  0  0  0  0  0
  -26.8935  -24.3046   17.9992 C   0  0  0  0  0  0
  -27.9454  -17.2317   20.3722 C   0  0  0  0  0  0
  -24.3948  -24.5676   16.7111 C   0  0  0  0  0  0
  -27.0641  -24.8506   19.5186 C   0  0  0  0  0  0
  -28.5714  -15.7269   20.4593 N   0  0  0  0  0  0
  -23.1271  -23.7738   16.6427 N   0  3  0  0  0  0
  -31.3680  -13.1366   19.1145 H   0  0  0  0  0  0
  -30.8133  -11.7477   19.9656 H   0  0  0  0  0  0
  -29.9036  -11.6083   17.6473 H   0  0  0  0  0  0
  -29.4945  -13.2965   17.6236 H   0  0  0  0  0  0
  -28.1105  -11.1063   19.1752 H   0  0  0  0  0  0
  -27.3910  -11.9996   17.8754 H   0  0  0  0  0  0
  -27.5439  -14.0167   19.2619 H   0  0  0  0  0  0
  -28.1583  -13.6470   21.8146 H   0  0  0  0  0  0
  -28.6618  -12.0395   21.4175 H   0  0  0  0  0  0
  -25.2610   -9.5694   22.4817 H   0  0  0  0  0  0
  -23.9946   -7.4553   22.7478 H   0  0  0  0  0  0
  -21.0721   -8.8591   19.8945 H   0  0  0  0  0  0
  -22.3455  -10.9599   19.6226 H   0  0  0  0  0  0
  -21.1973   -7.6119   23.9696 H   0  0  0  0  0  0
  -21.1459   -6.0516   25.9077 H   0  0  0  0  0  0
  -22.0624   -2.7588   23.2866 H   0  0  0  0  0  0
  -22.3881  -11.9849   22.4825 H   0  0  0  0  0  0
  -21.0966  -13.1311   22.2689 H   0  0  0  0  0  0
  -24.5687  -15.7037   20.4789 H   0  0  0  0  0  0
  -25.9166  -15.4512   19.5258 H   0  0  0  0  0  0
  -26.8175  -32.5652   23.1667 H   0  0  0  0  0  0
  -25.0948  -33.9786   25.0565 H   0  0  0  0  0  0
  -22.9279  -31.5557   21.2720 H   0  0  0  0  0  0
  -23.3830  -35.9611   23.3247 H   0  0  0  0  0  0
  -24.3614  -36.8893   22.2041 H   0  0  0  0  0  0
  -23.7190  -37.6565   23.6544 H   0  0  0  0  0  0
  -26.2674  -31.5107   20.6406 H   0  0  0  0  0  0
  -26.9115  -30.8026   22.0482 H   0  0  0  0  0  0
  -28.0805  -28.6778   21.2932 H   0  0  0  0  0  0
  -25.6883  -26.3828   18.4494 H   0  0  0  0  0  0
  -23.8934  -27.7939   18.6927 H   0  0  0  0  0  0
  -23.5442  -30.5843   19.3145 H   0  0  0  0  0  0
  -22.7325  -29.2126   19.9356 H   0  0  0  0  0  0
  -25.1288  -36.2099   25.0731 H   0  0  0  0  0  0
  -20.6296  -28.5047   23.9667 H   0  0  0  0  0  0
  -20.0912  -26.3111   23.2733 H   0  0  0  0  0  0
  -21.1501  -26.7223   22.0978 H   0  0  0  0  0  0
  -19.0834  -27.0313   20.5064 H   0  0  0  0  0  0
  -19.4636  -25.5071   21.1589 H   0  0  0  0  0  0
  -17.0203  -26.7446   21.1996 H   0  0  0  0  0  0
  -17.2255  -26.0910   22.8227 H   0  0  0  0  0  0
  -19.4388  -31.0430   23.2766 H   0  0  0  0  0  0
  -17.1708  -31.8738   24.1426 H   0  0  0  0  0  0
  -15.3667  -30.1387   24.2277 H   0  0  0  0  0  0
  -15.5463  -28.0897   22.9146 H   0  0  0  0  0  0
  -24.5795  -30.7421   25.7397 H   0  0  0  0  0  0
  -24.8825  -32.3273   26.4617 H   0  0  0  0  0  0
  -25.7636  -30.9087   27.0170 H   0  0  0  0  0  0
  -26.2964  -29.6945   24.1206 H   0  0  0  0  0  0
  -27.3748  -29.7201   25.4914 H   0  0  0  0  0  0
  -27.9087  -30.4139   23.9842 H   0  0  0  0  0  0
  -27.2803  -33.3562   26.2578 H   0  0  0  0  0  0
  -28.4268  -32.6795   25.0926 H   0  0  0  0  0  0
  -28.0729  -31.8275   26.5887 H   0  0  0  0  0  0
  -28.2632  -38.0225   24.7557 H   0  0  0  0  0  0
  -28.1121  -36.2731   24.6254 H   0  0  0  0  0  0
  -27.2316  -37.1495   25.8949 H   0  0  0  0  0  0
  -20.6328  -29.6705   21.1778 H   0  0  0  0  0  0
  -26.0169  -38.3033   24.1498 H   0  0  0  0  0  0
  -23.8207  -23.4226   20.7824 H   0  0  0  0  0  0
  -20.3505  -21.7624   17.8882 H   0  0  0  0  0  0
  -22.4675  -25.8261   20.6550 H   0  0  0  0  0  0
  -21.0256  -25.7736   19.5343 H   0  0  0  0  0  0
  -22.5051  -26.0918   19.0182 H   0  0  0  0  0  0
  -18.8956  -21.6672   22.2339 H   0  0  0  0  0  0
  -19.3104  -20.2057   21.3230 H   0  0  0  0  0  0
  -20.5346  -20.7500   22.3927 H   0  0  0  0  0  0
  -19.3737  -22.3680   20.1646 H   0  0  0  0  0  0
  -20.4629  -23.0410   21.2908 H   0  0  0  0  0  0
  -23.1775  -19.5008   20.7225 H   0  0  0  0  0  0
  -23.7699  -20.7082   21.8261 H   0  0  0  0  0  0
  -21.7494  -25.3858   17.2826 H   0  0  0  0  0  0
  -20.9929  -24.2251   16.1732 H   0  0  0  0  0  0
  -25.8648  -20.1884   19.5837 H   0  0  0  0  0  0
  -25.7847  -20.0245   21.3294 H   0  0  0  0  0  0
  -25.6512  -17.5452   21.2445 H   0  0  0  0  0  0
  -26.9169  -18.6599   21.2090 H   0  0  0  0  0  0
  -24.9536  -23.2175   18.2895 H   0  0  0  0  0  0
  -25.7010  -22.8961   16.7910 H   0  0  0  0  0  0
  -27.2397  -25.0359   17.3102 H   0  0  0  0  0  0
  -27.5809  -23.4686   17.8907 H   0  0  0  0  0  0
  -28.4964  -17.6890   19.5558 H   0  0  0  0  0  0
  -28.3990  -17.4428   21.3368 H   0  0  0  0  0  0
  -24.7208  -24.7663   15.6971 H   0  0  0  0  0  0
  -24.1182  -25.5240   17.1918 H   0  0  0  0  0  0
  -26.0270  -24.9213   19.8788 H   0  0  0  0  0  0
  -27.3061  -24.0281   20.1609 H   0  0  0  0  0  0
  -27.8708  -15.0109   20.5938 H   0  0  0  0  0  0
  -23.1055  -23.1018   15.9191 H   0  0  0  0  0  0
  -23.2304  -23.2874   17.5080 H   0  0  0  0  0  0
  1 25  1  0  0  0
  1 30  2  0  0  0
  1 89  1  0  0  0
  2  3  1  0  0  0
  2 25  1  0  0  0
  2 91  1  0  0  0
  2 92  1  0  0  0
  3  4  1  0  0  0
  3 93  1  0  0  0
  3 94  1  0  0  0
  4  5  1  0  0  0
  4 95  1  0  0  0
  4 96  1  0  0  0
  5  6  1  0  0  0
  5 26  1  0  0  0
  5 97  1  0  0  0
  6 25  1  0  0  0
  6 98  1  0  0  0
  6 99  1  0  0  0
  7  8  2  0  0  0
  7 26  1  0  0  0
  7 29  1  0  0  0
  8  9  1  0  0  0
  8 22  1  0  0  0
  9 10  1  0  0  0
  9 27  2  0  0  0
 10 11  2  0  0  0
 10 15  1  0  0  0
 11 12  1  0  0  0
 11100  1  0  0  0
 12 13  2  0  0  0
 12101  1  0  0  0
 13 14  1  0  0  0
 13 31  1  0  0  0
 14 15  2  0  0  0
 14102  1  0  0  0
 15103  1  0  0  0
 16 17  2  0  0  0
 16 21  1  0  0  0
 16 31  1  0  0  0
 17 18  1  0  0  0
 17104  1  0  0  0
 18 19  2  0  0  0
 18105  1  0  0  0
 19 20  1  0  0  0
 19 24  1  0  0  0
 20 21  2  0  0  0
 20106  1  0  0  0
 21 23  1  0  0  0
 22 28  1  0  0  0
 22 32  2  0  0  0
 26 27  1  0  0  0
 28107  1  0  0  0
 28108  1  0  0  0
 29109  1  0  0  0
 29110  1  0  0  0
 33 34  1  0  0  0
 33 66  1  0  0  0
 33 70  2  0  0  0
 34 36  1  0  0  0
 34 59  1  0  0  0
 34111  1  0  0  0
 35 44  2  0  0  0
 35 45  1  0  0  0
 35 68  1  0  0  0
 36 56  1  0  0  0
 36112  1  0  0  0
 37 39  1  0  0  0
 37 47  1  0  0  0
 37 66  1  0  0  0
 37113  1  0  0  0
 38 43  2  0  0  0
 38 46  1  0  0  0
 38 47  1  0  0  0
 39 64  1  0  0  0
 39 67  2  0  0  0
 40 52  1  0  0  0
 40 53  2  0  0  0
 40 58  1  0  0  0
 41114  1  0  0  0
 41115  1  0  0  0
 41116  1  0  0  0
 41 48  1  0  0  0
 42 43  1  0  0  0
 42 66  1  0  0  0
 42117  1  0  0  0
 42118  1  0  0  0
 43 44  1  0  0  0
 44119  1  0  0  0
 45 46  2  0  0  0
 45120  1  0  0  0
 46121  1  0  0  0
 47122  1  0  0  0
 47123  1  0  0  0
 48 56  1  0  0  0
 48 65  1  0  0  0
 48124  1  0  0  0
 49 50  1  0  0  0
 49 53  1  0  0  0
 49 64  1  0  0  0
 49125  1  0  0  0
 50 51  1  0  0  0
 50126  1  0  0  0
 50127  1  0  0  0
 51 52  1  0  0  0
 51128  1  0  0  0
 51129  1  0  0  0
 52130  1  0  0  0
 52131  1  0  0  0
 53 54  1  0  0  0
 54 55  2  0  0  0
 54132  1  0  0  0
 55 57  1  0  0  0
 55133  1  0  0  0
 56 69  2  0  0  0
 57 58  2  0  0  0
 57134  1  0  0  0
 58135  1  0  0  0
 59 60  1  0  0  0
 59 61  1  0  0  0
 59 62  1  0  0  0
 60136  1  0  0  0
 60137  1  0  0  0
 60138  1  0  0  0
 61139  1  0  0  0
 61140  1  0  0  0
 61141  1  0  0  0
 62142  1  0  0  0
 62143  1  0  0  0
 62144  1  0  0  0
 63 65  1  0  0  0
 63145  1  0  0  0
 63146  1  0  0  0
 63147  1  0  0  0
 64148  1  0  0  0
 65149  1  0  0  0
 68 88  1  0  0  0
 71 73  2  0  0  0
 71 74  1  0  0  0
 71150  1  0  0  0
 72 75  1  0  0  0
 72 76  2  0  0  0
 72151  1  0  0  0
 73 76  1  0  0  0
 73 77  1  0  0  0
 74 75  2  0  0  0
 74 80  1  0  0  0
 75 79  1  0  0  0
 76 81  1  0  0  0
 77152  1  0  0  0
 77153  1  0  0  0
 77154  1  0  0  0
 78 79  1  0  0  0
 78155  1  0  0  0
 78156  1  0  0  0
 78157  1  0  0  0
 79158  1  0  0  0
 79159  1  0  0  0
 80 82  1  0  0  0
 80160  1  0  0  0
 80161  1  0  0  0
 81 90  1  0  0  0
 81162  1  0  0  0
 81163  1  0  0  0
 82 83  1  0  0  0
 82164  1  0  0  0
 82165  1  0  0  0
 83 86  1  0  0  0
 83166  1  0  0  0
 83167  1  0  0  0
 84 85  1  0  0  0
 84 87  1  0  0  0
 84168  1  0  0  0
 84169  1  0  0  0
 85 88  1  0  0  0
 85170  1  0  0  0
 85171  1  0  0  0
 86 89  1  0  0  0
 86172  1  0  0  0
 86173  1  0  0  0
 87 90  1  0  0  0
 87174  1  0  0  0
 87175  1  0  0  0
 88176  1  0  0  0
 88177  1  0  0  0
 89178  1  0  0  0
 90179  1  0  0  0
 90180  1  0  0  0
M  CHG  1  90   1
M  ISO  4   1 100  68 101  88 101  89 100
M  END
> <chiral flag>
0

> <version>
0

> <s_m_source_file>
/data/baiqing/PycharmProjects/Reinvent-master-3.2/result/LINK_invent/BTK/process_docking_weight1_custom_sum_contain_oxygen_bond_distance_aromatic_linkinvent_7_9_3/rearranged_h_0036.sdf

> <i_m_source_file_index>
51

> <r_mmod_Potential_Energy-OPLS-2005>
2350.8603515625

> <r_mmod_Stretch_Energy-OPLS-2005>
686.721923828125

> <r_mmod_Bend_Energy-OPLS-2005>
925.120788574219

> <r_mmod_Torsional_Energy-OPLS-2005>
598.18505859375

> <r_mmod_Improper_Torsional_Energy-OPLS-2005>
43.3448829650879

> <r_mmod_Van_der_Waal_Energy-OPLS-2005>
244.15397644043

> <r_mmod_Electrostatic_Energy-OPLS-2005>
-341.922546386719

> <r_mmod_Solvation_Energy-OPLS-2005>
-459.118988037109

> <b_mmod_Minimization_Converged-OPLS-2005>
0

> <r_mmod_RMS_Derivative-OPLS-2005>
97.6779556274414

$$$$
52
                    3D
 Structure written by MMmdl.
153161  0  0  1  0            999 V2000
  -30.6633  -14.7187   20.4940 C   0  0  0  0  0  0
  -30.4192  -12.4417   19.4926 C   0  0  0  0  0  0
  -29.5082  -12.5072   18.2467 C   0  0  0  0  0  0
  -28.0353  -12.3298   18.6586 C   0  0  0  0  0  0
  -27.6392  -13.2384   19.8538 C   0  0  2  0  0  0
  -28.6782  -13.1957   20.9959 C   0  0  0  0  0  0
  -25.2507  -13.8225   20.5729 C   0  0  0  0  0  0
  -24.1787  -13.0439   20.9200 C   0  0  0  0  0  0
  -24.6389  -11.6925   20.8745 C   0  0  0  0  0  0
  -23.9081  -10.4291   21.0409 C   0  0  0  0  0  0
  -24.3630   -9.4216   21.9186 C   0  0  0  0  0  0
  -23.6304   -8.2250   22.0751 C   0  0  0  0  0  0
  -22.4290   -8.0283   21.3539 C   0  0  0  0  0  0
  -21.9927   -9.0259   20.4644 C   0  0  0  0  0  0
  -22.7259  -10.2144   20.3056 C   0  0  0  0  0  0
  -21.6855   -6.0741   22.5280 C   0  0  0  0  0  0
  -21.4018   -6.5643   23.8208 C   0  0  0  0  0  0
  -21.3668   -5.6800   24.9168 C   0  0  0  0  0  0
  -21.6035   -4.3057   24.7223 C   0  0  0  0  0  0
  -21.8824   -3.8152   23.4341 C   0  0  0  0  0  0
  -21.9192   -4.6968   22.3398 C   0  0  0  0  0  0
  -22.7812  -13.5225   21.1862 C   0  0  0  0  0  0
  -22.1662   -4.2154   21.0972 F   0  0  0  0  0  0
  -21.5630   -3.4537   25.7731 F   0  0  0  0  0  0
  -29.9884  -13.5196   20.4202 N   0  0  0  0  0  0
  -26.2936  -12.9442   20.3331 N   0  0  0  0  0  0
  -25.9329  -11.6573   20.5767 N   0  0  0  0  0  0
  -22.0472  -12.8195   22.0428 N   0  0  0  0  0  0
  -25.4184  -15.1940   20.4163 N   0  0  0  0  0  0
  -31.8445  -14.7611   20.1410 O   0  0  0  0  0  0
  -21.6643   -6.8890   21.4242 O   0  0  0  0  0  0
  -22.3482  -14.5522   20.6720 O   0  0  0  0  0  0
  -24.6320  -31.8553   23.1984 C   0  0  0  0  0  0
  -25.9157  -32.4737   23.8316 C   0  0  1  0  0  0
  -27.2145  -27.2610   20.1328 C   0  0  0  0  0  0
  -25.5962  -33.8540   24.2239 N   0  0  0  0  0  0
  -23.4275  -30.4792   21.5404 C   0  0  2  0  0  0
  -24.8735  -28.9309   20.1042 C   0  0  0  0  0  0
  -22.7507  -29.4593   22.4898 C   0  0  0  0  0  0
  -18.0292  -28.1390   22.8479 C   0  0  0  0  0  0
  -24.1507  -36.7279   23.2647 C   0  0  0  0  0  0
  -25.9754  -30.7601   21.3868 C   0  0  0  0  0  0
  -26.0439  -29.3884   20.7233 C   0  0  0  0  0  0
  -27.2158  -28.5655   20.7292 C   0  0  0  0  0  0
  -26.0238  -26.8806   19.4701 C   0  0  0  0  0  0
  -24.8694  -27.6852   19.4628 C   0  0  0  0  0  0
  -23.6476  -29.8206   20.1533 C   0  0  0  0  0  0
  -25.4142  -36.3060   24.0315 C   0  0  1  0  0  0
  -20.5899  -28.3704   23.1257 C   0  0  2  0  0  0
  -20.6786  -26.9421   22.5400 C   0  0  0  0  0  0
  -19.5761  -26.6386   21.5210 C   0  0  0  0  0  0
  -18.1945  -26.7928   22.1622 C   0  0  0  0  0  0
  -19.1550  -28.8863   23.2862 C   0  0  0  0  0  0
  -18.9466  -30.1465   23.8887 C   0  0  0  0  0  0
  -17.6465  -30.6587   24.0562 C   0  0  0  0  0  0
  -25.9071  -34.9427   23.5074 C   0  0  0  0  0  0
  -16.5354  -29.9085   23.6331 C   0  0  0  0  0  0
  -16.7282  -28.6501   23.0354 C   0  0  0  0  0  0
  -26.4517  -31.6577   25.0722 C   0  0  0  0  0  0
  -25.3709  -31.3743   26.1422 C   0  0  0  0  0  0
  -27.0368  -30.2973   24.6250 C   0  0  0  0  0  0
  -27.6072  -32.4318   25.7490 C   0  0  0  0  0  0
  -27.5565  -37.1838   24.8497 C   0  0  0  0  0  0
  -21.4212  -29.3044   22.3646 N   0  0  0  0  0  0
  -26.4333  -37.3740   23.9362 N   0  0  0  0  0  0
  -24.6964  -31.0511   22.0969 N   0  0  0  0  0  0
  -23.4205  -28.8122   23.2994 O   0  0  0  0  0  0
  -28.2962  -26.3515   20.2247 O   0  0  0  0  0  0
  -26.5644  -34.8907   22.4640 O   0  0  0  0  0  0
  -23.5476  -32.1389   23.7282 O   0  0  0  0  0  0
  -29.1811  -19.5872   20.1362 C   0  0  0  0  0  0
  -30.0533  -18.7425   20.8261 C   0  0  0  0  0  0
  -30.5449  -19.6755   21.8084 C   0  0  0  0  0  0
  -31.6096  -19.4518   22.8484 C   0  0  0  0  0  0
  -30.6488  -17.2819   20.5368 C   0  0  0  0  0  0
  -28.9509  -23.6656   20.5354 C   0  0  0  0  0  0
  -28.4247  -22.1577   20.2459 C   0  0  0  0  0  0
  -28.0122  -24.8852   20.0357 C   0  0  0  0  0  0
  -30.0260  -20.9105   21.7197 N   0  0  0  0  0  0
  -29.2092  -20.9114   20.6470 N   0  0  0  0  0  0
  -29.9989  -15.9126   20.7515 N   0  0  0  0  0  0
  -31.4638  -12.5340   19.1925 H   0  0  0  0  0  0
  -30.3330  -11.4671   19.9797 H   0  0  0  0  0  0
  -29.7887  -11.7358   17.5305 H   0  0  0  0  0  0
  -29.6388  -13.4654   17.7407 H   0  0  0  0  0  0
  -27.8947  -11.2845   18.9298 H   0  0  0  0  0  0
  -27.3768  -12.5160   17.8099 H   0  0  0  0  0  0
  -27.6328  -14.2566   19.4679 H   0  0  0  0  0  0
  -28.7007  -12.2146   21.4736 H   0  0  0  0  0  0
  -28.4142  -13.9088   21.7799 H   0  0  0  0  0  0
  -25.2776   -9.5678   22.4755 H   0  0  0  0  0  0
  -24.0009   -7.4634   22.7469 H   0  0  0  0  0  0
  -21.0856   -8.8780   19.8941 H   0  0  0  0  0  0
  -22.3721  -10.9676   19.6155 H   0  0  0  0  0  0
  -21.2020   -7.6149   23.9714 H   0  0  0  0  0  0
  -21.1485   -6.0522   25.9070 H   0  0  0  0  0  0
  -22.0597   -2.7610   23.2833 H   0  0  0  0  0  0
  -22.4111  -11.9856   22.4800 H   0  0  0  0  0  0
  -21.1084  -13.1192   22.2647 H   0  0  0  0  0  0
  -24.6541  -15.8509   20.5372 H   0  0  0  0  0  0
  -26.2756  -15.6376   20.1113 H   0  0  0  0  0  0
  -26.7213  -32.5370   23.1051 H   0  0  0  0  0  0
  -25.0097  -33.9668   25.0380 H   0  0  0  0  0  0
  -22.7247  -31.3019   21.3971 H   0  0  0  0  0  0
  -23.3755  -35.9627   23.3338 H   0  0  0  0  0  0
  -24.3574  -36.8881   22.2052 H   0  0  0  0  0  0
  -23.7288  -37.6498   23.6663 H   0  0  0  0  0  0
  -26.1328  -31.5202   20.6216 H   0  0  0  0  0  0
  -26.8469  -30.7960   22.0269 H   0  0  0  0  0  0
  -28.1043  -28.9021   21.2435 H   0  0  0  0  0  0
  -25.9494  -25.9323   18.9590 H   0  0  0  0  0  0
  -23.9787  -27.3330   18.9605 H   0  0  0  0  0  0
  -23.7815  -30.6003   19.4042 H   0  0  0  0  0  0
  -22.7645  -29.2584   19.8421 H   0  0  0  0  0  0
  -25.1345  -36.1910   25.0810 H   0  0  0  0  0  0
  -20.9993  -28.3291   24.1377 H   0  0  0  0  0  0
  -20.5698  -26.2319   23.3609 H   0  0  0  0  0  0
  -21.6656  -26.7454   22.1189 H   0  0  0  0  0  0
  -19.6926  -25.6295   21.1250 H   0  0  0  0  0  0
  -19.6696  -27.3190   20.6734 H   0  0  0  0  0  0
  -17.4212  -26.6674   21.4027 H   0  0  0  0  0  0
  -18.0345  -26.0075   22.9022 H   0  0  0  0  0  0
  -19.7943  -30.7286   24.2256 H   0  0  0  0  0  0
  -17.5015  -31.6265   24.5167 H   0  0  0  0  0  0
  -15.5358  -30.2979   23.7656 H   0  0  0  0  0  0
  -15.8685  -28.0815   22.7071 H   0  0  0  0  0  0
  -24.5902  -30.7089   25.7732 H   0  0  0  0  0  0
  -24.8897  -32.2920   26.4794 H   0  0  0  0  0  0
  -25.8000  -30.8940   27.0222 H   0  0  0  0  0  0
  -26.2966  -29.6698   24.1281 H   0  0  0  0  0  0
  -27.4031  -29.7266   25.4799 H   0  0  0  0  0  0
  -27.8860  -30.4222   23.9526 H   0  0  0  0  0  0
  -27.2702  -33.3658   26.1985 H   0  0  0  0  0  0
  -28.3923  -32.6794   25.0335 H   0  0  0  0  0  0
  -28.0684  -31.8480   26.5463 H   0  0  0  0  0  0
  -28.2708  -38.0001   24.7343 H   0  0  0  0  0  0
  -28.0931  -36.2530   24.6607 H   0  0  0  0  0  0
  -27.2241  -37.1831   25.8892 H   0  0  0  0  0  0
  -20.9411  -29.8772   21.6858 H   0  0  0  0  0  0
  -26.0214  -38.2846   24.1215 H   0  0  0  0  0  0
  -28.5796  -19.3739   19.2639 H   0  0  0  0  0  0
  -32.1114  -20.3796   23.1164 H   0  0  0  0  0  0
  -32.3901  -18.7774   22.4960 H   0  0  0  0  0  0
  -31.1880  -19.0327   23.7597 H   0  0  0  0  0  0
  -31.5749  -17.2086   21.1070 H   0  0  0  0  0  0
  -30.9948  -17.2708   19.5016 H   0  0  0  0  0  0
  -29.1027  -23.7726   21.6083 H   0  0  0  0  0  0
  -29.9391  -23.7770   20.0905 H   0  0  0  0  0  0
  -28.2302  -22.0754   19.1762 H   0  0  0  0  0  0
  -27.4418  -22.0632   20.7116 H   0  0  0  0  0  0
  -27.0450  -24.6784   20.4954 H   0  0  0  0  0  0
  -27.8711  -24.7435   18.9633 H   0  0  0  0  0  0
  -29.0265  -15.8673   21.0153 H   0  0  0  0  0  0
  1 25  1  0  0  0
  1 30  2  0  0  0
  1 81  1  0  0  0
  2  3  1  0  0  0
  2 25  1  0  0  0
  2 82  1  0  0  0
  2 83  1  0  0  0
  3  4  1  0  0  0
  3 84  1  0  0  0
  3 85  1  0  0  0
  4  5  1  0  0  0
  4 86  1  0  0  0
  4 87  1  0  0  0
  5  6  1  0  0  0
  5 26  1  0  0  0
  5 88  1  0  0  0
  6 25  1  0  0  0
  6 89  1  0  0  0
  6 90  1  0  0  0
  7  8  2  0  0  0
  7 26  1  0  0  0
  7 29  1  0  0  0
  8  9  1  0  0  0
  8 22  1  0  0  0
  9 10  1  0  0  0
  9 27  2  0  0  0
 10 11  2  0  0  0
 10 15  1  0  0  0
 11 12  1  0  0  0
 11 91  1  0  0  0
 12 13  2  0  0  0
 12 92  1  0  0  0
 13 14  1  0  0  0
 13 31  1  0  0  0
 14 15  2  0  0  0
 14 93  1  0  0  0
 15 94  1  0  0  0
 16 17  2  0  0  0
 16 21  1  0  0  0
 16 31  1  0  0  0
 17 18  1  0  0  0
 17 95  1  0  0  0
 18 19  2  0  0  0
 18 96  1  0  0  0
 19 20  1  0  0  0
 19 24  1  0  0  0
 20 21  2  0  0  0
 20 97  1  0  0  0
 21 23  1  0  0  0
 22 28  1  0  0  0
 22 32  2  0  0  0
 26 27  1  0  0  0
 28 98  1  0  0  0
 28 99  1  0  0  0
 29100  1  0  0  0
 29101  1  0  0  0
 33 34  1  0  0  0
 33 66  1  0  0  0
 33 70  2  0  0  0
 34 36  1  0  0  0
 34 59  1  0  0  0
 34102  1  0  0  0
 35 44  2  0  0  0
 35 45  1  0  0  0
 35 68  1  0  0  0
 36 56  1  0  0  0
 36103  1  0  0  0
 37 39  1  0  0  0
 37 47  1  0  0  0
 37 66  1  0  0  0
 37104  1  0  0  0
 38 43  2  0  0  0
 38 46  1  0  0  0
 38 47  1  0  0  0
 39 64  1  0  0  0
 39 67  2  0  0  0
 40 52  1  0  0  0
 40 53  2  0  0  0
 40 58  1  0  0  0
 41105  1  0  0  0
 41106  1  0  0  0
 41107  1  0  0  0
 41 48  1  0  0  0
 42 43  1  0  0  0
 42 66  1  0  0  0
 42108  1  0  0  0
 42109  1  0  0  0
 43 44  1  0  0  0
 44110  1  0  0  0
 45 46  2  0  0  0
 45111  1  0  0  0
 46112  1  0  0  0
 47113  1  0  0  0
 47114  1  0  0  0
 48 56  1  0  0  0
 48 65  1  0  0  0
 48115  1  0  0  0
 49 50  1  0  0  0
 49 53  1  0  0  0
 49 64  1  0  0  0
 49116  1  0  0  0
 50 51  1  0  0  0
 50117  1  0  0  0
 50118  1  0  0  0
 51 52  1  0  0  0
 51119  1  0  0  0
 51120  1  0  0  0
 52121  1  0  0  0
 52122  1  0  0  0
 53 54  1  0  0  0
 54 55  2  0  0  0
 54123  1  0  0  0
 55 57  1  0  0  0
 55124  1  0  0  0
 56 69  2  0  0  0
 57 58  2  0  0  0
 57125  1  0  0  0
 58126  1  0  0  0
 59 60  1  0  0  0
 59 61  1  0  0  0
 59 62  1  0  0  0
 60127  1  0  0  0
 60128  1  0  0  0
 60129  1  0  0  0
 61130  1  0  0  0
 61131  1  0  0  0
 61132  1  0  0  0
 62133  1  0  0  0
 62134  1  0  0  0
 62135  1  0  0  0
 63 65  1  0  0  0
 63136  1  0  0  0
 63137  1  0  0  0
 63138  1  0  0  0
 64139  1  0  0  0
 65140  1  0  0  0
 68 78  1  0  0  0
 71 72  2  0  0  0
 71 80  1  0  0  0
 71141  1  0  0  0
 72 73  1  0  0  0
 72 75  1  0  0  0
 73 74  1  0  0  0
 73 79  2  0  0  0
 74142  1  0  0  0
 74143  1  0  0  0
 74144  1  0  0  0
 75 81  1  0  0  0
 75145  1  0  0  0
 75146  1  0  0  0
 76 77  1  0  0  0
 76 78  1  0  0  0
 76147  1  0  0  0
 76148  1  0  0  0
 77 80  1  0  0  0
 77149  1  0  0  0
 77150  1  0  0  0
 78151  1  0  0  0
 78152  1  0  0  0
 79 80  1  0  0  0
 81153  1  0  0  0
M  ISO  4   1 100  68 101  78 101  81 100
M  END
> <chiral flag>
0

> <version>
0

> <s_m_source_file>
/data/baiqing/PycharmProjects/Reinvent-master-3.2/result/LINK_invent/BTK/process_docking_weight1_custom_sum_contain_oxygen_bond_distance_aromatic_linkinvent_7_9_3/rearranged_h_0036.sdf

> <i_m_source_file_index>
52

> <r_mmod_Potential_Energy-OPLS-2005>
94.0590896606445

> <r_mmod_Stretch_Energy-OPLS-2005>
118.236022949219

> <r_mmod_Bend_Energy-OPLS-2005>
185.722152709961

> <r_mmod_Torsional_Energy-OPLS-2005>
216.547653198242

> <r_mmod_Improper_Torsional_Energy-OPLS-2005>
7.00765514373779

> <r_mmod_Van_der_Waal_Energy-OPLS-2005>
124.092140197754

> <r_mmod_Electrostatic_Energy-OPLS-2005>
-413.447875976562

> <r_mmod_Solvation_Energy-OPLS-2005>
-228.129470825195

> <b_mmod_Minimization_Converged-OPLS-2005>
0

> <r_mmod_RMS_Derivative-OPLS-2005>
4.34239864349365

$$$$
53
                    3D
 Structure written by MMmdl.
159167  0  0  1  0            999 V2000
  -30.6816  -14.5955   20.5916 C   0  0  0  0  0  0
  -30.4254  -12.4008   19.4390 C   0  0  0  0  0  0
  -29.4926  -12.5011   18.2119 C   0  0  0  0  0  0
  -28.0184  -12.3186   18.6227 C   0  0  0  0  0  0
  -27.6450  -13.1873   19.8487 C   0  0  2  0  0  0
  -28.6873  -12.9929   20.9737 C   0  0  0  0  0  0
  -25.2501  -13.8087   20.5570 C   0  0  0  0  0  0
  -24.1787  -13.0397   20.9178 C   0  0  0  0  0  0
  -24.6335  -11.6865   20.8752 C   0  0  0  0  0  0
  -23.9013  -10.4269   21.0425 C   0  0  0  0  0  0
  -24.3584   -9.4190   21.9190 C   0  0  0  0  0  0
  -23.6275   -8.2222   22.0750 C   0  0  0  0  0  0
  -22.4260   -8.0260   21.3542 C   0  0  0  0  0  0
  -21.9886   -9.0230   20.4651 C   0  0  0  0  0  0
  -22.7192  -10.2116   20.3071 C   0  0  0  0  0  0
  -21.6844   -6.0729   22.5278 C   0  0  0  0  0  0
  -21.4005   -6.5634   23.8210 C   0  0  0  0  0  0
  -21.3658   -5.6787   24.9176 C   0  0  0  0  0  0
  -21.6053   -4.3054   24.7227 C   0  0  0  0  0  0
  -21.8822   -3.8141   23.4346 C   0  0  0  0  0  0
  -21.9188   -4.6956   22.3402 C   0  0  0  0  0  0
  -22.7819  -13.5206   21.1864 C   0  0  0  0  0  0
  -22.1662   -4.2148   21.0977 F   0  0  0  0  0  0
  -21.5631   -3.4536   25.7732 F   0  0  0  0  0  0
  -29.9926  -13.4098   20.4376 N   0  0  0  0  0  0
  -26.2907  -12.9227   20.3205 N   0  0  0  0  0  0
  -25.9238  -11.6421   20.5726 N   0  0  0  0  0  0
  -22.0478  -12.8216   22.0447 N   0  0  0  0  0  0
  -25.4139  -15.1804   20.3864 N   0  0  0  0  0  0
  -31.8176  -14.6811   20.1086 O   0  0  0  0  0  0
  -21.6627   -6.8863   21.4238 O   0  0  0  0  0  0
  -22.3499  -14.5511   20.6704 O   0  0  0  0  0  0
  -24.6197  -31.8643   23.2056 C   0  0  0  0  0  0
  -25.9072  -32.4806   23.8360 C   0  0  1  0  0  0
  -27.2291  -27.3793   20.1099 C   0  0  0  0  0  0
  -25.5908  -33.8601   24.2297 N   0  0  0  0  0  0
  -23.4107  -30.4883   21.5474 C   0  0  2  0  0  0
  -24.8574  -28.9500   20.1148 C   0  0  0  0  0  0
  -22.7447  -29.4641   22.4949 C   0  0  0  0  0  0
  -18.0284  -28.1388   22.8485 C   0  0  0  0  0  0
  -24.1487  -36.7301   23.2628 C   0  0  0  0  0  0
  -25.9455  -30.8143   21.3677 C   0  0  0  0  0  0
  -26.0226  -29.4456   20.7132 C   0  0  0  0  0  0
  -27.2134  -28.6708   20.7012 C   0  0  0  0  0  0
  -26.0431  -26.9188   19.4936 C   0  0  0  0  0  0
  -24.8655  -27.6890   19.4983 C   0  0  0  0  0  0
  -23.6228  -29.8237   20.1620 C   0  0  0  0  0  0
  -25.4109  -36.3101   24.0324 C   0  0  1  0  0  0
  -20.5876  -28.3685   23.1298 C   0  0  2  0  0  0
  -20.6779  -26.9413   22.5419 C   0  0  0  0  0  0
  -19.5756  -26.6393   21.5219 C   0  0  0  0  0  0
  -18.1929  -26.7931   22.1627 C   0  0  0  0  0  0
  -19.1530  -28.8853   23.2887 C   0  0  0  0  0  0
  -18.9453  -30.1457   23.8904 C   0  0  0  0  0  0
  -17.6454  -30.6588   24.0568 C   0  0  0  0  0  0
  -25.9039  -34.9469   23.5111 C   0  0  0  0  0  0
  -16.5345  -29.9094   23.6324 C   0  0  0  0  0  0
  -16.7271  -28.6515   23.0341 C   0  0  0  0  0  0
  -26.4483  -31.6594   25.0704 C   0  0  0  0  0  0
  -25.3722  -31.3727   26.1431 C   0  0  0  0  0  0
  -27.0312  -30.3024   24.6108 C   0  0  0  0  0  0
  -27.6059  -32.4320   25.7459 C   0  0  0  0  0  0
  -27.5598  -37.1778   24.8444 C   0  0  0  0  0  0
  -21.4166  -29.3039   22.3691 N   0  0  0  0  0  0
  -26.4288  -37.3794   23.9420 N   0  0  0  0  0  0
  -24.6772  -31.0704   22.0982 N   0  0  0  0  0  0
  -23.4202  -28.8169   23.2994 O   0  0  0  0  0  0
  -28.3777  -26.5948   20.1172 O   0  0  0  0  0  0
  -26.5609  -34.8935   22.4677 O   0  0  0  0  0  0
  -23.5377  -32.1421   23.7419 O   0  0  0  0  0  0
  -29.6930  -19.0388   20.6340 C   0  0  0  0  0  0
  -30.1889  -20.3719   20.4077 C   0  0  0  0  0  0
  -30.7721  -18.2862   21.0620 C   0  0  0  0  0  0
  -33.2282  -18.9281   21.3858 C   0  0  0  0  0  0
  -28.7814  -15.9018   21.7556 C   0  0  0  0  0  0
  -29.4979  -21.6568   19.9129 C   0  0  0  0  0  0
  -30.9956  -16.8641   21.6126 C   0  0  0  0  0  0
  -29.5897  -22.8986   20.8704 C   0  0  0  0  0  0
  -29.5245  -24.3442   20.2426 C   0  0  0  0  0  0
  -28.2211  -25.1795   20.4369 C   0  0  0  0  0  0
  -31.4963  -20.4049   20.6038 N   0  0  0  0  0  0
  -31.8425  -19.1683   21.0231 N   0  0  0  0  0  0
  -30.1310  -15.7144   21.2040 N   0  0  0  0  0  0
  -31.4606  -12.5266   19.1215 H   0  0  0  0  0  0
  -30.3836  -11.3982   19.8677 H   0  0  0  0  0  0
  -29.7704  -11.7520   17.4684 H   0  0  0  0  0  0
  -29.6177  -13.4709   17.7282 H   0  0  0  0  0  0
  -27.8685  -11.2635   18.8589 H   0  0  0  0  0  0
  -27.3579  -12.5372   17.7831 H   0  0  0  0  0  0
  -27.6730  -14.2147   19.4897 H   0  0  0  0  0  0
  -28.7210  -11.9397   21.2553 H   0  0  0  0  0  0
  -28.3999  -13.4785   21.8986 H   0  0  0  0  0  0
  -25.2735   -9.5666   22.4747 H   0  0  0  0  0  0
  -24.0003   -7.4604   22.7443 H   0  0  0  0  0  0
  -21.0831   -8.8733   19.8946 H   0  0  0  0  0  0
  -22.3649  -10.9653   19.6183 H   0  0  0  0  0  0
  -21.2000   -7.6143   23.9711 H   0  0  0  0  0  0
  -21.1476   -6.0519   25.9076 H   0  0  0  0  0  0
  -22.0606   -2.7607   23.2835 H   0  0  0  0  0  0
  -22.4112  -11.9905   22.4875 H   0  0  0  0  0  0
  -21.1098  -13.1233   22.2669 H   0  0  0  0  0  0
  -24.6384  -15.8246   20.4933 H   0  0  0  0  0  0
  -26.2496  -15.6212   20.0240 H   0  0  0  0  0  0
  -26.7138  -32.5505   23.1115 H   0  0  0  0  0  0
  -25.0064  -33.9751   25.0444 H   0  0  0  0  0  0
  -22.7020  -31.3062   21.4056 H   0  0  0  0  0  0
  -23.3765  -35.9616   23.3274 H   0  0  0  0  0  0
  -24.3590  -36.8945   22.2048 H   0  0  0  0  0  0
  -23.7226  -37.6491   23.6664 H   0  0  0  0  0  0
  -26.0647  -31.5796   20.5997 H   0  0  0  0  0  0
  -26.8310  -30.8673   21.9884 H   0  0  0  0  0  0
  -28.1131  -29.0475   21.1684 H   0  0  0  0  0  0
  -26.0090  -25.9655   18.9885 H   0  0  0  0  0  0
  -23.9726  -27.3059   19.0228 H   0  0  0  0  0  0
  -23.7390  -30.6013   19.4054 H   0  0  0  0  0  0
  -22.7455  -29.2494   19.8604 H   0  0  0  0  0  0
  -25.1278  -36.1947   25.0815 H   0  0  0  0  0  0
  -20.9962  -28.3269   24.1422 H   0  0  0  0  0  0
  -20.5704  -26.2283   23.3608 H   0  0  0  0  0  0
  -21.6642  -26.7467   22.1187 H   0  0  0  0  0  0
  -19.6915  -25.6308   21.1245 H   0  0  0  0  0  0
  -19.6703  -27.3208   20.6752 H   0  0  0  0  0  0
  -17.4198  -26.6680   21.4029 H   0  0  0  0  0  0
  -18.0329  -26.0072   22.9027 H   0  0  0  0  0  0
  -19.7928  -30.7268   24.2282 H   0  0  0  0  0  0
  -17.5011  -31.6267   24.5176 H   0  0  0  0  0  0
  -15.5349  -30.3003   23.7643 H   0  0  0  0  0  0
  -15.8672  -28.0851   22.7038 H   0  0  0  0  0  0
  -24.5878  -30.7100   25.7758 H   0  0  0  0  0  0
  -24.8920  -32.2894   26.4867 H   0  0  0  0  0  0
  -25.8032  -30.8891   27.0203 H   0  0  0  0  0  0
  -26.2864  -29.6776   24.1159 H   0  0  0  0  0  0
  -27.4071  -29.7273   25.4582 H   0  0  0  0  0  0
  -27.8711  -30.4329   23.9274 H   0  0  0  0  0  0
  -27.2686  -33.3620   26.2049 H   0  0  0  0  0  0
  -28.3855  -32.6884   25.0272 H   0  0  0  0  0  0
  -28.0740  -31.8431   26.5359 H   0  0  0  0  0  0
  -28.2548  -38.0145   24.7609 H   0  0  0  0  0  0
  -28.1173  -36.2686   24.6125 H   0  0  0  0  0  0
  -27.2333  -37.1241   25.8846 H   0  0  0  0  0  0
  -20.9329  -29.8777   21.6919 H   0  0  0  0  0  0
  -26.0175  -38.2856   24.1504 H   0  0  0  0  0  0
  -28.6721  -18.7017   20.5239 H   0  0  0  0  0  0
  -33.2785  -18.4423   22.3612 H   0  0  0  0  0  0
  -33.7846  -19.8637   21.4404 H   0  0  0  0  0  0
  -33.6952  -18.2819   20.6420 H   0  0  0  0  0  0
  -28.6926  -15.4196   22.7296 H   0  0  0  0  0  0
  -27.9977  -15.5541   21.0955 H   0  0  0  0  0  0
  -28.5422  -16.9481   21.9332 H   0  0  0  0  0  0
  -28.4486  -21.4521   19.6969 H   0  0  0  0  0  0
  -29.9373  -21.9252   18.9519 H   0  0  0  0  0  0
  -30.9050  -16.9316   22.6983 H   0  0  0  0  0  0
  -32.0441  -16.6033   21.4845 H   0  0  0  0  0  0
  -30.5696  -22.8421   21.3474 H   0  0  0  0  0  0
  -28.8832  -22.7926   21.6932 H   0  0  0  0  0  0
  -29.7798  -24.3041   19.1834 H   0  0  0  0  0  0
  -30.3253  -24.9263   20.7017 H   0  0  0  0  0  0
  -27.9059  -25.1097   21.4792 H   0  0  0  0  0  0
  -27.4403  -24.6994   19.8501 H   0  0  0  0  0  0
  1 25  1  0  0  0
  1 30  2  0  0  0
  1 83  1  0  0  0
  2  3  1  0  0  0
  2 25  1  0  0  0
  2 84  1  0  0  0
  2 85  1  0  0  0
  3  4  1  0  0  0
  3 86  1  0  0  0
  3 87  1  0  0  0
  4  5  1  0  0  0
  4 88  1  0  0  0
  4 89  1  0  0  0
  5  6  1  0  0  0
  5 26  1  0  0  0
  5 90  1  0  0  0
  6 25  1  0  0  0
  6 91  1  0  0  0
  6 92  1  0  0  0
  7  8  2  0  0  0
  7 26  1  0  0  0
  7 29  1  0  0  0
  8  9  1  0  0  0
  8 22  1  0  0  0
  9 10  1  0  0  0
  9 27  2  0  0  0
 10 11  2  0  0  0
 10 15  1  0  0  0
 11 12  1  0  0  0
 11 93  1  0  0  0
 12 13  2  0  0  0
 12 94  1  0  0  0
 13 14  1  0  0  0
 13 31  1  0  0  0
 14 15  2  0  0  0
 14 95  1  0  0  0
 15 96  1  0  0  0
 16 17  2  0  0  0
 16 21  1  0  0  0
 16 31  1  0  0  0
 17 18  1  0  0  0
 17 97  1  0  0  0
 18 19  2  0  0  0
 18 98  1  0  0  0
 19 20  1  0  0  0
 19 24  1  0  0  0
 20 21  2  0  0  0
 20 99  1  0  0  0
 21 23  1  0  0  0
 22 28  1  0  0  0
 22 32  2  0  0  0
 26 27  1  0  0  0
 28100  1  0  0  0
 28101  1  0  0  0
 29102  1  0  0  0
 29103  1  0  0  0
 33 34  1  0  0  0
 33 66  1  0  0  0
 33 70  2  0  0  0
 34 36  1  0  0  0
 34 59  1  0  0  0
 34104  1  0  0  0
 35 44  2  0  0  0
 35 45  1  0  0  0
 35 68  1  0  0  0
 36 56  1  0  0  0
 36105  1  0  0  0
 37 39  1  0  0  0
 37 47  1  0  0  0
 37 66  1  0  0  0
 37106  1  0  0  0
 38 43  2  0  0  0
 38 46  1  0  0  0
 38 47  1  0  0  0
 39 64  1  0  0  0
 39 67  2  0  0  0
 40 52  1  0  0  0
 40 53  2  0  0  0
 40 58  1  0  0  0
 41107  1  0  0  0
 41108  1  0  0  0
 41109  1  0  0  0
 41 48  1  0  0  0
 42 43  1  0  0  0
 42 66  1  0  0  0
 42110  1  0  0  0
 42111  1  0  0  0
 43 44  1  0  0  0
 44112  1  0  0  0
 45 46  2  0  0  0
 45113  1  0  0  0
 46114  1  0  0  0
 47115  1  0  0  0
 47116  1  0  0  0
 48 56  1  0  0  0
 48 65  1  0  0  0
 48117  1  0  0  0
 49 50  1  0  0  0
 49 53  1  0  0  0
 49 64  1  0  0  0
 49118  1  0  0  0
 50 51  1  0  0  0
 50119  1  0  0  0
 50120  1  0  0  0
 51 52  1  0  0  0
 51121  1  0  0  0
 51122  1  0  0  0
 52123  1  0  0  0
 52124  1  0  0  0
 53 54  1  0  0  0
 54 55  2  0  0  0
 54125  1  0  0  0
 55 57  1  0  0  0
 55126  1  0  0  0
 56 69  2  0  0  0
 57 58  2  0  0  0
 57127  1  0  0  0
 58128  1  0  0  0
 59 60  1  0  0  0
 59 61  1  0  0  0
 59 62  1  0  0  0
 60129  1  0  0  0
 60130  1  0  0  0
 60131  1  0  0  0
 61132  1  0  0  0
 61133  1  0  0  0
 61134  1  0  0  0
 62135  1  0  0  0
 62136  1  0  0  0
 62137  1  0  0  0
 63 65  1  0  0  0
 63138  1  0  0  0
 63139  1  0  0  0
 63140  1  0  0  0
 64141  1  0  0  0
 65142  1  0  0  0
 68 80  1  0  0  0
 71 72  1  0  0  0
 71 73  2  0  0  0
 71143  1  0  0  0
 72 76  1  0  0  0
 72 81  2  0  0  0
 73 77  1  0  0  0
 73 82  1  0  0  0
 74 82  1  0  0  0
 74144  1  0  0  0
 74145  1  0  0  0
 74146  1  0  0  0
 75 83  1  0  0  0
 75147  1  0  0  0
 75148  1  0  0  0
 75149  1  0  0  0
 76 78  1  0  0  0
 76150  1  0  0  0
 76151  1  0  0  0
 77 83  1  0  0  0
 77152  1  0  0  0
 77153  1  0  0  0
 78 79  1  0  0  0
 78154  1  0  0  0
 78155  1  0  0  0
 79 80  1  0  0  0
 79156  1  0  0  0
 79157  1  0  0  0
 80158  1  0  0  0
 80159  1  0  0  0
 81 82  1  0  0  0
M  ISO  4   1 100  68 101  80 101  83 100
M  END
> <chiral flag>
0

> <version>
0

> <s_m_source_file>
/data/baiqing/PycharmProjects/Reinvent-master-3.2/result/LINK_invent/BTK/process_docking_weight1_custom_sum_contain_oxygen_bond_distance_aromatic_linkinvent_7_9_3/rearranged_h_0036.sdf

> <i_m_source_file_index>
53

> <r_mmod_Potential_Energy-OPLS-2005>
73.0624694824219

> <r_mmod_Stretch_Energy-OPLS-2005>
61.1272964477539

> <r_mmod_Bend_Energy-OPLS-2005>
152.846099853516

> <r_mmod_Torsional_Energy-OPLS-2005>
248.38410949707

> <r_mmod_Improper_Torsional_Energy-OPLS-2005>
2.65412068367004

> <r_mmod_Van_der_Waal_Energy-OPLS-2005>
150.346481323242

> <r_mmod_Electrostatic_Energy-OPLS-2005>
-358.130157470703

> <r_mmod_Solvation_Energy-OPLS-2005>
-213.161392211914

> <b_mmod_Minimization_Converged-OPLS-2005>
0

> <r_mmod_RMS_Derivative-OPLS-2005>
1.92776560783386

$$$$
54
                    3D
 Structure written by MMmdl.
168176  0  0  1  0            999 V2000
  -30.6757  -14.5119   20.5366 C   0  0  0  0  0  0
  -30.4304  -12.3179   19.4409 C   0  0  0  0  0  0
  -29.5027  -12.4957   18.2194 C   0  0  0  0  0  0
  -28.0241  -12.3514   18.6303 C   0  0  0  0  0  0
  -27.6622  -13.2055   19.8749 C   0  0  2  0  0  0
  -28.7034  -13.0099   21.0026 C   0  0  0  0  0  0
  -25.2603  -13.8160   20.5689 C   0  0  0  0  0  0
  -24.1847  -13.0440   20.9186 C   0  0  0  0  0  0
  -24.6396  -11.6908   20.8741 C   0  0  0  0  0  0
  -23.9061  -10.4296   21.0406 C   0  0  0  0  0  0
  -24.3611   -9.4212   21.9186 C   0  0  0  0  0  0
  -23.6290   -8.2245   22.0754 C   0  0  0  0  0  0
  -22.4272   -8.0286   21.3544 C   0  0  0  0  0  0
  -21.9906   -9.0259   20.4646 C   0  0  0  0  0  0
  -22.7234  -10.2139   20.3058 C   0  0  0  0  0  0
  -21.6855   -6.0739   22.5282 C   0  0  0  0  0  0
  -21.4012   -6.5639   23.8216 C   0  0  0  0  0  0
  -21.3657   -5.6791   24.9177 C   0  0  0  0  0  0
  -21.6045   -4.3055   24.7225 C   0  0  0  0  0  0
  -21.8820   -3.8148   23.4346 C   0  0  0  0  0  0
  -21.9192   -4.6967   22.3403 C   0  0  0  0  0  0
  -22.7875  -13.5251   21.1849 C   0  0  0  0  0  0
  -22.1664   -4.2151   21.0983 F   0  0  0  0  0  0
  -21.5627   -3.4538   25.7737 F   0  0  0  0  0  0
  -30.0348  -13.3130   20.4512 N   0  0  0  0  0  0
  -26.3030  -12.9320   20.3368 N   0  0  0  0  0  0
  -25.9320  -11.6483   20.5773 N   0  0  0  0  0  0
  -22.0506  -12.8243   22.0398 N   0  0  0  0  0  0
  -25.4333  -15.1876   20.4098 N   0  0  0  0  0  0
  -31.8118  -14.6955   20.0920 O   0  0  0  0  0  0
  -21.6637   -6.8879   21.4241 O   0  0  0  0  0  0
  -22.3566  -14.5559   20.6702 O   0  0  0  0  0  0
  -24.6176  -31.8670   23.2097 C   0  0  0  0  0  0
  -25.9062  -32.4824   23.8391 C   0  0  1  0  0  0
  -27.2264  -27.4067   20.1007 C   0  0  0  0  0  0
  -25.5903  -33.8622   24.2321 N   0  0  0  0  0  0
  -23.4059  -30.4913   21.5524 C   0  0  2  0  0  0
  -24.8509  -28.9614   20.1092 C   0  0  0  0  0  0
  -22.7426  -29.4645   22.4993 C   0  0  0  0  0  0
  -18.0273  -28.1370   22.8484 C   0  0  0  0  0  0
  -24.1489  -36.7315   23.2636 C   0  0  0  0  0  0
  -25.9374  -30.8247   21.3676 C   0  0  0  0  0  0
  -26.0140  -29.4594   20.7100 C   0  0  0  0  0  0
  -27.2045  -28.6907   20.7011 C   0  0  0  0  0  0
  -26.0452  -26.9443   19.4715 C   0  0  0  0  0  0
  -24.8631  -27.7044   19.4853 C   0  0  0  0  0  0
  -23.6142  -29.8294   20.1649 C   0  0  0  0  0  0
  -25.4109  -36.3112   24.0333 C   0  0  1  0  0  0
  -20.5863  -28.3661   23.1306 C   0  0  2  0  0  0
  -20.6766  -26.9396   22.5412 C   0  0  0  0  0  0
  -19.5748  -26.6374   21.5208 C   0  0  0  0  0  0
  -18.1923  -26.7916   22.1616 C   0  0  0  0  0  0
  -19.1523  -28.8830   23.2895 C   0  0  0  0  0  0
  -18.9453  -30.1435   23.8904 C   0  0  0  0  0  0
  -17.6457  -30.6582   24.0550 C   0  0  0  0  0  0
  -25.9032  -34.9479   23.5121 C   0  0  0  0  0  0
  -16.5346  -29.9080   23.6321 C   0  0  0  0  0  0
  -16.7263  -28.6497   23.0343 C   0  0  0  0  0  0
  -26.4476  -31.6609   25.0731 C   0  0  0  0  0  0
  -25.3730  -31.3722   26.1477 C   0  0  0  0  0  0
  -27.0318  -30.3049   24.6129 C   0  0  0  0  0  0
  -27.6050  -32.4327   25.7495 C   0  0  0  0  0  0
  -27.5584  -37.1814   24.8460 C   0  0  0  0  0  0
  -21.4150  -29.3033   22.3725 N   0  0  0  0  0  0
  -26.4295  -37.3795   23.9403 N   0  0  0  0  0  0
  -24.6722  -31.0742   22.1018 N   0  0  0  0  0  0
  -23.4191  -28.8175   23.3029 O   0  0  0  0  0  0
  -28.3732  -26.6256   20.1549 O   0  0  0  0  0  0
  -26.5596  -34.8927   22.4682 O   0  0  0  0  0  0
  -23.5361  -32.1427   23.7479 O   0  0  0  0  0  0
  -29.9046  -21.8620   20.8556 C   0  0  0  0  0  0
  -28.3307  -20.1242   21.5150 C   0  0  0  0  0  0
  -27.6663  -22.4660   21.5843 C   0  0  0  0  0  0
  -29.6228  -20.4862   21.0778 C   0  0  0  0  0  0
  -28.9306  -22.8657   21.0972 C   0  0  0  0  0  0
  -27.3431  -21.1011   21.7847 C   0  0  0  0  0  0
  -26.1218  -19.8800   23.6180 C   0  0  0  0  0  0
  -25.2986  -19.7352   21.2452 C   0  0  0  0  0  0
  -24.9947  -21.8325   22.5527 C   0  0  0  0  0  0
  -30.7205  -19.4303   20.8454 C   0  0  0  0  0  0
  -29.2466  -24.3683   20.9106 C   0  0  0  0  0  0
  -30.5312  -17.9888   21.4292 C   0  0  0  0  0  0
  -30.0072  -16.9399   20.4129 C   0  0  0  0  0  0
  -28.1815  -25.1874   20.1236 C   0  0  0  0  0  0
  -25.9593  -20.6521   22.2936 C   0  0  0  0  0  0
  -29.8998  -15.5509   20.9154 N   0  0  0  0  0  0
  -31.4745  -12.4214   19.1405 H   0  0  0  0  0  0
  -30.3378  -11.3119   19.8526 H   0  0  0  0  0  0
  -29.7495  -11.7610   17.4518 H   0  0  0  0  0  0
  -29.6652  -13.4762   17.7687 H   0  0  0  0  0  0
  -27.8436  -11.2968   18.8431 H   0  0  0  0  0  0
  -27.3721  -12.6075   17.7944 H   0  0  0  0  0  0
  -27.6994  -14.2482   19.5587 H   0  0  0  0  0  0
  -28.6830  -11.9817   21.3664 H   0  0  0  0  0  0
  -28.4644  -13.6314   21.8671 H   0  0  0  0  0  0
  -25.2753   -9.5689   22.4762 H   0  0  0  0  0  0
  -24.0000   -7.4635   22.7472 H   0  0  0  0  0  0
  -21.0838   -8.8780   19.8951 H   0  0  0  0  0  0
  -22.3694  -10.9680   19.6170 H   0  0  0  0  0  0
  -21.2006   -7.6147   23.9720 H   0  0  0  0  0  0
  -21.1478   -6.0520   25.9079 H   0  0  0  0  0  0
  -22.0600   -2.7610   23.2847 H   0  0  0  0  0  0
  -22.4104  -11.9895   22.4780 H   0  0  0  0  0  0
  -21.1132  -13.1285   22.2603 H   0  0  0  0  0  0
  -24.6667  -15.8429   20.5165 H   0  0  0  0  0  0
  -26.2849  -15.6255   20.0828 H   0  0  0  0  0  0
  -26.7137  -32.5527   23.1150 H   0  0  0  0  0  0
  -25.0060  -33.9767   25.0476 H   0  0  0  0  0  0
  -22.6965  -31.3101   21.4171 H   0  0  0  0  0  0
  -23.3749  -35.9651   23.3305 H   0  0  0  0  0  0
  -24.3577  -36.8922   22.2048 H   0  0  0  0  0  0
  -23.7252  -37.6522   23.6649 H   0  0  0  0  0  0
  -26.0536  -31.5939   20.6028 H   0  0  0  0  0  0
  -26.8221  -30.8740   21.9900 H   0  0  0  0  0  0
  -28.0983  -29.0670   21.1793 H   0  0  0  0  0  0
  -26.0145  -25.9880   18.9693 H   0  0  0  0  0  0
  -23.9707  -27.3189   19.0112 H   0  0  0  0  0  0
  -23.7235  -30.6073   19.4087 H   0  0  0  0  0  0
  -22.7371  -29.2521   19.8673 H   0  0  0  0  0  0
  -25.1295  -36.1971   25.0828 H   0  0  0  0  0  0
  -20.9949  -28.3230   24.1428 H   0  0  0  0  0  0
  -20.5659  -26.2272   23.3598 H   0  0  0  0  0  0
  -21.6639  -26.7434   22.1210 H   0  0  0  0  0  0
  -19.6899  -25.6285   21.1236 H   0  0  0  0  0  0
  -19.6682  -27.3186   20.6737 H   0  0  0  0  0  0
  -17.4191  -26.6654   21.4024 H   0  0  0  0  0  0
  -18.0327  -26.0057   22.9009 H   0  0  0  0  0  0
  -19.7937  -30.7243   24.2283 H   0  0  0  0  0  0
  -17.5018  -31.6263   24.5155 H   0  0  0  0  0  0
  -15.5348  -30.2980   23.7652 H   0  0  0  0  0  0
  -15.8663  -28.0822   22.7047 H   0  0  0  0  0  0
  -24.5897  -30.7073   25.7814 H   0  0  0  0  0  0
  -24.8923  -32.2882   26.4932 H   0  0  0  0  0  0
  -25.8075  -30.8888   27.0237 H   0  0  0  0  0  0
  -26.2873  -29.6801   24.1174 H   0  0  0  0  0  0
  -27.4072  -29.7305   25.4609 H   0  0  0  0  0  0
  -27.8719  -30.4365   23.9299 H   0  0  0  0  0  0
  -27.2673  -33.3621   26.2096 H   0  0  0  0  0  0
  -28.3853  -32.6895   25.0316 H   0  0  0  0  0  0
  -28.0725  -31.8431   26.5390 H   0  0  0  0  0  0
  -28.2612  -38.0105   24.7515 H   0  0  0  0  0  0
  -28.1076  -36.2638   24.6289 H   0  0  0  0  0  0
  -27.2293  -37.1466   25.8860 H   0  0  0  0  0  0
  -20.9309  -29.8778   21.6970 H   0  0  0  0  0  0
  -26.0188  -38.2874   24.1406 H   0  0  0  0  0  0
  -30.8887  -22.1514   20.5118 H   0  0  0  0  0  0
  -28.0907  -19.0819   21.6630 H   0  0  0  0  0  0
  -26.9422  -23.2313   21.8119 H   0  0  0  0  0  0
  -26.7209  -18.9774   23.4988 H   0  0  0  0  0  0
  -25.1576  -19.5684   24.0202 H   0  0  0  0  0  0
  -26.6078  -20.4961   24.3759 H   0  0  0  0  0  0
  -25.8809  -18.8331   21.0582 H   0  0  0  0  0  0
  -25.1821  -20.2498   20.2909 H   0  0  0  0  0  0
  -24.3072  -19.4132   21.5653 H   0  0  0  0  0  0
  -25.3801  -22.5123   23.3138 H   0  0  0  0  0  0
  -24.0248  -21.4829   22.9077 H   0  0  0  0  0  0
  -24.8072  -22.4103   21.6464 H   0  0  0  0  0  0
  -31.6289  -19.8420   21.2884 H   0  0  0  0  0  0
  -30.9251  -19.3755   19.7756 H   0  0  0  0  0  0
  -30.2169  -24.4822   20.4268 H   0  0  0  0  0  0
  -29.3520  -24.8022   21.9059 H   0  0  0  0  0  0
  -29.9400  -18.0018   22.3451 H   0  0  0  0  0  0
  -31.5176  -17.6427   21.7413 H   0  0  0  0  0  0
  -30.6331  -16.9590   19.5188 H   0  0  0  0  0  0
  -29.0149  -17.2435   20.0779 H   0  0  0  0  0  0
  -27.2130  -24.9521   20.5611 H   0  0  0  0  0  0
  -28.1496  -24.8478   19.0876 H   0  0  0  0  0  0
  -29.0024  -15.2892   21.2964 H   0  0  0  0  0  0
  1 25  1  0  0  0
  1 30  2  0  0  0
  1 86  1  0  0  0
  2  3  1  0  0  0
  2 25  1  0  0  0
  2 87  1  0  0  0
  2 88  1  0  0  0
  3  4  1  0  0  0
  3 89  1  0  0  0
  3 90  1  0  0  0
  4  5  1  0  0  0
  4 91  1  0  0  0
  4 92  1  0  0  0
  5  6  1  0  0  0
  5 26  1  0  0  0
  5 93  1  0  0  0
  6 25  1  0  0  0
  6 94  1  0  0  0
  6 95  1  0  0  0
  7  8  2  0  0  0
  7 26  1  0  0  0
  7 29  1  0  0  0
  8  9  1  0  0  0
  8 22  1  0  0  0
  9 10  1  0  0  0
  9 27  2  0  0  0
 10 11  2  0  0  0
 10 15  1  0  0  0
 11 12  1  0  0  0
 11 96  1  0  0  0
 12 13  2  0  0  0
 12 97  1  0  0  0
 13 14  1  0  0  0
 13 31  1  0  0  0
 14 15  2  0  0  0
 14 98  1  0  0  0
 15 99  1  0  0  0
 16 17  2  0  0  0
 16 21  1  0  0  0
 16 31  1  0  0  0
 17 18  1  0  0  0
 17100  1  0  0  0
 18 19  2  0  0  0
 18101  1  0  0  0
 19 20  1  0  0  0
 19 24  1  0  0  0
 20 21  2  0  0  0
 20102  1  0  0  0
 21 23  1  0  0  0
 22 28  1  0  0  0
 22 32  2  0  0  0
 26 27  1  0  0  0
 28103  1  0  0  0
 28104  1  0  0  0
 29105  1  0  0  0
 29106  1  0  0  0
 33 34  1  0  0  0
 33 66  1  0  0  0
 33 70  2  0  0  0
 34 36  1  0  0  0
 34 59  1  0  0  0
 34107  1  0  0  0
 35 44  2  0  0  0
 35 45  1  0  0  0
 35 68  1  0  0  0
 36 56  1  0  0  0
 36108  1  0  0  0
 37 39  1  0  0  0
 37 47  1  0  0  0
 37 66  1  0  0  0
 37109  1  0  0  0
 38 43  2  0  0  0
 38 46  1  0  0  0
 38 47  1  0  0  0
 39 64  1  0  0  0
 39 67  2  0  0  0
 40 52  1  0  0  0
 40 53  2  0  0  0
 40 58  1  0  0  0
 41110  1  0  0  0
 41111  1  0  0  0
 41112  1  0  0  0
 41 48  1  0  0  0
 42 43  1  0  0  0
 42 66  1  0  0  0
 42113  1  0  0  0
 42114  1  0  0  0
 43 44  1  0  0  0
 44115  1  0  0  0
 45 46  2  0  0  0
 45116  1  0  0  0
 46117  1  0  0  0
 47118  1  0  0  0
 47119  1  0  0  0
 48 56  1  0  0  0
 48 65  1  0  0  0
 48120  1  0  0  0
 49 50  1  0  0  0
 49 53  1  0  0  0
 49 64  1  0  0  0
 49121  1  0  0  0
 50 51  1  0  0  0
 50122  1  0  0  0
 50123  1  0  0  0
 51 52  1  0  0  0
 51124  1  0  0  0
 51125  1  0  0  0
 52126  1  0  0  0
 52127  1  0  0  0
 53 54  1  0  0  0
 54 55  2  0  0  0
 54128  1  0  0  0
 55 57  1  0  0  0
 55129  1  0  0  0
 56 69  2  0  0  0
 57 58  2  0  0  0
 57130  1  0  0  0
 58131  1  0  0  0
 59 60  1  0  0  0
 59 61  1  0  0  0
 59 62  1  0  0  0
 60132  1  0  0  0
 60133  1  0  0  0
 60134  1  0  0  0
 61135  1  0  0  0
 61136  1  0  0  0
 61137  1  0  0  0
 62138  1  0  0  0
 62139  1  0  0  0
 62140  1  0  0  0
 63 65  1  0  0  0
 63141  1  0  0  0
 63142  1  0  0  0
 63143  1  0  0  0
 64144  1  0  0  0
 65145  1  0  0  0
 68 84  1  0  0  0
 71 74  2  0  0  0
 71 75  1  0  0  0
 71146  1  0  0  0
 72 74  1  0  0  0
 72 76  2  0  0  0
 72147  1  0  0  0
 73 75  2  0  0  0
 73 76  1  0  0  0
 73148  1  0  0  0
 74 80  1  0  0  0
 75 81  1  0  0  0
 76 85  1  0  0  0
 77149  1  0  0  0
 77150  1  0  0  0
 77151  1  0  0  0
 77 85  1  0  0  0
 78 85  1  0  0  0
 78152  1  0  0  0
 78153  1  0  0  0
 78154  1  0  0  0
 79 85  1  0  0  0
 79155  1  0  0  0
 79156  1  0  0  0
 79157  1  0  0  0
 80 82  1  0  0  0
 80158  1  0  0  0
 80159  1  0  0  0
 81 84  1  0  0  0
 81160  1  0  0  0
 81161  1  0  0  0
 82 83  1  0  0  0
 82162  1  0  0  0
 82163  1  0  0  0
 83 86  1  0  0  0
 83164  1  0  0  0
 83165  1  0  0  0
 84166  1  0  0  0
 84167  1  0  0  0
 86168  1  0  0  0
M  ISO  4   1 100  68 101  84 101  86 100
M  END
> <chiral flag>
0

> <version>
0

> <s_m_source_file>
/data/baiqing/PycharmProjects/Reinvent-master-3.2/result/LINK_invent/BTK/process_docking_weight1_custom_sum_contain_oxygen_bond_distance_aromatic_linkinvent_7_9_3/rearranged_h_0036.sdf

> <i_m_source_file_index>
54

> <r_mmod_Potential_Energy-OPLS-2005>
-44.1795349121094

> <r_mmod_Stretch_Energy-OPLS-2005>
46.7279434204102

> <r_mmod_Bend_Energy-OPLS-2005>
106.50659942627

> <r_mmod_Torsional_Energy-OPLS-2005>
215.922088623047

> <r_mmod_Improper_Torsional_Energy-OPLS-2005>
6.991868019104

> <r_mmod_Van_der_Waal_Energy-OPLS-2005>
160.41650390625

> <r_mmod_Electrostatic_Energy-OPLS-2005>
-403.498077392578

> <r_mmod_Solvation_Energy-OPLS-2005>
-196.82453918457

> <b_mmod_Minimization_Converged-OPLS-2005>
0

> <r_mmod_RMS_Derivative-OPLS-2005>
1.13119101524353

$$$$
55
                    3D
 Structure written by MMmdl.
168176  0  0  1  0            999 V2000
  -30.6790  -14.6330   20.4415 C   0  0  0  0  0  0
  -30.4191  -12.3812   19.4505 C   0  0  0  0  0  0
  -29.4983  -12.4782   18.2174 C   0  0  0  0  0  0
  -28.0224  -12.3309   18.6365 C   0  0  0  0  0  0
  -27.6419  -13.2215   19.8512 C   0  0  2  0  0  0
  -28.6942  -13.1464   20.9776 C   0  0  0  0  0  0
  -25.2481  -13.8110   20.5646 C   0  0  0  0  0  0
  -24.1783  -13.0389   20.9217 C   0  0  0  0  0  0
  -24.6384  -11.6873   20.8778 C   0  0  0  0  0  0
  -23.9061  -10.4261   21.0433 C   0  0  0  0  0  0
  -24.3600   -9.4178   21.9211 C   0  0  0  0  0  0
  -23.6274   -8.2221   22.0770 C   0  0  0  0  0  0
  -22.4263   -8.0272   21.3554 C   0  0  0  0  0  0
  -21.9901   -9.0252   20.4664 C   0  0  0  0  0  0
  -22.7235  -10.2126   20.3079 C   0  0  0  0  0  0
  -21.6848   -6.0727   22.5283 C   0  0  0  0  0  0
  -21.4013   -6.5627   23.8217 C   0  0  0  0  0  0
  -21.3662   -5.6781   24.9181 C   0  0  0  0  0  0
  -21.6050   -4.3046   24.7237 C   0  0  0  0  0  0
  -21.8821   -3.8140   23.4358 C   0  0  0  0  0  0
  -21.9193   -4.6954   22.3415 C   0  0  0  0  0  0
  -22.7811  -13.5209   21.1858 C   0  0  0  0  0  0
  -22.1660   -4.2131   21.0996 F   0  0  0  0  0  0
  -21.5624   -3.4541   25.7758 F   0  0  0  0  0  0
  -29.9984  -13.4482   20.3773 N   0  0  0  0  0  0
  -26.2939  -12.9340   20.3316 N   0  0  0  0  0  0
  -25.9322  -11.6499   20.5814 N   0  0  0  0  0  0
  -22.0433  -12.8243   22.0425 N   0  0  0  0  0  0
  -25.4085  -15.1794   20.3893 N   0  0  0  0  0  0
  -31.8998  -14.6635   20.2542 O   0  0  0  0  0  0
  -21.6636   -6.8866   21.4242 O   0  0  0  0  0  0
  -22.3524  -14.5524   20.6691 O   0  0  0  0  0  0
  -24.6224  -31.8626   23.2023 C   0  0  0  0  0  0
  -25.9087  -32.4789   23.8350 C   0  0  1  0  0  0
  -27.2327  -27.3600   20.1174 C   0  0  0  0  0  0
  -25.5913  -33.8587   24.2282 N   0  0  0  0  0  0
  -23.4149  -30.4831   21.5440 C   0  0  2  0  0  0
  -24.8642  -28.9352   20.1169 C   0  0  0  0  0  0
  -22.7459  -29.4639   22.4957 C   0  0  0  0  0  0
  -18.0294  -28.1386   22.8490 C   0  0  0  0  0  0
  -24.1491  -36.7299   23.2638 C   0  0  0  0  0  0
  -25.9504  -30.8063   21.3666 C   0  0  0  0  0  0
  -26.0296  -29.4337   20.7153 C   0  0  0  0  0  0
  -27.2209  -28.6562   20.7053 C   0  0  0  0  0  0
  -26.0506  -26.8959   19.5066 C   0  0  0  0  0  0
  -24.8736  -27.6701   19.5050 C   0  0  0  0  0  0
  -23.6300  -29.8111   20.1619 C   0  0  0  0  0  0
  -25.4117  -36.3094   24.0333 C   0  0  1  0  0  0
  -20.5887  -28.3700   23.1322 C   0  0  2  0  0  0
  -20.6796  -26.9415   22.5442 C   0  0  0  0  0  0
  -19.5780  -26.6378   21.5229 C   0  0  0  0  0  0
  -18.1949  -26.7926   22.1632 C   0  0  0  0  0  0
  -19.1537  -28.8859   23.2892 C   0  0  0  0  0  0
  -18.9447  -30.1465   23.8902 C   0  0  0  0  0  0
  -17.6446  -30.6597   24.0559 C   0  0  0  0  0  0
  -25.9040  -34.9460   23.5110 C   0  0  0  0  0  0
  -16.5348  -29.9088   23.6316 C   0  0  0  0  0  0
  -16.7280  -28.6509   23.0333 C   0  0  0  0  0  0
  -26.4478  -31.6580   25.0700 C   0  0  0  0  0  0
  -25.3718  -31.3709   26.1431 C   0  0  0  0  0  0
  -27.0315  -30.3021   24.6109 C   0  0  0  0  0  0
  -27.6058  -32.4306   25.7453 C   0  0  0  0  0  0
  -27.5582  -37.1805   24.8465 C   0  0  0  0  0  0
  -21.4172  -29.3062   22.3724 N   0  0  0  0  0  0
  -26.4303  -37.3782   23.9400 N   0  0  0  0  0  0
  -24.6805  -31.0670   22.0953 N   0  0  0  0  0  0
  -23.4204  -28.8181   23.3015 O   0  0  0  0  0  0
  -28.3562  -26.5394   20.1098 O   0  0  0  0  0  0
  -26.5608  -34.8930   22.4672 O   0  0  0  0  0  0
  -23.5394  -32.1409   23.7375 O   0  0  0  0  0  0
  -30.3426  -20.7416   20.9124 C   0  0  0  0  0  0
  -27.9868  -20.2898   20.9935 C   0  0  0  0  0  0
  -29.0246  -21.2515   20.9846 C   0  0  0  0  0  0
  -30.6206  -19.3402   20.9382 C   0  0  0  0  0  0
  -28.2465  -18.8887   21.0228 C   0  0  0  0  0  0
  -29.5751  -18.3673   21.0253 C   0  0  0  0  0  0
  -32.0802  -18.9176   20.9750 C   0  0  0  0  0  0
  -27.0534  -17.9625   21.1510 C   0  0  0  0  0  0
  -29.1593  -17.1931   16.6912 C   0  0  0  0  0  0
  -28.7303  -22.7509   21.3291 C   0  0  0  0  0  0
  -29.8725  -16.8330   21.3062 C   0  0  0  0  0  0
  -28.8641  -16.6285   18.0855 C   0  0  0  0  0  0
  -28.6828  -23.9114   20.2569 C   0  0  0  0  0  0
  -30.1621  -16.3783   18.8690 C   0  0  0  0  0  0
  -28.2597  -25.3028   20.8893 C   0  0  0  0  0  0
  -29.9630  -15.7933   20.2171 N   0  0  0  0  0  0
  -31.4633  -12.4767   19.1475 H   0  0  0  0  0  0
  -30.3295  -11.4052   19.9294 H   0  0  0  0  0  0
  -29.7601  -11.7060   17.4918 H   0  0  0  0  0  0
  -29.6478  -13.4347   17.7133 H   0  0  0  0  0  0
  -27.8607  -11.2817   18.8848 H   0  0  0  0  0  0
  -27.3670  -12.5447   17.7920 H   0  0  0  0  0  0
  -27.6380  -14.2458   19.4892 H   0  0  0  0  0  0
  -28.7055  -12.1592   21.4431 H   0  0  0  0  0  0
  -28.4577  -13.8628   21.7660 H   0  0  0  0  0  0
  -25.2733   -9.5653   22.4799 H   0  0  0  0  0  0
  -23.9982   -7.4612   22.7483 H   0  0  0  0  0  0
  -21.0836   -8.8779   19.8964 H   0  0  0  0  0  0
  -22.3697  -10.9674   19.6195 H   0  0  0  0  0  0
  -21.2000   -7.6134   23.9721 H   0  0  0  0  0  0
  -21.1479   -6.0510   25.9083 H   0  0  0  0  0  0
  -22.0593   -2.7602   23.2875 H   0  0  0  0  0  0
  -22.3992  -11.9911   22.4869 H   0  0  0  0  0  0
  -21.1065  -13.1321   22.2605 H   0  0  0  0  0  0
  -24.6349  -15.8276   20.4810 H   0  0  0  0  0  0
  -26.2450  -15.6039   20.0124 H   0  0  0  0  0  0
  -26.7169  -32.5486   23.1118 H   0  0  0  0  0  0
  -25.0069  -33.9731   25.0434 H   0  0  0  0  0  0
  -22.7052  -31.3002   21.3982 H   0  0  0  0  0  0
  -23.3750  -35.9630   23.3307 H   0  0  0  0  0  0
  -24.3580  -36.8905   22.2048 H   0  0  0  0  0  0
  -23.7238  -37.6505   23.6645 H   0  0  0  0  0  0
  -26.0692  -31.5699   20.5973 H   0  0  0  0  0  0
  -26.8349  -30.8606   21.9892 H   0  0  0  0  0  0
  -28.1200  -29.0336   21.1714 H   0  0  0  0  0  0
  -26.0411  -25.9234   19.0346 H   0  0  0  0  0  0
  -23.9818  -27.2816   19.0331 H   0  0  0  0  0  0
  -23.7439  -30.5817   19.3983 H   0  0  0  0  0  0
  -22.7528  -29.2335   19.8659 H   0  0  0  0  0  0
  -25.1293  -36.1950   25.0825 H   0  0  0  0  0  0
  -20.9952  -28.3274   24.1452 H   0  0  0  0  0  0
  -20.5707  -26.2297   23.3638 H   0  0  0  0  0  0
  -21.6662  -26.7472   22.1213 H   0  0  0  0  0  0
  -19.6962  -25.6285   21.1275 H   0  0  0  0  0  0
  -19.6709  -27.3200   20.6759 H   0  0  0  0  0  0
  -17.4220  -26.6690   21.4031 H   0  0  0  0  0  0
  -18.0325  -26.0073   22.9030 H   0  0  0  0  0  0
  -19.7929  -30.7276   24.2282 H   0  0  0  0  0  0
  -17.5000  -31.6276   24.5158 H   0  0  0  0  0  0
  -15.5344  -30.2982   23.7629 H   0  0  0  0  0  0
  -15.8690  -28.0825   22.7032 H   0  0  0  0  0  0
  -24.5905  -30.7053   25.7746 H   0  0  0  0  0  0
  -24.8899  -32.2871   26.4860 H   0  0  0  0  0  0
  -25.8055  -30.8882   27.0196 H   0  0  0  0  0  0
  -26.2876  -29.6776   24.1161 H   0  0  0  0  0  0
  -27.4063  -29.7269   25.4577 H   0  0  0  0  0  0
  -27.8711  -30.4323   23.9280 H   0  0  0  0  0  0
  -27.2695  -33.3608   26.2046 H   0  0  0  0  0  0
  -28.3850  -32.6869   25.0261 H   0  0  0  0  0  0
  -28.0744  -31.8420   26.5347 H   0  0  0  0  0  0
  -28.2608  -38.0095   24.7501 H   0  0  0  0  0  0
  -28.1070  -36.2625   24.6306 H   0  0  0  0  0  0
  -27.2293  -37.1464   25.8868 H   0  0  0  0  0  0
  -20.9336  -29.8804   21.6955 H   0  0  0  0  0  0
  -26.0187  -38.2858   24.1406 H   0  0  0  0  0  0
  -31.1670  -21.4423   20.9288 H   0  0  0  0  0  0
  -26.9630  -20.6318   21.0724 H   0  0  0  0  0  0
  -32.3786  -18.6889   21.9983 H   0  0  0  0  0  0
  -32.7307  -19.7119   20.6090 H   0  0  0  0  0  0
  -32.2672  -18.0369   20.3623 H   0  0  0  0  0  0
  -26.1729  -18.3813   20.6620 H   0  0  0  0  0  0
  -26.8141  -17.7958   22.2009 H   0  0  0  0  0  0
  -27.2581  -17.0005   20.6900 H   0  0  0  0  0  0
  -28.2378  -17.4092   16.1502 H   0  0  0  0  0  0
  -29.7368  -16.4860   16.0944 H   0  0  0  0  0  0
  -29.7311  -18.1201   16.7524 H   0  0  0  0  0  0
  -27.7796  -22.7674   21.8644 H   0  0  0  0  0  0
  -29.4680  -23.0348   22.0803 H   0  0  0  0  0  0
  -29.1169  -16.4736   22.0052 H   0  0  0  0  0  0
  -30.7902  -16.7833   21.8947 H   0  0  0  0  0  0
  -28.2945  -15.7073   17.9796 H   0  0  0  0  0  0
  -28.2288  -17.3334   18.6186 H   0  0  0  0  0  0
  -27.9815  -23.6517   19.4634 H   0  0  0  0  0  0
  -29.6613  -24.0061   19.7860 H   0  0  0  0  0  0
  -30.7338  -17.3017   18.9288 H   0  0  0  0  0  0
  -30.7811  -15.7282   18.2453 H   0  0  0  0  0  0
  -28.8992  -25.4700   21.7570 H   0  0  0  0  0  0
  -27.2570  -25.1945   21.3062 H   0  0  0  0  0  0
  1 25  1  0  0  0
  1 30  2  0  0  0
  1 86  1  0  0  0
  2  3  1  0  0  0
  2 25  1  0  0  0
  2 87  1  0  0  0
  2 88  1  0  0  0
  3  4  1  0  0  0
  3 89  1  0  0  0
  3 90  1  0  0  0
  4  5  1  0  0  0
  4 91  1  0  0  0
  4 92  1  0  0  0
  5  6  1  0  0  0
  5 26  1  0  0  0
  5 93  1  0  0  0
  6 25  1  0  0  0
  6 94  1  0  0  0
  6 95  1  0  0  0
  7  8  2  0  0  0
  7 26  1  0  0  0
  7 29  1  0  0  0
  8  9  1  0  0  0
  8 22  1  0  0  0
  9 10  1  0  0  0
  9 27  2  0  0  0
 10 11  2  0  0  0
 10 15  1  0  0  0
 11 12  1  0  0  0
 11 96  1  0  0  0
 12 13  2  0  0  0
 12 97  1  0  0  0
 13 14  1  0  0  0
 13 31  1  0  0  0
 14 15  2  0  0  0
 14 98  1  0  0  0
 15 99  1  0  0  0
 16 17  2  0  0  0
 16 21  1  0  0  0
 16 31  1  0  0  0
 17 18  1  0  0  0
 17100  1  0  0  0
 18 19  2  0  0  0
 18101  1  0  0  0
 19 20  1  0  0  0
 19 24  1  0  0  0
 20 21  2  0  0  0
 20102  1  0  0  0
 21 23  1  0  0  0
 22 28  1  0  0  0
 22 32  2  0  0  0
 26 27  1  0  0  0
 28103  1  0  0  0
 28104  1  0  0  0
 29105  1  0  0  0
 29106  1  0  0  0
 33 34  1  0  0  0
 33 66  1  0  0  0
 33 70  2  0  0  0
 34 36  1  0  0  0
 34 59  1  0  0  0
 34107  1  0  0  0
 35 44  2  0  0  0
 35 45  1  0  0  0
 35 68  1  0  0  0
 36 56  1  0  0  0
 36108  1  0  0  0
 37 39  1  0  0  0
 37 47  1  0  0  0
 37 66  1  0  0  0
 37109  1  0  0  0
 38 43  2  0  0  0
 38 46  1  0  0  0
 38 47  1  0  0  0
 39 64  1  0  0  0
 39 67  2  0  0  0
 40 52  1  0  0  0
 40 53  2  0  0  0
 40 58  1  0  0  0
 41110  1  0  0  0
 41111  1  0  0  0
 41112  1  0  0  0
 41 48  1  0  0  0
 42 43  1  0  0  0
 42 66  1  0  0  0
 42113  1  0  0  0
 42114  1  0  0  0
 43 44  1  0  0  0
 44115  1  0  0  0
 45 46  2  0  0  0
 45116  1  0  0  0
 46117  1  0  0  0
 47118  1  0  0  0
 47119  1  0  0  0
 48 56  1  0  0  0
 48 65  1  0  0  0
 48120  1  0  0  0
 49 50  1  0  0  0
 49 53  1  0  0  0
 49 64  1  0  0  0
 49121  1  0  0  0
 50 51  1  0  0  0
 50122  1  0  0  0
 50123  1  0  0  0
 51 52  1  0  0  0
 51124  1  0  0  0
 51125  1  0  0  0
 52126  1  0  0  0
 52127  1  0  0  0
 53 54  1  0  0  0
 54 55  2  0  0  0
 54128  1  0  0  0
 55 57  1  0  0  0
 55129  1  0  0  0
 56 69  2  0  0  0
 57 58  2  0  0  0
 57130  1  0  0  0
 58131  1  0  0  0
 59 60  1  0  0  0
 59 61  1  0  0  0
 59 62  1  0  0  0
 60132  1  0  0  0
 60133  1  0  0  0
 60134  1  0  0  0
 61135  1  0  0  0
 61136  1  0  0  0
 61137  1  0  0  0
 62138  1  0  0  0
 62139  1  0  0  0
 62140  1  0  0  0
 63 65  1  0  0  0
 63141  1  0  0  0
 63142  1  0  0  0
 63143  1  0  0  0
 64144  1  0  0  0
 65145  1  0  0  0
 68 85  1  0  0  0
 71 73  2  0  0  0
 71 74  1  0  0  0
 71146  1  0  0  0
 72 73  1  0  0  0
 72 75  2  0  0  0
 72147  1  0  0  0
 73 80  1  0  0  0
 74 76  2  0  0  0
 74 77  1  0  0  0
 75 76  1  0  0  0
 75 78  1  0  0  0
 76 81  1  0  0  0
 77148  1  0  0  0
 77149  1  0  0  0
 77150  1  0  0  0
 78151  1  0  0  0
 78152  1  0  0  0
 78153  1  0  0  0
 79 82  1  0  0  0
 79154  1  0  0  0
 79155  1  0  0  0
 79156  1  0  0  0
 80 83  1  0  0  0
 80157  1  0  0  0
 80158  1  0  0  0
 81 86  1  0  0  0
 81159  1  0  0  0
 81160  1  0  0  0
 82 84  1  0  0  0
 82161  1  0  0  0
 82162  1  0  0  0
 83 85  1  0  0  0
 83163  1  0  0  0
 83164  1  0  0  0
 84 86  1  0  0  0
 84165  1  0  0  0
 84166  1  0  0  0
 85167  1  0  0  0
 85168  1  0  0  0
M  ISO  4   1 100  68 101  85 101  86 100
M  END
> <chiral flag>
0

> <version>
0

> <s_m_source_file>
/data/baiqing/PycharmProjects/Reinvent-master-3.2/result/LINK_invent/BTK/process_docking_weight1_custom_sum_contain_oxygen_bond_distance_aromatic_linkinvent_7_9_3/rearranged_h_0036.sdf

> <i_m_source_file_index>
55

> <r_mmod_Potential_Energy-OPLS-2005>
242.345962524414

> <r_mmod_Stretch_Energy-OPLS-2005>
74.4923629760742

> <r_mmod_Bend_Energy-OPLS-2005>
143.765914916992

> <r_mmod_Torsional_Energy-OPLS-2005>
325.855529785156

> <r_mmod_Improper_Torsional_Energy-OPLS-2005>
21.9349327087402

> <r_mmod_Van_der_Waal_Energy-OPLS-2005>
133.658721923828

> <r_mmod_Electrostatic_Energy-OPLS-2005>
-325.638061523438

> <r_mmod_Solvation_Energy-OPLS-2005>
-180.547515869141

> <b_mmod_Minimization_Converged-OPLS-2005>
0

> <r_mmod_RMS_Derivative-OPLS-2005>
2.00581359863281

$$$$
56
                    3D
 Structure written by MMmdl.
163171  0  0  1  0            999 V2000
  -30.6587  -14.5744   20.4637 C   0  0  0  0  0  0
  -30.4268  -12.3383   19.4486 C   0  0  0  0  0  0
  -29.5041  -12.4947   18.2189 C   0  0  0  0  0  0
  -28.0212  -12.3569   18.6211 C   0  0  0  0  0  0
  -27.6507  -13.2174   19.8561 C   0  0  2  0  0  0
  -28.6992  -13.0688   20.9814 C   0  0  0  0  0  0
  -25.2514  -13.8149   20.5617 C   0  0  0  0  0  0
  -24.1762  -13.0412   20.9142 C   0  0  0  0  0  0
  -24.6360  -11.6892   20.8715 C   0  0  0  0  0  0
  -23.9015  -10.4283   21.0418 C   0  0  0  0  0  0
  -24.3584   -9.4206   21.9191 C   0  0  0  0  0  0
  -23.6272   -8.2233   22.0749 C   0  0  0  0  0  0
  -22.4260   -8.0252   21.3534 C   0  0  0  0  0  0
  -21.9886   -9.0235   20.4640 C   0  0  0  0  0  0
  -22.7198  -10.2118   20.3061 C   0  0  0  0  0  0
  -21.6848   -6.0698   22.5270 C   0  0  0  0  0  0
  -21.4021   -6.5612   23.8189 C   0  0  0  0  0  0
  -21.3680   -5.6772   24.9162 C   0  0  0  0  0  0
  -21.6050   -4.3032   24.7227 C   0  0  0  0  0  0
  -21.8808   -3.8111   23.4352 C   0  0  0  0  0  0
  -21.9201   -4.6927   22.3400 C   0  0  0  0  0  0
  -22.7807  -13.5222   21.1843 C   0  0  0  0  0  0
  -22.1664   -4.2116   21.0990 F   0  0  0  0  0  0
  -21.5665   -3.4515   25.7747 F   0  0  0  0  0  0
  -30.0258  -13.3642   20.4246 N   0  0  0  0  0  0
  -26.2957  -12.9341   20.3263 N   0  0  0  0  0  0
  -25.9291  -11.6489   20.5721 N   0  0  0  0  0  0
  -22.0436  -12.8241   22.0419 N   0  0  0  0  0  0
  -25.4163  -15.1849   20.4026 N   0  0  0  0  0  0
  -31.8513  -14.6762   20.1658 O   0  0  0  0  0  0
  -21.6630   -6.8842   21.4223 O   0  0  0  0  0  0
  -22.3497  -14.5528   20.6699 O   0  0  0  0  0  0
  -24.6176  -31.8656   23.2094 C   0  0  0  0  0  0
  -25.9058  -32.4800   23.8369 C   0  0  1  0  0  0
  -27.2203  -27.3852   20.1245 C   0  0  0  0  0  0
  -25.5922  -33.8593   24.2293 N   0  0  0  0  0  0
  -23.4090  -30.4911   21.5477 C   0  0  2  0  0  0
  -24.8590  -28.9587   20.1053 C   0  0  0  0  0  0
  -22.7462  -29.4627   22.4947 C   0  0  0  0  0  0
  -18.0294  -28.1345   22.8513 C   0  0  0  0  0  0
  -24.1493  -36.7295   23.2630 C   0  0  0  0  0  0
  -25.9419  -30.8191   21.3678 C   0  0  0  0  0  0
  -26.0201  -29.4498   20.7180 C   0  0  0  0  0  0
  -27.2077  -28.6698   20.7278 C   0  0  0  0  0  0
  -26.0514  -26.9388   19.4724 C   0  0  0  0  0  0
  -24.8703  -27.7045   19.4742 C   0  0  0  0  0  0
  -23.6218  -29.8275   20.1592 C   0  0  0  0  0  0
  -25.4107  -36.3091   24.0322 C   0  0  1  0  0  0
  -20.5908  -28.3598   23.1269 C   0  0  2  0  0  0
  -20.6795  -26.9372   22.5245 C   0  0  0  0  0  0
  -19.5610  -26.6273   21.5235 C   0  0  0  0  0  0
  -18.1887  -26.7849   22.1788 C   0  0  0  0  0  0
  -19.1560  -28.8773   23.2914 C   0  0  0  0  0  0
  -18.9505  -30.1375   23.8953 C   0  0  0  0  0  0
  -17.6514  -30.6535   24.0625 C   0  0  0  0  0  0
  -25.9023  -34.9468   23.5122 C   0  0  0  0  0  0
  -16.5393  -29.9070   23.6358 C   0  0  0  0  0  0
  -16.7298  -28.6490   23.0345 C   0  0  0  0  0  0
  -26.4469  -31.6587   25.0701 C   0  0  0  0  0  0
  -25.3752  -31.3672   26.1453 C   0  0  0  0  0  0
  -27.0291  -30.3038   24.6059 C   0  0  0  0  0  0
  -27.6034  -32.4305   25.7459 C   0  0  0  0  0  0
  -27.5575  -37.1813   24.8459 C   0  0  0  0  0  0
  -21.4174  -29.3047   22.3740 N   0  0  0  0  0  0
  -26.4283  -37.3794   23.9406 N   0  0  0  0  0  0
  -24.6742  -31.0733   22.1015 N   0  0  0  0  0  0
  -23.4220  -28.8141   23.2977 O   0  0  0  0  0  0
  -28.3153  -26.5367   20.1887 O   0  0  0  0  0  0
  -26.5571  -34.8953   22.4686 O   0  0  0  0  0  0
  -23.5368  -32.1401   23.7505 O   0  0  0  0  0  0
  -30.2684  -21.0053   21.6655 C   0  0  0  0  0  0
  -28.2384  -20.3069   20.5942 C   0  0  0  0  0  0
  -29.0004  -21.3508   21.1548 C   0  0  0  0  0  0
  -30.7479  -19.6585   21.6843 C   0  0  0  0  0  0
  -29.9184  -18.5757   21.2180 C   0  0  0  0  0  0
  -28.6676  -18.9547   20.6278 C   0  0  0  0  0  0
  -33.0092  -20.6365   22.5878 C   0  0  0  0  0  0
  -30.1034  -16.6728   22.9200 C   0  0  0  0  0  0
  -28.3778  -22.7570   21.3769 C   0  0  0  0  0  0
  -32.1640  -19.3925   22.2358 C   0  0  0  0  0  0
  -29.8381  -15.9104   20.5438 C   0  0  0  0  0  0
  -28.8208  -23.9908   20.5133 C   0  0  0  0  0  0
  -28.0519  -25.2993   20.9247 C   0  0  0  0  0  0
  -30.3777  -17.0769   21.4575 C   0  0  1  0  0  0
  -27.5537  -17.8236   19.9463 Cl  0  0  0  0  0  0
  -31.4733  -12.4261   19.1487 H   0  0  0  0  0  0
  -30.3244  -11.3440   19.8865 H   0  0  0  0  0  0
  -29.7523  -11.7468   17.4660 H   0  0  0  0  0  0
  -29.6751  -13.4677   17.7544 H   0  0  0  0  0  0
  -27.8358  -11.3044   18.8359 H   0  0  0  0  0  0
  -27.3767  -12.6214   17.7813 H   0  0  0  0  0  0
  -27.6626  -14.2519   19.5172 H   0  0  0  0  0  0
  -28.6870  -12.0554   21.3846 H   0  0  0  0  0  0
  -28.4686  -13.7244   21.8215 H   0  0  0  0  0  0
  -25.2719   -9.5693   22.4763 H   0  0  0  0  0  0
  -23.9977   -7.4626   22.7468 H   0  0  0  0  0  0
  -21.0809   -8.8753   19.8960 H   0  0  0  0  0  0
  -22.3644  -10.9661   19.6173 H   0  0  0  0  0  0
  -21.1984   -7.6114   23.9693 H   0  0  0  0  0  0
  -21.1542   -6.0505   25.9066 H   0  0  0  0  0  0
  -22.0571   -2.7573   23.2869 H   0  0  0  0  0  0
  -22.4040  -11.9954   22.4924 H   0  0  0  0  0  0
  -21.1067  -13.1301   22.2596 H   0  0  0  0  0  0
  -24.6456  -15.8328   20.5122 H   0  0  0  0  0  0
  -26.2674  -15.6424   20.0990 H   0  0  0  0  0  0
  -26.7116  -32.5488   23.1134 H   0  0  0  0  0  0
  -25.0174  -33.9737   25.0492 H   0  0  0  0  0  0
  -22.6966  -31.3077   21.4106 H   0  0  0  0  0  0
  -23.3766  -35.9625   23.3283 H   0  0  0  0  0  0
  -24.3568  -36.8912   22.2042 H   0  0  0  0  0  0
  -23.7244  -37.6504   23.6648 H   0  0  0  0  0  0
  -26.0559  -31.5813   20.5973 H   0  0  0  0  0  0
  -26.8319  -30.8753   21.9831 H   0  0  0  0  0  0
  -28.0953  -29.0293   21.2314 H   0  0  0  0  0  0
  -26.0464  -25.9779   18.9769 H   0  0  0  0  0  0
  -23.9782  -27.3253   18.9918 H   0  0  0  0  0  0
  -23.7280  -30.6019   19.3982 H   0  0  0  0  0  0
  -22.7475  -29.2466   19.8589 H   0  0  0  0  0  0
  -25.1300  -36.1911   25.0804 H   0  0  0  0  0  0
  -21.0028  -28.3018   24.1375 H   0  0  0  0  0  0
  -20.6000  -26.2104   23.3346 H   0  0  0  0  0  0
  -21.6571  -26.7558   22.0753 H   0  0  0  0  0  0
  -19.6721  -25.6160   21.1294 H   0  0  0  0  0  0
  -19.6427  -27.3027   20.6723 H   0  0  0  0  0  0
  -17.4054  -26.6489   21.4324 H   0  0  0  0  0  0
  -18.0440  -26.0073   22.9318 H   0  0  0  0  0  0
  -19.7998  -30.7167   24.2344 H   0  0  0  0  0  0
  -17.5064  -31.6175   24.5321 H   0  0  0  0  0  0
  -15.5395  -30.2984   23.7691 H   0  0  0  0  0  0
  -15.8665  -28.0855   22.7027 H   0  0  0  0  0  0
  -24.5946  -30.6986   25.7787 H   0  0  0  0  0  0
  -24.8947  -32.2854   26.4881 H   0  0  0  0  0  0
  -25.8143  -30.8856   27.0208 H   0  0  0  0  0  0
  -26.2832  -29.6805   24.1132 H   0  0  0  0  0  0
  -27.4102  -29.7228   25.4460 H   0  0  0  0  0  0
  -27.8649  -30.4353   23.9177 H   0  0  0  0  0  0
  -27.2642  -33.3601   26.2043 H   0  0  0  0  0  0
  -28.3872  -32.6862   25.0304 H   0  0  0  0  0  0
  -28.0694  -31.8422   26.5386 H   0  0  0  0  0  0
  -28.2602  -38.0107   24.7539 H   0  0  0  0  0  0
  -28.1071  -36.2652   24.6262 H   0  0  0  0  0  0
  -27.2291  -37.1430   25.8863 H   0  0  0  0  0  0
  -20.9321  -29.8752   21.6955 H   0  0  0  0  0  0
  -26.0143  -38.2853   24.1472 H   0  0  0  0  0  0
  -30.8538  -21.8069   22.0911 H   0  0  0  0  0  0
  -27.2611  -20.5267   20.1873 H   0  0  0  0  0  0
  -34.0086  -20.3417   22.9051 H   0  0  0  0  0  0
  -32.5765  -21.2004   23.4139 H   0  0  0  0  0  0
  -33.1236  -21.3120   21.7381 H   0  0  0  0  0  0
  -30.5612  -17.3515   23.6338 H   0  0  0  0  0  0
  -30.4909  -15.6784   23.1457 H   0  0  0  0  0  0
  -29.0327  -16.6655   23.1232 H   0  0  0  0  0  0
  -28.5394  -23.0056   22.4275 H   0  0  0  0  0  0
  -27.2959  -22.6504   21.2804 H   0  0  0  0  0  0
  -32.7264  -18.8084   21.5066 H   0  0  0  0  0  0
  -32.0970  -18.7769   23.1329 H   0  0  0  0  0  0
  -29.8143  -16.2696   19.5149 H   0  0  0  0  0  0
  -28.8090  -15.6969   20.8179 H   0  0  0  0  0  0
  -28.6507  -23.7926   19.4552 H   0  0  0  0  0  0
  -29.8906  -24.1475   20.6343 H   0  0  0  0  0  0
  -28.2700  -25.5137   21.9718 H   0  0  0  0  0  0
  -26.9884  -25.0472   20.9199 H   0  0  0  0  0  0
  -31.4559  -17.0599   21.3084 H   0  0  0  0  0  0
  1 25  1  0  0  0
  1 30  2  0  0  0
  1 81  1  0  0  0
  2  3  1  0  0  0
  2 25  1  0  0  0
  2 86  1  0  0  0
  2 87  1  0  0  0
  3  4  1  0  0  0
  3 88  1  0  0  0
  3 89  1  0  0  0
  4  5  1  0  0  0
  4 90  1  0  0  0
  4 91  1  0  0  0
  5  6  1  0  0  0
  5 26  1  0  0  0
  5 92  1  0  0  0
  6 25  1  0  0  0
  6 93  1  0  0  0
  6 94  1  0  0  0
  7  8  2  0  0  0
  7 26  1  0  0  0
  7 29  1  0  0  0
  8  9  1  0  0  0
  8 22  1  0  0  0
  9 10  1  0  0  0
  9 27  2  0  0  0
 10 11  2  0  0  0
 10 15  1  0  0  0
 11 12  1  0  0  0
 11 95  1  0  0  0
 12 13  2  0  0  0
 12 96  1  0  0  0
 13 14  1  0  0  0
 13 31  1  0  0  0
 14 15  2  0  0  0
 14 97  1  0  0  0
 15 98  1  0  0  0
 16 17  2  0  0  0
 16 21  1  0  0  0
 16 31  1  0  0  0
 17 18  1  0  0  0
 17 99  1  0  0  0
 18 19  2  0  0  0
 18100  1  0  0  0
 19 20  1  0  0  0
 19 24  1  0  0  0
 20 21  2  0  0  0
 20101  1  0  0  0
 21 23  1  0  0  0
 22 28  1  0  0  0
 22 32  2  0  0  0
 26 27  1  0  0  0
 28102  1  0  0  0
 28103  1  0  0  0
 29104  1  0  0  0
 29105  1  0  0  0
 33 34  1  0  0  0
 33 66  1  0  0  0
 33 70  2  0  0  0
 34 36  1  0  0  0
 34 59  1  0  0  0
 34106  1  0  0  0
 35 44  2  0  0  0
 35 45  1  0  0  0
 35 68  1  0  0  0
 36 56  1  0  0  0
 36107  1  0  0  0
 37 39  1  0  0  0
 37 47  1  0  0  0
 37 66  1  0  0  0
 37108  1  0  0  0
 38 43  2  0  0  0
 38 46  1  0  0  0
 38 47  1  0  0  0
 39 64  1  0  0  0
 39 67  2  0  0  0
 40 52  1  0  0  0
 40 53  2  0  0  0
 40 58  1  0  0  0
 41109  1  0  0  0
 41110  1  0  0  0
 41111  1  0  0  0
 41 48  1  0  0  0
 42 43  1  0  0  0
 42 66  1  0  0  0
 42112  1  0  0  0
 42113  1  0  0  0
 43 44  1  0  0  0
 44114  1  0  0  0
 45 46  2  0  0  0
 45115  1  0  0  0
 46116  1  0  0  0
 47117  1  0  0  0
 47118  1  0  0  0
 48 56  1  0  0  0
 48 65  1  0  0  0
 48119  1  0  0  0
 49 50  1  0  0  0
 49 53  1  0  0  0
 49 64  1  0  0  0
 49120  1  0  0  0
 50 51  1  0  0  0
 50121  1  0  0  0
 50122  1  0  0  0
 51 52  1  0  0  0
 51123  1  0  0  0
 51124  1  0  0  0
 52125  1  0  0  0
 52126  1  0  0  0
 53 54  1  0  0  0
 54 55  2  0  0  0
 54127  1  0  0  0
 55 57  1  0  0  0
 55128  1  0  0  0
 56 69  2  0  0  0
 57 58  2  0  0  0
 57129  1  0  0  0
 58130  1  0  0  0
 59 60  1  0  0  0
 59 61  1  0  0  0
 59 62  1  0  0  0
 60131  1  0  0  0
 60132  1  0  0  0
 60133  1  0  0  0
 61134  1  0  0  0
 61135  1  0  0  0
 61136  1  0  0  0
 62137  1  0  0  0
 62138  1  0  0  0
 62139  1  0  0  0
 63 65  1  0  0  0
 63140  1  0  0  0
 63141  1  0  0  0
 63142  1  0  0  0
 64143  1  0  0  0
 65144  1  0  0  0
 68 83  1  0  0  0
 71 73  2  0  0  0
 71 74  1  0  0  0
 71145  1  0  0  0
 72 73  1  0  0  0
 72 76  2  0  0  0
 72146  1  0  0  0
 73 79  1  0  0  0
 74 75  2  0  0  0
 74 80  1  0  0  0
 75 76  1  0  0  0
 75 84  1  0  0  0
 76 85  1  0  0  0
 77 80  1  0  0  0
 77147  1  0  0  0
 77148  1  0  0  0
 77149  1  0  0  0
 78150  1  0  0  0
 78151  1  0  0  0
 78152  1  0  0  0
 78 84  1  0  0  0
 79 82  1  0  0  0
 79153  1  0  0  0
 79154  1  0  0  0
 80155  1  0  0  0
 80156  1  0  0  0
 81 84  1  0  0  0
 81157  1  0  0  0
 81158  1  0  0  0
 82 83  1  0  0  0
 82159  1  0  0  0
 82160  1  0  0  0
 83161  1  0  0  0
 83162  1  0  0  0
 84163  1  0  0  0
M  ISO  4   1 100  68 101  81 100  83 101
M  END
> <chiral flag>
0

> <version>
0

> <s_m_source_file>
/data/baiqing/PycharmProjects/Reinvent-master-3.2/result/LINK_invent/BTK/process_docking_weight1_custom_sum_contain_oxygen_bond_distance_aromatic_linkinvent_7_9_3/rearranged_h_0036.sdf

> <i_m_source_file_index>
56

> <r_mmod_Potential_Energy-OPLS-2005>
100.423156738281

> <r_mmod_Stretch_Energy-OPLS-2005>
65.5822906494141

> <r_mmod_Bend_Energy-OPLS-2005>
130.004501342773

> <r_mmod_Torsional_Energy-OPLS-2005>
210.027755737305

> <r_mmod_Improper_Torsional_Energy-OPLS-2005>
8.57048320770264

> <r_mmod_Van_der_Waal_Energy-OPLS-2005>
153.600189208984

> <r_mmod_Electrostatic_Energy-OPLS-2005>
-326.503997802734

> <r_mmod_Solvation_Energy-OPLS-2005>
-175.618728637695

> <b_mmod_Minimization_Converged-OPLS-2005>
0

> <r_mmod_RMS_Derivative-OPLS-2005>
4.48721933364868

$$$$
57
                    3D
 Structure written by MMmdl.
168176  0  0  1  0            999 V2000
  -29.6572  -15.3284   20.7113 C   0  0  0  0  0  0
  -30.3579  -12.9545   19.6708 C   0  0  0  0  0  0
  -29.5384  -12.6636   18.3740 C   0  0  0  0  0  0
  -28.0708  -12.2938   18.6903 C   0  0  0  0  0  0
  -27.5342  -13.1966   19.8254 C   0  0  2  0  0  0
  -28.4534  -13.1709   21.0412 C   0  0  0  0  0  0
  -25.2002  -13.8015   20.5586 C   0  0  0  0  0  0
  -24.1392  -13.0294   20.9258 C   0  0  0  0  0  0
  -24.5978  -11.6775   20.8711 C   0  0  0  0  0  0
  -23.8764  -10.4195   21.0439 C   0  0  0  0  0  0
  -24.3432   -9.4146   21.9182 C   0  0  0  0  0  0
  -23.6191   -8.2141   22.0719 C   0  0  0  0  0  0
  -22.4168   -8.0167   21.3523 C   0  0  0  0  0  0
  -21.9740   -9.0098   20.4615 C   0  0  0  0  0  0
  -22.6981  -10.2015   20.3052 C   0  0  0  0  0  0
  -21.6809   -6.0676   22.5296 C   0  0  0  0  0  0
  -21.3985   -6.5603   23.8226 C   0  0  0  0  0  0
  -21.3658   -5.6763   24.9193 C   0  0  0  0  0  0
  -21.6048   -4.3027   24.7241 C   0  0  0  0  0  0
  -21.8823   -3.8112   23.4365 C   0  0  0  0  0  0
  -21.9178   -4.6918   22.3420 C   0  0  0  0  0  0
  -22.7509  -13.5156   21.2043 C   0  0  0  0  0  0
  -22.1656   -4.2117   21.0994 F   0  0  0  0  0  0
  -21.5637   -3.4515   25.7756 F   0  0  0  0  0  0
  -29.5793  -13.9125   20.5712 N   0  0  0  0  0  0
  -26.2076  -12.9044   20.2670 N   0  0  0  0  0  0
  -25.8750  -11.6270   20.5365 N   0  0  0  0  0  0
  -22.0178  -12.8153   22.0608 N   0  0  0  0  0  0
  -25.3865  -15.1767   20.4261 N   0  0  0  0  0  0
  -30.8310  -15.6655   20.3909 O   0  0  0  0  0  0
  -21.6564   -6.8767   21.4236 O   0  0  0  0  0  0
  -22.3253  -14.5480   20.6891 O   0  0  0  0  0  0
  -24.6667  -31.9514   23.2448 C   0  0  0  0  0  0
  -25.9574  -32.5130   23.8817 C   0  0  1  0  0  0
  -25.9052  -27.2018   20.4611 C   0  0  0  0  0  0
  -25.6461  -33.8902   24.2727 N   0  0  0  0  0  0
  -23.4824  -30.6383   21.5785 C   0  0  2  0  0  0
  -24.9123  -29.4074   19.7961 C   0  0  0  0  0  0
  -23.0878  -29.5254   22.5880 C   0  0  0  0  0  0
  -18.6800  -27.7123   22.4023 C   0  0  0  0  0  0
  -24.1538  -36.7351   23.2582 C   0  0  0  0  0  0
  -26.0136  -30.8250   21.4843 C   0  0  0  0  0  0
  -25.9246  -29.5244   20.7306 C   0  0  0  0  0  0
  -26.6164  -28.3350   21.0017 C   0  0  0  0  0  0
  -25.8617  -27.2630   19.0998 C   0  0  0  0  0  0
  -25.0564  -28.3806   18.8153 C   0  0  0  0  0  0
  -23.6918  -30.2555   20.0636 C   0  0  0  0  0  0
  -25.4150  -36.3228   24.0322 C   0  0  1  0  0  0
  -21.4419  -28.0409   23.5275 C   0  0  2  0  0  0
  -22.4416  -26.2548   22.7941 C   0  0  0  0  0  0
  -20.8486  -25.2530   21.1794 C   0  0  0  0  0  0
  -19.0398  -26.2906   21.2960 C   0  0  0  0  0  0
  -19.7150  -28.4373   23.2747 C   0  0  0  0  0  0
  -19.2496  -29.6677   23.9247 C   0  0  0  0  0  0
  -17.9264  -30.1836   23.9346 C   0  0  0  0  0  0
  -25.9171  -34.9614   23.5195 C   0  0  0  0  0  0
  -16.9342  -29.4298   23.2997 C   0  0  0  0  0  0
  -17.3117  -28.2487   22.5704 C   0  0  0  0  0  0
  -26.4650  -31.6723   25.1128 C   0  0  0  0  0  0
  -25.3709  -31.3834   26.1649 C   0  0  0  0  0  0
  -27.0398  -30.3058   24.6727 C   0  0  0  0  0  0
  -27.6212  -32.4363   25.7964 C   0  0  0  0  0  0
  -27.5616  -37.1887   24.8448 C   0  0  0  0  0  0
  -21.8416  -29.3214   22.9019 N   0  0  0  0  0  0
  -26.4320  -37.3908   23.9409 N   0  0  0  0  0  0
  -24.7325  -31.2092   22.1160 N   0  0  0  0  0  0
  -23.9208  -28.8542   23.1880 O   0  0  0  0  0  0
  -24.5001  -26.9364   20.8984 O   0  0  0  0  0  0
  -26.5457  -34.8962   22.4603 O   0  0  0  0  0  0
  -23.5803  -32.2186   23.7849 O   0  0  0  0  0  0
  -22.4724  -27.3516   19.2528 C   0  0  0  0  0  0
  -21.2489  -28.0751   19.1970 C   0  0  0  0  0  0
  -22.9079  -27.3189   20.5535 C   0  0  0  0  0  0
  -21.5691  -28.5313   16.7273 C   0  0  0  0  0  0
  -20.3058  -30.1642   18.0947 C   0  0  0  0  0  0
  -23.6395  -21.3206   22.7217 C   0  0  0  0  0  0
  -22.7863  -23.0717   22.7636 C   0  0  0  0  0  0
  -25.2171  -20.4062   22.0355 C   0  0  0  0  0  0
  -21.2165  -24.0401   23.4228 C   0  0  0  0  0  0
  -26.1156  -18.6806   21.9823 C   0  0  0  0  0  0
  -20.3343  -25.8972   23.2437 C   0  0  0  0  0  0
  -27.6714  -17.8251   21.2046 C   0  0  0  0  0  0
  -20.6284  -28.6681   17.9427 C   0  0  0  0  0  0
  -20.6336  -28.1940   20.3663 N   0  0  0  0  0  0
  -21.3088  -27.4156   21.2803 N   0  0  0  0  0  0
  -28.4173  -16.2099   21.0884 N   0  0  0  0  0  0
  -31.3336  -13.3666   19.4142 H   0  0  0  0  0  0
  -30.5803  -12.0280   20.2054 H   0  0  0  0  0  0
  -30.0208  -11.8896   17.7775 H   0  0  0  0  0  0
  -29.5445  -13.5710   17.7677 H   0  0  0  0  0  0
  -28.0303  -11.2458   18.9981 H   0  0  0  0  0  0
  -27.4522  -12.3727   17.7984 H   0  0  0  0  0  0
  -27.4929  -14.1939   19.3855 H   0  0  0  0  0  0
  -28.6961  -12.1461   21.3307 H   0  0  0  0  0  0
  -28.0054  -13.6377   21.9192 H   0  0  0  0  0  0
  -25.2579   -9.5677   22.4731 H   0  0  0  0  0  0
  -23.9958   -7.4509   22.7383 H   0  0  0  0  0  0
  -21.0691   -8.8524   19.8901 H   0  0  0  0  0  0
  -22.3388  -10.9526   19.6155 H   0  0  0  0  0  0
  -21.1970   -7.6111   23.9725 H   0  0  0  0  0  0
  -21.1488   -6.0494   25.9100 H   0  0  0  0  0  0
  -22.0614   -2.7574   23.2864 H   0  0  0  0  0  0
  -22.3780  -11.9803   22.4980 H   0  0  0  0  0  0
  -21.0800  -13.1160   22.2864 H   0  0  0  0  0  0
  -24.6126  -15.8125   20.5850 H   0  0  0  0  0  0
  -26.1815  -15.6238   19.9917 H   0  0  0  0  0  0
  -26.7699  -32.5649   23.1596 H   0  0  0  0  0  0
  -25.0894  -34.0131   25.1059 H   0  0  0  0  0  0
  -22.6998  -31.3990   21.5873 H   0  0  0  0  0  0
  -23.3851  -35.9637   23.3237 H   0  0  0  0  0  0
  -24.3664  -36.8957   22.2001 H   0  0  0  0  0  0
  -23.7231  -37.6538   23.6576 H   0  0  0  0  0  0
  -26.3056  -31.6176   20.7942 H   0  0  0  0  0  0
  -26.8482  -30.7219   22.1630 H   0  0  0  0  0  0
  -27.2547  -28.2626   21.8710 H   0  0  0  0  0  0
  -25.7293  -26.3909   18.4758 H   0  0  0  0  0  0
  -24.4736  -28.4114   17.9090 H   0  0  0  0  0  0
  -23.8524  -31.1807   19.5079 H   0  0  0  0  0  0
  -22.7956  -29.8631   19.6355 H   0  0  0  0  0  0
  -25.1300  -36.2096   25.0805 H   0  0  0  0  0  0
  -21.6472  -28.1318   24.5975 H   0  0  0  0  0  0
  -22.6473  -25.7512   23.7406 H   0  0  0  0  0  0
  -23.5017  -26.2549   22.6326 H   0  0  0  0  0  0
  -20.6713  -24.1766   21.1693 H   0  0  0  0  0  0
  -21.2166  -25.2974   20.1522 H   0  0  0  0  0  0
  -18.7401  -26.5810   20.2901 H   0  0  0  0  0  0
  -18.2690  -25.5457   21.5175 H   0  0  0  0  0  0
  -19.9704  -30.2296   24.5027 H   0  0  0  0  0  0
  -17.6854  -31.0918   24.4703 H   0  0  0  0  0  0
  -15.9043  -29.7621   23.3228 H   0  0  0  0  0  0
  -16.5219  -27.7387   22.0327 H   0  0  0  0  0  0
  -24.5914  -30.7265   25.7754 H   0  0  0  0  0  0
  -24.8884  -32.2987   26.5102 H   0  0  0  0  0  0
  -25.7868  -30.8845   27.0420 H   0  0  0  0  0  0
  -26.2990  -29.6920   24.1588 H   0  0  0  0  0  0
  -27.3702  -29.7248   25.5355 H   0  0  0  0  0  0
  -27.9140  -30.4153   24.0301 H   0  0  0  0  0  0
  -27.2871  -33.3679   26.2564 H   0  0  0  0  0  0
  -28.4085  -32.6923   25.0851 H   0  0  0  0  0  0
  -28.0829  -31.8442   26.5877 H   0  0  0  0  0  0
  -28.2580  -38.0242   24.7586 H   0  0  0  0  0  0
  -28.1180  -36.2776   24.6176 H   0  0  0  0  0  0
  -27.2332  -37.1402   25.8848 H   0  0  0  0  0  0
  -21.1132  -29.8448   22.4320 H   0  0  0  0  0  0
  -26.0206  -38.2974   24.1473 H   0  0  0  0  0  0
  -23.0417  -27.0430   18.3948 H   0  0  0  0  0  0
  -21.8175  -27.4966   16.4932 H   0  0  0  0  0  0
  -22.5027  -29.0641   16.8972 H   0  0  0  0  0  0
  -21.1133  -28.9639   15.8397 H   0  0  0  0  0  0
  -19.5657  -30.3451   18.8752 H   0  0  0  0  0  0
  -19.8974  -30.5598   17.1632 H   0  0  0  0  0  0
  -21.1944  -30.7503   18.3286 H   0  0  0  0  0  0
  -22.8368  -20.7139   22.3063 H   0  0  0  0  0  0
  -23.6508  -21.0349   23.7740 H   0  0  0  0  0  0
  -22.7893  -23.3270   21.7064 H   0  0  0  0  0  0
  -23.5977  -23.6796   23.1694 H   0  0  0  0  0  0
  -26.0233  -21.0332   22.4106 H   0  0  0  0  0  0
  -25.1711  -20.6562   20.9770 H   0  0  0  0  0  0
  -21.2537  -23.8892   24.5026 H   0  0  0  0  0  0
  -20.4052  -23.3620   23.1478 H   0  0  0  0  0  0
  -25.3029  -17.9737   21.8013 H   0  0  0  0  0  0
  -26.3350  -18.5201   23.0382 H   0  0  0  0  0  0
  -20.4382  -26.2308   24.2814 H   0  0  0  0  0  0
  -19.2804  -25.6617   23.3971 H   0  0  0  0  0  0
  -28.4932  -18.4710   21.5181 H   0  0  0  0  0  0
  -27.5801  -18.0882   20.1487 H   0  0  0  0  0  0
  -19.7094  -28.1289   17.7169 H   0  0  0  0  0  0
  -27.6847  -15.5371   21.2688 H   0  0  0  0  0  0
  1 25  1  0  0  0
  1 30  2  0  0  0
  1 86  1  0  0  0
  2  3  1  0  0  0
  2 25  1  0  0  0
  2 87  1  0  0  0
  2 88  1  0  0  0
  3  4  1  0  0  0
  3 89  1  0  0  0
  3 90  1  0  0  0
  4  5  1  0  0  0
  4 91  1  0  0  0
  4 92  1  0  0  0
  5  6  1  0  0  0
  5 26  1  0  0  0
  5 93  1  0  0  0
  6 25  1  0  0  0
  6 94  1  0  0  0
  6 95  1  0  0  0
  7  8  2  0  0  0
  7 26  1  0  0  0
  7 29  1  0  0  0
  8  9  1  0  0  0
  8 22  1  0  0  0
  9 10  1  0  0  0
  9 27  2  0  0  0
 10 11  2  0  0  0
 10 15  1  0  0  0
 11 12  1  0  0  0
 11 96  1  0  0  0
 12 13  2  0  0  0
 12 97  1  0  0  0
 13 14  1  0  0  0
 13 31  1  0  0  0
 14 15  2  0  0  0
 14 98  1  0  0  0
 15 99  1  0  0  0
 16 17  2  0  0  0
 16 21  1  0  0  0
 16 31  1  0  0  0
 17 18  1  0  0  0
 17100  1  0  0  0
 18 19  2  0  0  0
 18101  1  0  0  0
 19 20  1  0  0  0
 19 24  1  0  0  0
 20 21  2  0  0  0
 20102  1  0  0  0
 21 23  1  0  0  0
 22 28  1  0  0  0
 22 32  2  0  0  0
 26 27  1  0  0  0
 28103  1  0  0  0
 28104  1  0  0  0
 29105  1  0  0  0
 29106  1  0  0  0
 33 34  1  0  0  0
 33 66  1  0  0  0
 33 70  2  0  0  0
 34 36  1  0  0  0
 34 59  1  0  0  0
 34107  1  0  0  0
 35 44  2  0  0  0
 35 45  1  0  0  0
 35 68  1  0  0  0
 36 56  1  0  0  0
 36108  1  0  0  0
 37 39  1  0  0  0
 37 47  1  0  0  0
 37 66  1  0  0  0
 37109  1  0  0  0
 38 43  2  0  0  0
 38 46  1  0  0  0
 38 47  1  0  0  0
 39 64  1  0  0  0
 39 67  2  0  0  0
 40 52  1  0  0  0
 40 53  2  0  0  0
 40 58  1  0  0  0
 41110  1  0  0  0
 41111  1  0  0  0
 41112  1  0  0  0
 41 48  1  0  0  0
 42 43  1  0  0  0
 42 66  1  0  0  0
 42113  1  0  0  0
 42114  1  0  0  0
 43 44  1  0  0  0
 44115  1  0  0  0
 45 46  2  0  0  0
 45116  1  0  0  0
 46117  1  0  0  0
 47118  1  0  0  0
 47119  1  0  0  0
 48 56  1  0  0  0
 48 65  1  0  0  0
 48120  1  0  0  0
 49 50  1  0  0  0
 49 53  1  0  0  0
 49 64  1  0  0  0
 49121  1  0  0  0
 50 51  1  0  0  0
 50122  1  0  0  0
 50123  1  0  0  0
 51 52  1  0  0  0
 51124  1  0  0  0
 51125  1  0  0  0
 52126  1  0  0  0
 52127  1  0  0  0
 53 54  1  0  0  0
 54 55  2  0  0  0
 54128  1  0  0  0
 55 57  1  0  0  0
 55129  1  0  0  0
 56 69  2  0  0  0
 57 58  2  0  0  0
 57130  1  0  0  0
 58131  1  0  0  0
 59 60  1  0  0  0
 59 61  1  0  0  0
 59 62  1  0  0  0
 60132  1  0  0  0
 60133  1  0  0  0
 60134  1  0  0  0
 61135  1  0  0  0
 61136  1  0  0  0
 61137  1  0  0  0
 62138  1  0  0  0
 62139  1  0  0  0
 62140  1  0  0  0
 63 65  1  0  0  0
 63141  1  0  0  0
 63142  1  0  0  0
 63143  1  0  0  0
 64144  1  0  0  0
 65145  1  0  0  0
 68 73  1  0  0  0
 71 72  1  0  0  0
 71 73  2  0  0  0
 71146  1  0  0  0
 72 83  1  0  0  0
 72 84  2  0  0  0
 73 85  1  0  0  0
 74147  1  0  0  0
 74148  1  0  0  0
 74149  1  0  0  0
 74 83  1  0  0  0
 75 83  1  0  0  0
 75150  1  0  0  0
 75151  1  0  0  0
 75152  1  0  0  0
 76 77  1  0  0  0
 76 78  1  0  0  0
 76153  1  0  0  0
 76154  1  0  0  0
 77 79  1  0  0  0
 77155  1  0  0  0
 77156  1  0  0  0
 78 80  1  0  0  0
 78157  1  0  0  0
 78158  1  0  0  0
 79 81  1  0  0  0
 79159  1  0  0  0
 79160  1  0  0  0
 80 82  1  0  0  0
 80161  1  0  0  0
 80162  1  0  0  0
 81 85  1  0  0  0
 81163  1  0  0  0
 81164  1  0  0  0
 82 86  1  0  0  0
 82165  1  0  0  0
 82166  1  0  0  0
 83167  1  0  0  0
 84 85  1  0  0  0
 86168  1  0  0  0
M  ISO  4   1 100  68 101  73 101  86 100
M  END
> <chiral flag>
0

> <version>
0

> <s_m_source_file>
/data/baiqing/PycharmProjects/Reinvent-master-3.2/result/LINK_invent/BTK/process_docking_weight1_custom_sum_contain_oxygen_bond_distance_aromatic_linkinvent_7_9_3/rearranged_h_0036.sdf

> <i_m_source_file_index>
57

> <r_mmod_Potential_Energy-OPLS-2005>
13600.5390625

> <r_mmod_Stretch_Energy-OPLS-2005>
6284.92724609375

> <r_mmod_Bend_Energy-OPLS-2005>
1174.00866699219

> <r_mmod_Torsional_Energy-OPLS-2005>
570.720520019531

> <r_mmod_Improper_Torsional_Energy-OPLS-2005>
42.6788024902344

> <r_mmod_Van_der_Waal_Energy-OPLS-2005>
2051.65991210938

> <r_mmod_Electrostatic_Energy-OPLS-2005>
-403.403045654297

> <r_mmod_Solvation_Energy-OPLS-2005>
-184.125930786133

> <b_mmod_Minimization_Converged-OPLS-2005>
0

> <r_mmod_RMS_Derivative-OPLS-2005>
10.8875608444214

$$$$
58
                    3D
 Structure written by MMmdl.
172181  0  0  1  0            999 V2000
  -30.5644  -14.5672   20.3274 C   0  0  0  0  0  0
  -30.4076  -12.2964   19.4217 C   0  0  0  0  0  0
  -29.4925  -12.3913   18.1807 C   0  0  0  0  0  0
  -28.0134  -12.2236   18.5977 C   0  0  0  0  0  0
  -27.6168  -13.1339   19.7919 C   0  0  2  0  0  0
  -28.6552  -13.0549   20.9353 C   0  0  0  0  0  0
  -25.2413  -13.7880   20.5467 C   0  0  0  0  0  0
  -24.1753  -13.0296   20.9173 C   0  0  0  0  0  0
  -24.6270  -11.6711   20.8814 C   0  0  0  0  0  0
  -23.8926  -10.4185   21.0505 C   0  0  0  0  0  0
  -24.3462   -9.4072   21.9262 C   0  0  0  0  0  0
  -23.6130   -8.2145   22.0794 C   0  0  0  0  0  0
  -22.4136   -8.0212   21.3569 C   0  0  0  0  0  0
  -21.9775   -9.0193   20.4674 C   0  0  0  0  0  0
  -22.7137  -10.2058   20.3118 C   0  0  0  0  0  0
  -21.6772   -6.0696   22.5270 C   0  0  0  0  0  0
  -21.3962   -6.5661   23.8206 C   0  0  0  0  0  0
  -21.3619   -5.6839   24.9195 C   0  0  0  0  0  0
  -21.6028   -4.3099   24.7259 C   0  0  0  0  0  0
  -21.8811   -3.8143   23.4401 C   0  0  0  0  0  0
  -21.9182   -4.6930   22.3414 C   0  0  0  0  0  0
  -22.7838  -13.5130   21.1994 C   0  0  0  0  0  0
  -22.1626   -4.2098   21.0991 F   0  0  0  0  0  0
  -21.5613   -3.4545   25.7775 F   0  0  0  0  0  0
  -29.9702  -13.3444   20.3573 N   0  0  0  0  0  0
  -26.2706  -12.8938   20.2882 N   0  0  0  0  0  0
  -25.9084  -11.6186   20.5644 N   0  0  0  0  0  0
  -22.0535  -12.8076   22.0520 N   0  0  0  0  0  0
  -25.4126  -15.1587   20.3795 N   0  0  0  0  0  0
  -31.7893  -14.6704   20.1992 O   0  0  0  0  0  0
  -21.6551   -6.8785   21.4216 O   0  0  0  0  0  0
  -22.3609  -14.5555   20.6963 O   0  0  0  0  0  0
  -24.6137  -31.8682   23.2105 C   0  0  0  0  0  0
  -25.9033  -32.4774   23.8426 C   0  0  1  0  0  0
  -27.2402  -27.4254   20.0820 C   0  0  0  0  0  0
  -25.5938  -33.8604   24.2343 N   0  0  0  0  0  0
  -23.4083  -30.4914   21.5451 C   0  0  2  0  0  0
  -24.8592  -28.9466   20.1252 C   0  0  0  0  0  0
  -22.7412  -29.4644   22.4892 C   0  0  0  0  0  0
  -18.0279  -28.1373   22.8487 C   0  0  0  0  0  0
  -24.1502  -36.7274   23.2645 C   0  0  0  0  0  0
  -25.9458  -30.8112   21.3917 C   0  0  0  0  0  0
  -26.0194  -29.4459   20.7349 C   0  0  0  0  0  0
  -27.2129  -28.6834   20.7307 C   0  0  0  0  0  0
  -26.0653  -26.9390   19.4757 C   0  0  0  0  0  0
  -24.8705  -27.6834   19.5081 C   0  0  0  0  0  0
  -23.6293  -29.8236   20.1635 C   0  0  0  0  0  0
  -25.4129  -36.3101   24.0348 C   0  0  1  0  0  0
  -20.5850  -28.3693   23.1311 C   0  0  2  0  0  0
  -20.6733  -26.9409   22.5422 C   0  0  0  0  0  0
  -19.5723  -26.6368   21.5192 C   0  0  0  0  0  0
  -18.1916  -26.7934   22.1603 C   0  0  0  0  0  0
  -19.1515  -28.8850   23.2897 C   0  0  0  0  0  0
  -18.9462  -30.1452   23.8897 C   0  0  0  0  0  0
  -17.6486  -30.6592   24.0571 C   0  0  0  0  0  0
  -25.9067  -34.9458   23.5097 C   0  0  0  0  0  0
  -16.5359  -29.9101   23.6346 C   0  0  0  0  0  0
  -16.7269  -28.6495   23.0371 C   0  0  0  0  0  0
  -26.4507  -31.6581   25.0777 C   0  0  0  0  0  0
  -25.3760  -31.3642   26.1475 C   0  0  0  0  0  0
  -27.0423  -30.3048   24.6225 C   0  0  0  0  0  0
  -27.6030  -32.4346   25.7574 C   0  0  0  0  0  0
  -27.5610  -37.1785   24.8460 C   0  0  0  0  0  0
  -21.4136  -29.3034   22.3658 N   0  0  0  0  0  0
  -26.4294  -37.3820   23.9438 N   0  0  0  0  0  0
  -24.6693  -31.0730   22.1022 N   0  0  0  0  0  0
  -23.4139  -28.8163   23.2928 O   0  0  0  0  0  0
  -28.3788  -26.6662   19.9369 O   0  0  0  0  0  0
  -26.5620  -34.8892   22.4654 O   0  0  0  0  0  0
  -23.5310  -32.1425   23.7496 O   0  0  0  0  0  0
  -29.7740  -22.4139   20.0296 C   0  0  0  0  0  0
  -29.7094  -24.0434   22.2990 C   0  0  0  0  0  0
  -29.4415  -23.7919   19.8956 C   0  0  0  0  0  0
  -30.0111  -22.6731   22.4318 C   0  0  0  0  0  0
  -30.0313  -21.8320   21.2950 C   0  0  0  0  0  0
  -29.3713  -24.6237   21.0579 C   0  0  0  0  0  0
  -28.9919  -16.4328   17.4801 C   0  0  0  0  0  0
  -27.9522  -17.3605   18.1633 C   0  0  0  0  0  0
  -30.1819  -16.0383   18.3958 C   0  0  0  0  0  0
  -28.7263  -16.3247   20.4090 C   0  0  0  0  0  0
  -28.2568  -17.6258   19.6580 C   0  0  1  0  0  0
  -29.1800  -24.3223   18.4915 C   0  0  0  0  0  0
  -30.3703  -22.1378   23.8058 C   0  0  0  0  0  0
  -30.4515  -20.3546   21.4334 C   0  0  0  0  0  0
  -28.9681  -26.1188   21.1112 C   0  0  0  0  0  0
  -29.1898  -18.8535   19.8154 C   0  0  0  0  0  0
  -29.3762  -19.2631   21.2791 C   0  0  0  0  0  0
  -29.7788  -15.5263   19.7259 N   0  0  0  0  0  0
  -31.4579  -12.3888   19.1404 H   0  0  0  0  0  0
  -30.2974  -11.3150   19.8834 H   0  0  0  0  0  0
  -29.7585  -11.6230   17.4517 H   0  0  0  0  0  0
  -29.6178  -13.3475   17.6733 H   0  0  0  0  0  0
  -27.8552  -11.1751   18.8546 H   0  0  0  0  0  0
  -27.3562  -12.4126   17.7473 H   0  0  0  0  0  0
  -27.5996  -14.1079   19.3133 H   0  0  0  0  0  0
  -28.6474  -12.0636   21.3971 H   0  0  0  0  0  0
  -28.4132  -13.7622   21.7287 H   0  0  0  0  0  0
  -25.2616   -9.5545   22.4805 H   0  0  0  0  0  0
  -23.9835   -7.4546   22.7496 H   0  0  0  0  0  0
  -21.0729   -8.8746   19.8938 H   0  0  0  0  0  0
  -22.3648  -10.9605   19.6199 H   0  0  0  0  0  0
  -21.1924   -7.6175   23.9673 H   0  0  0  0  0  0
  -21.1424   -6.0597   25.9104 H   0  0  0  0  0  0
  -22.0617   -2.7592   23.2940 H   0  0  0  0  0  0
  -22.4130  -11.9513   22.4498 H   0  0  0  0  0  0
  -21.1280  -13.1209   22.3078 H   0  0  0  0  0  0
  -24.6693  -15.8360   20.5037 H   0  0  0  0  0  0
  -26.2912  -15.5686   20.0993 H   0  0  0  0  0  0
  -26.7089  -32.5541   23.1179 H   0  0  0  0  0  0
  -25.0136  -33.9781   25.0525 H   0  0  0  0  0  0
  -22.6973  -31.3070   21.3980 H   0  0  0  0  0  0
  -23.3838  -35.9525   23.3186 H   0  0  0  0  0  0
  -24.3606  -36.9022   22.2088 H   0  0  0  0  0  0
  -23.7151  -37.6381   23.6759 H   0  0  0  0  0  0
  -26.0929  -31.5859   20.6378 H   0  0  0  0  0  0
  -26.8166  -30.8354   22.0366 H   0  0  0  0  0  0
  -28.1085  -29.0581   21.2070 H   0  0  0  0  0  0
  -26.0756  -25.9809   18.9745 H   0  0  0  0  0  0
  -23.9733  -27.2906   19.0452 H   0  0  0  0  0  0
  -23.7666  -30.5936   19.4029 H   0  0  0  0  0  0
  -22.7531  -29.2545   19.8521 H   0  0  0  0  0  0
  -25.1274  -36.1930   25.0849 H   0  0  0  0  0  0
  -20.9997  -28.3269   24.1419 H   0  0  0  0  0  0
  -20.5614  -26.2285   23.3608 H   0  0  0  0  0  0
  -21.6637  -26.7399   22.1273 H   0  0  0  0  0  0
  -19.6902  -25.6296   21.1216 H   0  0  0  0  0  0
  -19.6688  -27.3153   20.6717 H   0  0  0  0  0  0
  -17.4208  -26.6746   21.3997 H   0  0  0  0  0  0
  -18.0265  -26.0062   22.8961 H   0  0  0  0  0  0
  -19.7923  -30.7246   24.2284 H   0  0  0  0  0  0
  -17.5033  -31.6260   24.5172 H   0  0  0  0  0  0
  -15.5349  -30.3012   23.7652 H   0  0  0  0  0  0
  -15.8656  -28.0814   22.7102 H   0  0  0  0  0  0
  -24.6039  -30.6868   25.7806 H   0  0  0  0  0  0
  -24.8822  -32.2748   26.4851 H   0  0  0  0  0  0
  -25.8151  -30.8917   27.0257 H   0  0  0  0  0  0
  -26.3036  -29.6732   24.1288 H   0  0  0  0  0  0
  -27.4162  -29.7365   25.4732 H   0  0  0  0  0  0
  -27.8861  -30.4348   23.9457 H   0  0  0  0  0  0
  -27.2631  -33.3674   26.2076 H   0  0  0  0  0  0
  -28.3922  -32.6829   25.0472 H   0  0  0  0  0  0
  -28.0603  -31.8503   26.5562 H   0  0  0  0  0  0
  -28.2511  -38.0209   24.7680 H   0  0  0  0  0  0
  -28.1229  -36.2715   24.6094 H   0  0  0  0  0  0
  -27.2333  -37.1195   25.8866 H   0  0  0  0  0  0
  -20.9259  -29.8837   21.6996 H   0  0  0  0  0  0
  -26.0146  -38.2858   24.1571 H   0  0  0  0  0  0
  -29.8567  -21.7991   19.1422 H   0  0  0  0  0  0
  -29.7402  -24.6759   23.1755 H   0  0  0  0  0  0
  -29.3723  -16.9136   16.5689 H   0  0  0  0  0  0
  -28.4920  -15.5222   17.1299 H   0  0  0  0  0  0
  -26.9578  -16.9115   18.0768 H   0  0  0  0  0  0
  -27.8521  -18.3079   17.6174 H   0  0  0  0  0  0
  -30.8601  -16.8751   18.5340 H   0  0  0  0  0  0
  -30.7778  -15.2889   17.8724 H   0  0  0  0  0  0
  -27.8402  -15.7206   20.5009 H   0  0  0  0  0  0
  -28.9674  -16.4896   21.4571 H   0  0  0  0  0  0
  -27.2993  -17.9320   20.0965 H   0  0  0  0  0  0
  -29.7284  -23.7560   17.7344 H   0  0  0  0  0  0
  -29.5168  -25.3518   18.3822 H   0  0  0  0  0  0
  -28.1136  -24.2684   18.2614 H   0  0  0  0  0  0
  -30.1878  -22.8709   24.5917 H   0  0  0  0  0  0
  -31.4301  -21.8732   23.8243 H   0  0  0  0  0  0
  -29.7793  -21.2460   24.0304 H   0  0  0  0  0  0
  -30.8889  -20.1664   22.4110 H   0  0  0  0  0  0
  -31.2842  -20.1519   20.7578 H   0  0  0  0  0  0
  -29.8516  -26.7148   21.3570 H   0  0  0  0  0  0
  -28.2762  -26.2279   21.9498 H   0  0  0  0  0  0
  -28.7782  -19.7020   19.2587 H   0  0  0  0  0  0
  -30.1752  -18.6679   19.3874 H   0  0  0  0  0  0
  -28.4334  -19.4682   21.7976 H   0  0  0  0  0  0
  -29.7894  -18.3913   21.7880 H   0  0  0  0  0  0
  1 25  1  0  0  0
  1 30  2  0  0  0
  1 88  1  0  0  0
  2  3  1  0  0  0
  2 25  1  0  0  0
  2 89  1  0  0  0
  2 90  1  0  0  0
  3  4  1  0  0  0
  3 91  1  0  0  0
  3 92  1  0  0  0
  4  5  1  0  0  0
  4 93  1  0  0  0
  4 94  1  0  0  0
  5  6  1  0  0  0
  5 26  1  0  0  0
  5 95  1  0  0  0
  6 25  1  0  0  0
  6 96  1  0  0  0
  6 97  1  0  0  0
  7  8  2  0  0  0
  7 26  1  0  0  0
  7 29  1  0  0  0
  8  9  1  0  0  0
  8 22  1  0  0  0
  9 10  1  0  0  0
  9 27  2  0  0  0
 10 11  2  0  0  0
 10 15  1  0  0  0
 11 12  1  0  0  0
 11 98  1  0  0  0
 12 13  2  0  0  0
 12 99  1  0  0  0
 13 14  1  0  0  0
 13 31  1  0  0  0
 14 15  2  0  0  0
 14100  1  0  0  0
 15101  1  0  0  0
 16 17  2  0  0  0
 16 21  1  0  0  0
 16 31  1  0  0  0
 17 18  1  0  0  0
 17102  1  0  0  0
 18 19  2  0  0  0
 18103  1  0  0  0
 19 20  1  0  0  0
 19 24  1  0  0  0
 20 21  2  0  0  0
 20104  1  0  0  0
 21 23  1  0  0  0
 22 28  1  0  0  0
 22 32  2  0  0  0
 26 27  1  0  0  0
 28105  1  0  0  0
 28106  1  0  0  0
 29107  1  0  0  0
 29108  1  0  0  0
 33 34  1  0  0  0
 33 66  1  0  0  0
 33 70  2  0  0  0
 34 36  1  0  0  0
 34 59  1  0  0  0
 34109  1  0  0  0
 35 44  2  0  0  0
 35 45  1  0  0  0
 35 68  1  0  0  0
 36 56  1  0  0  0
 36110  1  0  0  0
 37 39  1  0  0  0
 37 47  1  0  0  0
 37 66  1  0  0  0
 37111  1  0  0  0
 38 43  2  0  0  0
 38 46  1  0  0  0
 38 47  1  0  0  0
 39 64  1  0  0  0
 39 67  2  0  0  0
 40 52  1  0  0  0
 40 53  2  0  0  0
 40 58  1  0  0  0
 41112  1  0  0  0
 41113  1  0  0  0
 41114  1  0  0  0
 41 48  1  0  0  0
 42 43  1  0  0  0
 42 66  1  0  0  0
 42115  1  0  0  0
 42116  1  0  0  0
 43 44  1  0  0  0
 44117  1  0  0  0
 45 46  2  0  0  0
 45118  1  0  0  0
 46119  1  0  0  0
 47120  1  0  0  0
 47121  1  0  0  0
 48 56  1  0  0  0
 48 65  1  0  0  0
 48122  1  0  0  0
 49 50  1  0  0  0
 49 53  1  0  0  0
 49 64  1  0  0  0
 49123  1  0  0  0
 50 51  1  0  0  0
 50124  1  0  0  0
 50125  1  0  0  0
 51 52  1  0  0  0
 51126  1  0  0  0
 51127  1  0  0  0
 52128  1  0  0  0
 52129  1  0  0  0
 53 54  1  0  0  0
 54 55  2  0  0  0
 54130  1  0  0  0
 55 57  1  0  0  0
 55131  1  0  0  0
 56 69  2  0  0  0
 57 58  2  0  0  0
 57132  1  0  0  0
 58133  1  0  0  0
 59 60  1  0  0  0
 59 61  1  0  0  0
 59 62  1  0  0  0
 60134  1  0  0  0
 60135  1  0  0  0
 60136  1  0  0  0
 61137  1  0  0  0
 61138  1  0  0  0
 61139  1  0  0  0
 62140  1  0  0  0
 62141  1  0  0  0
 62142  1  0  0  0
 63 65  1  0  0  0
 63143  1  0  0  0
 63144  1  0  0  0
 63145  1  0  0  0
 64146  1  0  0  0
 65147  1  0  0  0
 68 85  1  0  0  0
 71 73  2  0  0  0
 71 75  1  0  0  0
 71148  1  0  0  0
 72 74  1  0  0  0
 72 76  2  0  0  0
 72149  1  0  0  0
 73 76  1  0  0  0
 73 82  1  0  0  0
 74 75  2  0  0  0
 74 83  1  0  0  0
 75 84  1  0  0  0
 76 85  1  0  0  0
 77 78  1  0  0  0
 77 79  1  0  0  0
 77150  1  0  0  0
 77151  1  0  0  0
 78 81  1  0  0  0
 78152  1  0  0  0
 78153  1  0  0  0
 79 88  1  0  0  0
 79154  1  0  0  0
 79155  1  0  0  0
 80 81  1  0  0  0
 80 88  1  0  0  0
 80156  1  0  0  0
 80157  1  0  0  0
 81 86  1  0  0  0
 81158  1  0  0  0
 82159  1  0  0  0
 82160  1  0  0  0
 82161  1  0  0  0
 83162  1  0  0  0
 83163  1  0  0  0
 83164  1  0  0  0
 84 87  1  0  0  0
 84165  1  0  0  0
 84166  1  0  0  0
 85167  1  0  0  0
 85168  1  0  0  0
 86 87  1  0  0  0
 86169  1  0  0  0
 86170  1  0  0  0
 87171  1  0  0  0
 87172  1  0  0  0
M  ISO  4   1 100  68 101  85 101  88 100
M  END
> <chiral flag>
0

> <version>
0

> <s_m_source_file>
/data/baiqing/PycharmProjects/Reinvent-master-3.2/result/LINK_invent/BTK/process_docking_weight1_custom_sum_contain_oxygen_bond_distance_aromatic_linkinvent_7_9_3/rearranged_h_0036.sdf

> <i_m_source_file_index>
58

> <r_mmod_Potential_Energy-OPLS-2005>
344.531188964844

> <r_mmod_Stretch_Energy-OPLS-2005>
50.3316383361816

> <r_mmod_Bend_Energy-OPLS-2005>
130.230529785156

> <r_mmod_Torsional_Energy-OPLS-2005>
399.3291015625

> <r_mmod_Improper_Torsional_Energy-OPLS-2005>
28.8306655883789

> <r_mmod_Van_der_Waal_Energy-OPLS-2005>
165.042022705078

> <r_mmod_Electrostatic_Energy-OPLS-2005>
-290.139068603516

> <r_mmod_Solvation_Energy-OPLS-2005>
-184.355529785156

> <b_mmod_Minimization_Converged-OPLS-2005>
0

> <r_mmod_RMS_Derivative-OPLS-2005>
10.3932790756226

$$$$
59
                    3D
 Structure written by MMmdl.
156164  0  0  1  0            999 V2000
  -30.6461  -14.6921   20.4203 C   0  0  0  0  0  0
  -30.4253  -12.4197   19.4526 C   0  0  0  0  0  0
  -29.4971  -12.4919   18.2212 C   0  0  0  0  0  0
  -28.0237  -12.3341   18.6440 C   0  0  0  0  0  0
  -27.6421  -13.2333   19.8502 C   0  0  2  0  0  0
  -28.6951  -13.1633   20.9787 C   0  0  0  0  0  0
  -25.2506  -13.8210   20.5697 C   0  0  0  0  0  0
  -24.1806  -13.0462   20.9206 C   0  0  0  0  0  0
  -24.6398  -11.6927   20.8756 C   0  0  0  0  0  0
  -23.9075  -10.4297   21.0410 C   0  0  0  0  0  0
  -24.3621   -9.4206   21.9187 C   0  0  0  0  0  0
  -23.6292   -8.2243   22.0770 C   0  0  0  0  0  0
  -22.4280   -8.0270   21.3554 C   0  0  0  0  0  0
  -21.9911   -9.0248   20.4664 C   0  0  0  0  0  0
  -22.7240  -10.2126   20.3067 C   0  0  0  0  0  0
  -21.6849   -6.0715   22.5273 C   0  0  0  0  0  0
  -21.4002   -6.5633   23.8198 C   0  0  0  0  0  0
  -21.3665   -5.6798   24.9172 C   0  0  0  0  0  0
  -21.6050   -4.3060   24.7238 C   0  0  0  0  0  0
  -21.8817   -3.8138   23.4365 C   0  0  0  0  0  0
  -21.9189   -4.6940   22.3407 C   0  0  0  0  0  0
  -22.7815  -13.5214   21.1863 C   0  0  0  0  0  0
  -22.1655   -4.2115   21.0990 F   0  0  0  0  0  0
  -21.5647   -3.4559   25.7761 F   0  0  0  0  0  0
  -29.9969  -13.4848   20.3819 N   0  0  0  0  0  0
  -26.2951  -12.9429   20.3314 N   0  0  0  0  0  0
  -25.9336  -11.6565   20.5789 N   0  0  0  0  0  0
  -22.0477  -12.8203   22.0423 N   0  0  0  0  0  0
  -25.4220  -15.1939   20.4088 N   0  0  0  0  0  0
  -31.8456  -14.7654   20.1485 O   0  0  0  0  0  0
  -21.6653   -6.8861   21.4236 O   0  0  0  0  0  0
  -22.3488  -14.5519   20.6710 O   0  0  0  0  0  0
  -24.6285  -31.8563   23.1959 C   0  0  0  0  0  0
  -25.9114  -32.4757   23.8319 C   0  0  1  0  0  0
  -27.2268  -27.2892   20.1270 C   0  0  0  0  0  0
  -25.5913  -33.8559   24.2241 N   0  0  0  0  0  0
  -23.4245  -30.4771   21.5404 C   0  0  2  0  0  0
  -24.8703  -28.9116   20.1201 C   0  0  0  0  0  0
  -22.7467  -29.4653   22.4948 C   0  0  0  0  0  0
  -18.0290  -28.1410   22.8480 C   0  0  0  0  0  0
  -24.1486  -36.7300   23.2640 C   0  0  0  0  0  0
  -25.9658  -30.7736   21.3709 C   0  0  0  0  0  0
  -26.0396  -29.3959   20.7206 C   0  0  0  0  0  0
  -27.2235  -28.5966   20.7095 C   0  0  0  0  0  0
  -26.0343  -26.8467   19.5218 C   0  0  0  0  0  0
  -24.8691  -27.6432   19.5132 C   0  0  0  0  0  0
  -23.6404  -29.7995   20.1616 C   0  0  0  0  0  0
  -25.4106  -36.3061   24.0309 C   0  0  1  0  0  0
  -20.5887  -28.3735   23.1267 C   0  0  2  0  0  0
  -20.6789  -26.9472   22.5404 C   0  0  0  0  0  0
  -19.5766  -26.6414   21.5211 C   0  0  0  0  0  0
  -18.1936  -26.7949   22.1617 C   0  0  0  0  0  0
  -19.1541  -28.8882   23.2865 C   0  0  0  0  0  0
  -18.9472  -30.1474   23.8900 C   0  0  0  0  0  0
  -17.6475  -30.6606   24.0580 C   0  0  0  0  0  0
  -25.9052  -34.9436   23.5081 C   0  0  0  0  0  0
  -16.5363  -29.9119   23.6335 C   0  0  0  0  0  0
  -16.7279  -28.6541   23.0345 C   0  0  0  0  0  0
  -26.4488  -31.6572   25.0708 C   0  0  0  0  0  0
  -25.3696  -31.3723   26.1419 C   0  0  0  0  0  0
  -27.0342  -30.2982   24.6194 C   0  0  0  0  0  0
  -27.6049  -32.4329   25.7454 C   0  0  0  0  0  0
  -27.5581  -37.1765   24.8448 C   0  0  0  0  0  0
  -21.4187  -29.3080   22.3651 N   0  0  0  0  0  0
  -26.4284  -37.3753   23.9411 N   0  0  0  0  0  0
  -24.6924  -31.0543   22.0927 N   0  0  0  0  0  0
  -23.4153  -28.8226   23.3084 O   0  0  0  0  0  0
  -28.3615  -26.4635   20.0923 O   0  0  0  0  0  0
  -26.5651  -34.8918   22.4668 O   0  0  0  0  0  0
  -23.5437  -32.1415   23.7252 O   0  0  0  0  0  0
  -30.6960  -22.8422   20.1272 C   0  0  0  0  0  0
  -31.6504  -21.8162   20.2017 C   0  0  0  0  0  0
  -28.9688  -21.1439   19.9949 C   0  0  0  0  0  0
  -29.3306  -22.5514   19.9814 C   0  0  0  0  0  0
  -31.3025  -20.4466   20.1525 C   0  0  0  0  0  0
  -29.9261  -20.0494   20.1070 C   0  0  0  0  0  0
  -32.4883  -19.4926   20.0801 C   0  0  0  0  0  0
  -28.3761  -23.7770   19.6564 C   0  0  0  0  0  0
  -29.4294  -18.5229   20.1418 C   0  0  0  0  0  0
  -30.4190  -17.2645   20.3676 C   0  0  0  0  0  0
  -28.3078  -25.0677   20.6148 C   0  0  0  0  0  0
  -29.8959  -15.8453   20.5181 N   0  0  0  0  0  0
  -31.4664  -12.5283   19.1449 H   0  0  0  0  0  0
  -30.3565  -11.4451   19.9363 H   0  0  0  0  0  0
  -29.7615  -11.7142   17.5037 H   0  0  0  0  0  0
  -29.6318  -13.4440   17.7057 H   0  0  0  0  0  0
  -27.8704  -11.2860   18.9028 H   0  0  0  0  0  0
  -27.3647  -12.5389   17.7998 H   0  0  0  0  0  0
  -27.6367  -14.2554   19.4698 H   0  0  0  0  0  0
  -28.7219  -12.1723   21.4321 H   0  0  0  0  0  0
  -28.4534  -13.8625   21.7812 H   0  0  0  0  0  0
  -25.2767   -9.5675   22.4761 H   0  0  0  0  0  0
  -23.9996   -7.4637   22.7506 H   0  0  0  0  0  0
  -21.0831   -8.8757   19.8982 H   0  0  0  0  0  0
  -22.3686  -10.9657   19.6176 H   0  0  0  0  0  0
  -21.1980   -7.6139   23.9674 H   0  0  0  0  0  0
  -21.1498   -6.0553   25.9069 H   0  0  0  0  0  0
  -22.0593   -2.7595   23.2888 H   0  0  0  0  0  0
  -22.4120  -11.9861   22.4787 H   0  0  0  0  0  0
  -21.1095  -13.1208   22.2664 H   0  0  0  0  0  0
  -24.6617  -15.8554   20.5242 H   0  0  0  0  0  0
  -26.2732  -15.6254   20.0732 H   0  0  0  0  0  0
  -26.7191  -32.5400   23.1075 H   0  0  0  0  0  0
  -24.9947  -33.9704   25.0308 H   0  0  0  0  0  0
  -22.7247  -31.3015   21.3879 H   0  0  0  0  0  0
  -23.3729  -35.9648   23.3289 H   0  0  0  0  0  0
  -24.3586  -36.8964   22.2065 H   0  0  0  0  0  0
  -23.7270  -37.6501   23.6697 H   0  0  0  0  0  0
  -26.0992  -31.5293   20.5952 H   0  0  0  0  0  0
  -26.8465  -30.8281   21.9993 H   0  0  0  0  0  0
  -28.1269  -28.9615   21.1769 H   0  0  0  0  0  0
  -26.0030  -25.8717   19.0541 H   0  0  0  0  0  0
  -23.9689  -27.2641   19.0482 H   0  0  0  0  0  0
  -23.7680  -30.5715   19.4019 H   0  0  0  0  0  0
  -22.7573  -29.2329   19.8607 H   0  0  0  0  0  0
  -25.1276  -36.1896   25.0796 H   0  0  0  0  0  0
  -20.9962  -28.3348   24.1393 H   0  0  0  0  0  0
  -20.5713  -26.2377   23.3612 H   0  0  0  0  0  0
  -21.6657  -26.7537   22.1195 H   0  0  0  0  0  0
  -19.6965  -25.6318   21.1272 H   0  0  0  0  0  0
  -19.6696  -27.3189   20.6714 H   0  0  0  0  0  0
  -17.4209  -26.6687   21.4017 H   0  0  0  0  0  0
  -18.0364  -26.0074   22.9013 H   0  0  0  0  0  0
  -19.7955  -30.7279   24.2276 H   0  0  0  0  0  0
  -17.5048  -31.6281   24.5195 H   0  0  0  0  0  0
  -15.5367  -30.3033   23.7666 H   0  0  0  0  0  0
  -15.8680  -28.0878   22.7058 H   0  0  0  0  0  0
  -24.5855  -30.7106   25.7722 H   0  0  0  0  0  0
  -24.8895  -32.2891   26.4846 H   0  0  0  0  0  0
  -25.7973  -30.8877   27.0207 H   0  0  0  0  0  0
  -26.2931  -29.6691   24.1239 H   0  0  0  0  0  0
  -27.4055  -29.7273   25.4720 H   0  0  0  0  0  0
  -27.8791  -30.4255   23.9416 H   0  0  0  0  0  0
  -27.2679  -33.3653   26.1996 H   0  0  0  0  0  0
  -28.3844  -32.6857   25.0251 H   0  0  0  0  0  0
  -28.0730  -31.8482   26.5385 H   0  0  0  0  0  0
  -28.2527  -38.0124   24.7537 H   0  0  0  0  0  0
  -28.1145  -36.2646   24.6205 H   0  0  0  0  0  0
  -27.2317  -37.1343   25.8856 H   0  0  0  0  0  0
  -20.9395  -29.8769   21.6810 H   0  0  0  0  0  0
  -26.0154  -38.2820   24.1442 H   0  0  0  0  0  0
  -31.0373  -23.8675   20.1126 H   0  0  0  0  0  0
  -32.6922  -22.1063   20.2460 H   0  0  0  0  0  0
  -27.9240  -20.8877   19.8800 H   0  0  0  0  0  0
  -33.4342  -20.0333   20.1302 H   0  0  0  0  0  0
  -32.4948  -18.9606   19.1270 H   0  0  0  0  0  0
  -32.5279  -18.7935   20.9093 H   0  0  0  0  0  0
  -27.3677  -23.3943   19.5059 H   0  0  0  0  0  0
  -28.6881  -24.1355   18.6750 H   0  0  0  0  0  0
  -28.8784  -18.3545   19.2153 H   0  0  0  0  0  0
  -28.6738  -18.4798   20.9267 H   0  0  0  0  0  0
  -30.9742  -17.4298   21.2877 H   0  0  0  0  0  0
  -31.1358  -17.2425   19.5457 H   0  0  0  0  0  0
  -29.1600  -25.0039   21.2923 H   0  0  0  0  0  0
  -27.4429  -24.9587   21.2710 H   0  0  0  0  0  0
  -28.9140  -15.7299   20.7156 H   0  0  0  0  0  0
  1 25  1  0  0  0
  1 30  2  0  0  0
  1 82  1  0  0  0
  2  3  1  0  0  0
  2 25  1  0  0  0
  2 83  1  0  0  0
  2 84  1  0  0  0
  3  4  1  0  0  0
  3 85  1  0  0  0
  3 86  1  0  0  0
  4  5  1  0  0  0
  4 87  1  0  0  0
  4 88  1  0  0  0
  5  6  1  0  0  0
  5 26  1  0  0  0
  5 89  1  0  0  0
  6 25  1  0  0  0
  6 90  1  0  0  0
  6 91  1  0  0  0
  7  8  2  0  0  0
  7 26  1  0  0  0
  7 29  1  0  0  0
  8  9  1  0  0  0
  8 22  1  0  0  0
  9 10  1  0  0  0
  9 27  2  0  0  0
 10 11  2  0  0  0
 10 15  1  0  0  0
 11 12  1  0  0  0
 11 92  1  0  0  0
 12 13  2  0  0  0
 12 93  1  0  0  0
 13 14  1  0  0  0
 13 31  1  0  0  0
 14 15  2  0  0  0
 14 94  1  0  0  0
 15 95  1  0  0  0
 16 17  2  0  0  0
 16 21  1  0  0  0
 16 31  1  0  0  0
 17 18  1  0  0  0
 17 96  1  0  0  0
 18 19  2  0  0  0
 18 97  1  0  0  0
 19 20  1  0  0  0
 19 24  1  0  0  0
 20 21  2  0  0  0
 20 98  1  0  0  0
 21 23  1  0  0  0
 22 28  1  0  0  0
 22 32  2  0  0  0
 26 27  1  0  0  0
 28 99  1  0  0  0
 28100  1  0  0  0
 29101  1  0  0  0
 29102  1  0  0  0
 33 34  1  0  0  0
 33 66  1  0  0  0
 33 70  2  0  0  0
 34 36  1  0  0  0
 34 59  1  0  0  0
 34103  1  0  0  0
 35 44  2  0  0  0
 35 45  1  0  0  0
 35 68  1  0  0  0
 36 56  1  0  0  0
 36104  1  0  0  0
 37 39  1  0  0  0
 37 47  1  0  0  0
 37 66  1  0  0  0
 37105  1  0  0  0
 38 43  2  0  0  0
 38 46  1  0  0  0
 38 47  1  0  0  0
 39 64  1  0  0  0
 39 67  2  0  0  0
 40 52  1  0  0  0
 40 53  2  0  0  0
 40 58  1  0  0  0
 41106  1  0  0  0
 41107  1  0  0  0
 41108  1  0  0  0
 41 48  1  0  0  0
 42 43  1  0  0  0
 42 66  1  0  0  0
 42109  1  0  0  0
 42110  1  0  0  0
 43 44  1  0  0  0
 44111  1  0  0  0
 45 46  2  0  0  0
 45112  1  0  0  0
 46113  1  0  0  0
 47114  1  0  0  0
 47115  1  0  0  0
 48 56  1  0  0  0
 48 65  1  0  0  0
 48116  1  0  0  0
 49 50  1  0  0  0
 49 53  1  0  0  0
 49 64  1  0  0  0
 49117  1  0  0  0
 50 51  1  0  0  0
 50118  1  0  0  0
 50119  1  0  0  0
 51 52  1  0  0  0
 51120  1  0  0  0
 51121  1  0  0  0
 52122  1  0  0  0
 52123  1  0  0  0
 53 54  1  0  0  0
 54 55  2  0  0  0
 54124  1  0  0  0
 55 57  1  0  0  0
 55125  1  0  0  0
 56 69  2  0  0  0
 57 58  2  0  0  0
 57126  1  0  0  0
 58127  1  0  0  0
 59 60  1  0  0  0
 59 61  1  0  0  0
 59 62  1  0  0  0
 60128  1  0  0  0
 60129  1  0  0  0
 60130  1  0  0  0
 61131  1  0  0  0
 61132  1  0  0  0
 61133  1  0  0  0
 62134  1  0  0  0
 62135  1  0  0  0
 62136  1  0  0  0
 63 65  1  0  0  0
 63137  1  0  0  0
 63138  1  0  0  0
 63139  1  0  0  0
 64140  1  0  0  0
 65141  1  0  0  0
 68 81  1  0  0  0
 71 72  2  0  0  0
 71 74  1  0  0  0
 71142  1  0  0  0
 72 75  1  0  0  0
 72143  1  0  0  0
 73 74  2  0  0  0
 73 76  1  0  0  0
 73144  1  0  0  0
 74 78  1  0  0  0
 75 76  2  0  0  0
 75 77  1  0  0  0
 76 79  1  0  0  0
 77145  1  0  0  0
 77146  1  0  0  0
 77147  1  0  0  0
 78 81  1  0  0  0
 78148  1  0  0  0
 78149  1  0  0  0
 79 80  1  0  0  0
 79150  1  0  0  0
 79151  1  0  0  0
 80 82  1  0  0  0
 80152  1  0  0  0
 80153  1  0  0  0
 81154  1  0  0  0
 81155  1  0  0  0
 82156  1  0  0  0
M  ISO  4   1 100  68 101  81 101  82 100
M  END
> <chiral flag>
0

> <version>
0

> <s_m_source_file>
/data/baiqing/PycharmProjects/Reinvent-master-3.2/result/LINK_invent/BTK/process_docking_weight1_custom_sum_contain_oxygen_bond_distance_aromatic_linkinvent_7_9_3/rearranged_h_0036.sdf

> <i_m_source_file_index>
59

> <r_mmod_Potential_Energy-OPLS-2005>
138.295974731445

> <r_mmod_Stretch_Energy-OPLS-2005>
108.954345703125

> <r_mmod_Bend_Energy-OPLS-2005>
167.326080322266

> <r_mmod_Torsional_Energy-OPLS-2005>
234.950073242188

> <r_mmod_Improper_Torsional_Energy-OPLS-2005>
6.37435865402222

> <r_mmod_Van_der_Waal_Energy-OPLS-2005>
141.561645507812

> <r_mmod_Electrostatic_Energy-OPLS-2005>
-377.002258300781

> <r_mmod_Solvation_Energy-OPLS-2005>
-209.585433959961

> <b_mmod_Minimization_Converged-OPLS-2005>
0

> <r_mmod_RMS_Derivative-OPLS-2005>
3.02694463729858

$$$$
60
                    3D
 Structure written by MMmdl.
172181  0  0  1  0            999 V2000
  -30.7605  -14.3385   20.7121 C   0  0  0  0  0  0
  -30.4093  -12.2907   19.3804 C   0  0  0  0  0  0
  -29.4755  -12.5448   18.1839 C   0  0  0  0  0  0
  -27.9989  -12.3974   18.5968 C   0  0  0  0  0  0
  -27.6602  -13.2036   19.8803 C   0  0  2  0  0  0
  -28.6955  -12.9204   20.9913 C   0  0  0  0  0  0
  -25.2523  -13.8163   20.5639 C   0  0  0  0  0  0
  -24.1792  -13.0429   20.9147 C   0  0  0  0  0  0
  -24.6344  -11.6905   20.8679 C   0  0  0  0  0  0
  -23.9029  -10.4283   21.0365 C   0  0  0  0  0  0
  -24.3600   -9.4229   21.9163 C   0  0  0  0  0  0
  -23.6271   -8.2273   22.0779 C   0  0  0  0  0  0
  -22.4258   -8.0273   21.3562 C   0  0  0  0  0  0
  -21.9872   -9.0234   20.4663 C   0  0  0  0  0  0
  -22.7181  -10.2121   20.3034 C   0  0  0  0  0  0
  -21.6843   -6.0719   22.5271 C   0  0  0  0  0  0
  -21.4025   -6.5629   23.8200 C   0  0  0  0  0  0
  -21.3656   -5.6793   24.9168 C   0  0  0  0  0  0
  -21.6037   -4.3051   24.7233 C   0  0  0  0  0  0
  -21.8809   -3.8136   23.4352 C   0  0  0  0  0  0
  -21.9205   -4.6952   22.3404 C   0  0  0  0  0  0
  -22.7797  -13.5231   21.1794 C   0  0  0  0  0  0
  -22.1659   -4.2124   21.0981 F   0  0  0  0  0  0
  -21.5636   -3.4547   25.7761 F   0  0  0  0  0  0
  -30.0423  -13.2150   20.4646 N   0  0  0  0  0  0
  -26.2975  -12.9330   20.3371 N   0  0  0  0  0  0
  -25.9270  -11.6493   20.5727 N   0  0  0  0  0  0
  -22.0459  -12.8252   22.0375 N   0  0  0  0  0  0
  -25.4225  -15.1884   20.4012 N   0  0  0  0  0  0
  -31.7704  -14.6554   20.0790 O   0  0  0  0  0  0
  -21.6629   -6.8861   21.4237 O   0  0  0  0  0  0
  -22.3485  -14.5524   20.6620 O   0  0  0  0  0  0
  -24.6087  -31.8698   23.2184 C   0  0  0  0  0  0
  -25.9007  -32.4826   23.8418 C   0  0  1  0  0  0
  -27.2233  -27.4660   20.0874 C   0  0  0  0  0  0
  -25.5862  -33.8641   24.2303 N   0  0  0  0  0  0
  -23.3930  -30.4978   21.5584 C   0  0  2  0  0  0
  -24.8370  -28.9700   20.1215 C   0  0  0  0  0  0
  -22.7369  -29.4654   22.5034 C   0  0  0  0  0  0
  -18.0260  -28.1400   22.8489 C   0  0  0  0  0  0
  -24.1485  -36.7337   23.2640 C   0  0  0  0  0  0
  -25.9220  -30.8427   21.3724 C   0  0  0  0  0  0
  -25.9992  -29.4855   20.7087 C   0  0  0  0  0  0
  -27.1986  -28.7436   20.6810 C   0  0  0  0  0  0
  -26.0375  -26.9499   19.5208 C   0  0  0  0  0  0
  -24.8491  -27.6973   19.5299 C   0  0  0  0  0  0
  -23.6023  -29.8393   20.1714 C   0  0  0  0  0  0
  -25.4105  -36.3113   24.0328 C   0  0  1  0  0  0
  -20.5833  -28.3682   23.1341 C   0  0  2  0  0  0
  -20.6728  -26.9417   22.5432 C   0  0  0  0  0  0
  -19.5733  -26.6407   21.5202 C   0  0  0  0  0  0
  -18.1914  -26.7945   22.1626 C   0  0  0  0  0  0
  -19.1500  -28.8859   23.2894 C   0  0  0  0  0  0
  -18.9427  -30.1474   23.8910 C   0  0  0  0  0  0
  -17.6434  -30.6592   24.0598 C   0  0  0  0  0  0
  -25.9037  -34.9484   23.5106 C   0  0  0  0  0  0
  -16.5329  -29.9114   23.6336 C   0  0  0  0  0  0
  -16.7256  -28.6532   23.0340 C   0  0  0  0  0  0
  -26.4444  -31.6609   25.0764 C   0  0  0  0  0  0
  -25.3716  -31.3727   26.1502 C   0  0  0  0  0  0
  -27.0280  -30.3036   24.6185 C   0  0  0  0  0  0
  -27.5997  -32.4364   25.7516 C   0  0  0  0  0  0
  -27.5576  -37.1811   24.8457 C   0  0  0  0  0  0
  -21.4100  -29.3062   22.3769 N   0  0  0  0  0  0
  -26.4308  -37.3786   23.9412 N   0  0  0  0  0  0
  -24.6587  -31.0822   22.1080 N   0  0  0  0  0  0
  -23.4145  -28.8171   23.3050 O   0  0  0  0  0  0
  -28.4060  -26.7671   20.0680 O   0  0  0  0  0  0
  -26.5616  -34.8935   22.4684 O   0  0  0  0  0  0
  -23.5314  -32.1444   23.7627 O   0  0  0  0  0  0
  -29.1244  -17.7866   20.9814 C   0  0  0  0  0  0
  -31.4810  -18.1468   20.4942 C   0  0  0  0  0  0
  -28.7727  -18.7900   20.0559 C   0  0  0  0  0  0
  -29.7868  -19.4843   19.3422 C   0  0  0  0  0  0
  -30.4765  -17.4642   21.2058 C   0  0  0  0  0  0
  -31.1457  -19.1492   19.5619 C   0  0  0  0  0  0
  -27.2920  -19.1079   19.8766 C   0  0  0  0  0  0
  -29.4102  -20.5940   18.3643 C   0  0  0  0  0  0
  -26.9851  -20.1660   18.8023 C   0  0  0  0  0  0
  -28.0801  -21.2543   18.7429 C   0  0  2  0  0  0
  -32.2683  -19.8466   18.8087 C   0  0  0  0  0  0
  -26.9169  -22.1405   16.6867 C   0  0  0  0  0  0
  -30.8507  -16.3501   22.1690 C   0  0  0  0  0  0
  -28.5647  -24.5209   19.0300 C   0  0  0  0  0  0
  -27.3640  -23.6372   18.6040 C   0  0  0  0  0  0
  -28.3286  -25.3623   20.3029 C   0  0  0  0  0  0
  -30.3134  -15.0663   21.7447 N   0  0  0  0  0  0
  -27.7877  -22.4218   17.8532 N   0  3  1  0  0  0
  -31.4512  -12.3944   19.0747 H   0  0  0  0  0  0
  -30.3092  -11.2619   19.7275 H   0  0  0  0  0  0
  -29.7076  -11.8568   17.3713 H   0  0  0  0  0  0
  -29.6440  -13.5469   17.7899 H   0  0  0  0  0  0
  -27.7924  -11.3367   18.7535 H   0  0  0  0  0  0
  -27.3486  -12.7108   17.7789 H   0  0  0  0  0  0
  -27.7191  -14.2627   19.6287 H   0  0  0  0  0  0
  -28.6490  -11.8713   21.2893 H   0  0  0  0  0  0
  -28.4307  -13.4811   21.8872 H   0  0  0  0  0  0
  -25.2760   -9.5721   22.4718 H   0  0  0  0  0  0
  -23.9996   -7.4664   22.7490 H   0  0  0  0  0  0
  -21.0819   -8.8672   19.8945 H   0  0  0  0  0  0
  -22.3599  -10.9631   19.6115 H   0  0  0  0  0  0
  -21.2012   -7.6136   23.9691 H   0  0  0  0  0  0
  -21.1486   -6.0537   25.9062 H   0  0  0  0  0  0
  -22.0605   -2.7601   23.2861 H   0  0  0  0  0  0
  -22.4086  -11.9955   22.4832 H   0  0  0  0  0  0
  -21.1047  -13.1236   22.2523 H   0  0  0  0  0  0
  -24.6536  -15.8428   20.4918 H   0  0  0  0  0  0
  -26.2879  -15.6274   20.1112 H   0  0  0  0  0  0
  -26.7087  -32.5518   23.1175 H   0  0  0  0  0  0
  -24.9896  -33.9816   25.0355 H   0  0  0  0  0  0
  -22.6815  -31.3139   21.4183 H   0  0  0  0  0  0
  -23.3753  -35.9667   23.3329 H   0  0  0  0  0  0
  -24.3562  -36.8953   22.2052 H   0  0  0  0  0  0
  -23.7256  -37.6565   23.6640 H   0  0  0  0  0  0
  -26.0393  -31.6222   20.6196 H   0  0  0  0  0  0
  -26.8088  -30.8807   21.9947 H   0  0  0  0  0  0
  -28.0997  -29.1401   21.1239 H   0  0  0  0  0  0
  -26.0114  -25.9736   19.0688 H   0  0  0  0  0  0
  -23.9505  -27.2882   19.0903 H   0  0  0  0  0  0
  -23.7226  -30.6193   19.4198 H   0  0  0  0  0  0
  -22.7259  -29.2690   19.8606 H   0  0  0  0  0  0
  -25.1265  -36.1949   25.0824 H   0  0  0  0  0  0
  -20.9894  -28.3209   24.1477 H   0  0  0  0  0  0
  -20.5609  -26.2268   23.3609 H   0  0  0  0  0  0
  -21.6589  -26.7430   22.1228 H   0  0  0  0  0  0
  -19.6896  -25.6305   21.1255 H   0  0  0  0  0  0
  -19.6693  -27.3197   20.6716 H   0  0  0  0  0  0
  -17.4156  -26.6711   21.4047 H   0  0  0  0  0  0
  -18.0332  -26.0030   22.8985 H   0  0  0  0  0  0
  -19.7903  -30.7315   24.2234 H   0  0  0  0  0  0
  -17.4986  -31.6256   24.5229 H   0  0  0  0  0  0
  -15.5338  -30.3054   23.7642 H   0  0  0  0  0  0
  -15.8636  -28.0909   22.7053 H   0  0  0  0  0  0
  -24.5878  -30.7063   25.7846 H   0  0  0  0  0  0
  -24.8913  -32.2903   26.4936 H   0  0  0  0  0  0
  -25.8079  -30.8902   27.0255 H   0  0  0  0  0  0
  -26.2861  -29.6819   24.1158 H   0  0  0  0  0  0
  -27.3921  -29.7230   25.4678 H   0  0  0  0  0  0
  -27.8734  -30.4332   23.9425 H   0  0  0  0  0  0
  -27.2565  -33.3633   26.2118 H   0  0  0  0  0  0
  -28.3773  -32.7011   25.0336 H   0  0  0  0  0  0
  -28.0680  -31.8489   26.5416 H   0  0  0  0  0  0
  -28.2570  -38.0124   24.7474 H   0  0  0  0  0  0
  -28.1087  -36.2646   24.6278 H   0  0  0  0  0  0
  -27.2287  -37.1453   25.8860 H   0  0  0  0  0  0
  -20.9263  -29.8845   21.7050 H   0  0  0  0  0  0
  -26.0186  -38.2868   24.1421 H   0  0  0  0  0  0
  -28.3527  -17.2651   21.5318 H   0  0  0  0  0  0
  -32.5198  -17.8884   20.6569 H   0  0  0  0  0  0
  -26.9102  -19.4504   20.8385 H   0  0  0  0  0  0
  -26.7504  -18.1882   19.6488 H   0  0  0  0  0  0
  -29.3458  -20.1606   17.3647 H   0  0  0  0  0  0
  -30.1929  -21.3522   18.3284 H   0  0  0  0  0  0
  -25.9951  -20.5874   18.9836 H   0  0  0  0  0  0
  -26.9313  -19.6499   17.8411 H   0  0  0  0  0  0
  -28.2099  -21.6364   19.7573 H   0  0  0  0  0  0
  -33.2187  -19.3299   18.9423 H   0  0  0  0  0  0
  -32.3928  -20.8730   19.1576 H   0  0  0  0  0  0
  -32.0625  -19.8709   17.7382 H   0  0  0  0  0  0
  -27.2217  -21.2360   16.1588 H   0  0  0  0  0  0
  -26.9746  -22.9603   15.9686 H   0  0  0  0  0  0
  -25.8763  -22.0344   16.9915 H   0  0  0  0  0  0
  -30.4572  -16.5859   23.1599 H   0  0  0  0  0  0
  -31.9351  -16.2796   22.2720 H   0  0  0  0  0  0
  -28.8574  -25.1694   18.2004 H   0  0  0  0  0  0
  -29.4405  -23.8990   19.2243 H   0  0  0  0  0  0
  -26.7091  -24.2431   17.9781 H   0  0  0  0  0  0
  -26.7557  -23.3453   19.4617 H   0  0  0  0  0  0
  -29.1277  -25.1415   21.0107 H   0  0  0  0  0  0
  -27.4172  -25.0740   20.8274 H   0  0  0  0  0  0
  -29.5122  -14.7129   22.2434 H   0  0  0  0  0  0
  -28.6757  -22.6618   17.4404 H   0  0  0  0  0  0
  1 25  1  0  0  0
  1 30  2  0  0  0
  1 87  1  0  0  0
  2  3  1  0  0  0
  2 25  1  0  0  0
  2 89  1  0  0  0
  2 90  1  0  0  0
  3  4  1  0  0  0
  3 91  1  0  0  0
  3 92  1  0  0  0
  4  5  1  0  0  0
  4 93  1  0  0  0
  4 94  1  0  0  0
  5  6  1  0  0  0
  5 26  1  0  0  0
  5 95  1  0  0  0
  6 25  1  0  0  0
  6 96  1  0  0  0
  6 97  1  0  0  0
  7  8  2  0  0  0
  7 26  1  0  0  0
  7 29  1  0  0  0
  8  9  1  0  0  0
  8 22  1  0  0  0
  9 10  1  0  0  0
  9 27  2  0  0  0
 10 11  2  0  0  0
 10 15  1  0  0  0
 11 12  1  0  0  0
 11 98  1  0  0  0
 12 13  2  0  0  0
 12 99  1  0  0  0
 13 14  1  0  0  0
 13 31  1  0  0  0
 14 15  2  0  0  0
 14100  1  0  0  0
 15101  1  0  0  0
 16 17  2  0  0  0
 16 21  1  0  0  0
 16 31  1  0  0  0
 17 18  1  0  0  0
 17102  1  0  0  0
 18 19  2  0  0  0
 18103  1  0  0  0
 19 20  1  0  0  0
 19 24  1  0  0  0
 20 21  2  0  0  0
 20104  1  0  0  0
 21 23  1  0  0  0
 22 28  1  0  0  0
 22 32  2  0  0  0
 26 27  1  0  0  0
 28105  1  0  0  0
 28106  1  0  0  0
 29107  1  0  0  0
 29108  1  0  0  0
 33 34  1  0  0  0
 33 66  1  0  0  0
 33 70  2  0  0  0
 34 36  1  0  0  0
 34 59  1  0  0  0
 34109  1  0  0  0
 35 44  2  0  0  0
 35 45  1  0  0  0
 35 68  1  0  0  0
 36 56  1  0  0  0
 36110  1  0  0  0
 37 39  1  0  0  0
 37 47  1  0  0  0
 37 66  1  0  0  0
 37111  1  0  0  0
 38 43  2  0  0  0
 38 46  1  0  0  0
 38 47  1  0  0  0
 39 64  1  0  0  0
 39 67  2  0  0  0
 40 52  1  0  0  0
 40 53  2  0  0  0
 40 58  1  0  0  0
 41112  1  0  0  0
 41113  1  0  0  0
 41114  1  0  0  0
 41 48  1  0  0  0
 42 43  1  0  0  0
 42 66  1  0  0  0
 42115  1  0  0  0
 42116  1  0  0  0
 43 44  1  0  0  0
 44117  1  0  0  0
 45 46  2  0  0  0
 45118  1  0  0  0
 46119  1  0  0  0
 47120  1  0  0  0
 47121  1  0  0  0
 48 56  1  0  0  0
 48 65  1  0  0  0
 48122  1  0  0  0
 49 50  1  0  0  0
 49 53  1  0  0  0
 49 64  1  0  0  0
 49123  1  0  0  0
 50 51  1  0  0  0
 50124  1  0  0  0
 50125  1  0  0  0
 51 52  1  0  0  0
 51126  1  0  0  0
 51127  1  0  0  0
 52128  1  0  0  0
 52129  1  0  0  0
 53 54  1  0  0  0
 54 55  2  0  0  0
 54130  1  0  0  0
 55 57  1  0  0  0
 55131  1  0  0  0
 56 69  2  0  0  0
 57 58  2  0  0  0
 57132  1  0  0  0
 58133  1  0  0  0
 59 60  1  0  0  0
 59 61  1  0  0  0
 59 62  1  0  0  0
 60134  1  0  0  0
 60135  1  0  0  0
 60136  1  0  0  0
 61137  1  0  0  0
 61138  1  0  0  0
 61139  1  0  0  0
 62140  1  0  0  0
 62141  1  0  0  0
 62142  1  0  0  0
 63 65  1  0  0  0
 63143  1  0  0  0
 63144  1  0  0  0
 63145  1  0  0  0
 64146  1  0  0  0
 65147  1  0  0  0
 68 86  1  0  0  0
 71 73  2  0  0  0
 71 75  1  0  0  0
 71148  1  0  0  0
 72 75  2  0  0  0
 72 76  1  0  0  0
 72149  1  0  0  0
 73 74  1  0  0  0
 73 77  1  0  0  0
 74 76  2  0  0  0
 74 78  1  0  0  0
 75 83  1  0  0  0
 76 81  1  0  0  0
 77 79  1  0  0  0
 77150  1  0  0  0
 77151  1  0  0  0
 78152  1  0  0  0
 78153  1  0  0  0
 78 80  1  0  0  0
 79 80  1  0  0  0
 79154  1  0  0  0
 79155  1  0  0  0
 80 88  1  0  0  0
 80156  1  0  0  0
 81157  1  0  0  0
 81158  1  0  0  0
 81159  1  0  0  0
 82160  1  0  0  0
 82161  1  0  0  0
 82162  1  0  0  0
 82 88  1  0  0  0
 83 87  1  0  0  0
 83163  1  0  0  0
 83164  1  0  0  0
 84 85  1  0  0  0
 84 86  1  0  0  0
 84165  1  0  0  0
 84166  1  0  0  0
 85 88  1  0  0  0
 85167  1  0  0  0
 85168  1  0  0  0
 86169  1  0  0  0
 86170  1  0  0  0
 87171  1  0  0  0
 88172  1  0  0  0
M  CHG  1  88   1
M  ISO  4   1 100  68 101  86 101  87 100
M  END
> <chiral flag>
0

> <version>
0

> <s_m_source_file>
/data/baiqing/PycharmProjects/Reinvent-master-3.2/result/LINK_invent/BTK/process_docking_weight1_custom_sum_contain_oxygen_bond_distance_aromatic_linkinvent_7_9_3/rearranged_h_0036.sdf

> <i_m_source_file_index>
60

> <r_mmod_Potential_Energy-OPLS-2005>
-214.231552124023

> <r_mmod_Stretch_Energy-OPLS-2005>
34.318546295166

> <r_mmod_Bend_Energy-OPLS-2005>
98.8319778442383

> <r_mmod_Torsional_Energy-OPLS-2005>
243.568283081055

> <r_mmod_Improper_Torsional_Energy-OPLS-2005>
1.95941770076752

> <r_mmod_Van_der_Waal_Energy-OPLS-2005>
164.115844726562

> <r_mmod_Electrostatic_Energy-OPLS-2005>
-315.237976074219

> <r_mmod_Solvation_Energy-OPLS-2005>
-449.644958496094

> <b_mmod_Minimization_Converged-OPLS-2005>
0

> <r_mmod_RMS_Derivative-OPLS-2005>
4.60716438293457

$$$$
61
                    3D
 Structure written by MMmdl.
178186  0  0  1  0            999 V2000
  -30.8013  -14.3340   20.7292 C   0  0  0  0  0  0
  -30.4108  -12.2749   19.4193 C   0  0  0  0  0  0
  -29.4932  -12.5496   18.2141 C   0  0  0  0  0  0
  -28.0130  -12.3938   18.6221 C   0  0  0  0  0  0
  -27.6730  -13.2007   19.9007 C   0  0  2  0  0  0
  -28.7093  -12.9285   21.0176 C   0  0  0  0  0  0
  -25.2599  -13.8121   20.5646 C   0  0  0  0  0  0
  -24.1845  -13.0367   20.9113 C   0  0  0  0  0  0
  -24.6461  -11.6860   20.8758 C   0  0  0  0  0  0
  -23.9132  -10.4245   21.0475 C   0  0  0  0  0  0
  -24.3661   -9.4138   21.9247 C   0  0  0  0  0  0
  -23.6297   -8.2203   22.0818 C   0  0  0  0  0  0
  -22.4288   -8.0266   21.3582 C   0  0  0  0  0  0
  -21.9944   -9.0260   20.4686 C   0  0  0  0  0  0
  -22.7311  -10.2114   20.3099 C   0  0  0  0  0  0
  -21.6870   -6.0722   22.5271 C   0  0  0  0  0  0
  -21.4042   -6.5637   23.8191 C   0  0  0  0  0  0
  -21.3653   -5.6786   24.9157 C   0  0  0  0  0  0
  -21.6040   -4.3055   24.7222 C   0  0  0  0  0  0
  -21.8822   -3.8135   23.4351 C   0  0  0  0  0  0
  -21.9184   -4.6957   22.3405 C   0  0  0  0  0  0
  -22.7869  -13.5178   21.1760 C   0  0  0  0  0  0
  -22.1643   -4.2138   21.0987 F   0  0  0  0  0  0
  -21.5631   -3.4548   25.7751 F   0  0  0  0  0  0
  -30.0535  -13.2236   20.4884 N   0  0  0  0  0  0
  -26.3094  -12.9319   20.3491 N   0  0  0  0  0  0
  -25.9415  -11.6475   20.5880 N   0  0  0  0  0  0
  -22.0558  -12.8181   22.0368 N   0  0  0  0  0  0
  -25.4135  -15.1824   20.4040 N   0  0  0  0  0  0
  -31.8042  -14.6036   20.0591 O   0  0  0  0  0  0
  -21.6643   -6.8881   21.4246 O   0  0  0  0  0  0
  -22.3515  -14.5494   20.6638 O   0  0  0  0  0  0
  -24.6066  -31.8701   23.2117 C   0  0  0  0  0  0
  -25.8992  -32.4824   23.8426 C   0  0  1  0  0  0
  -27.2312  -27.4787   20.0234 C   0  0  0  0  0  0
  -25.5886  -33.8664   24.2350 N   0  0  0  0  0  0
  -23.4009  -30.4833   21.5579 C   0  0  2  0  0  0
  -24.8410  -28.9692   20.1004 C   0  0  0  0  0  0
  -22.7373  -29.4599   22.5101 C   0  0  0  0  0  0
  -18.0246  -28.1409   22.8483 C   0  0  0  0  0  0
  -24.1485  -36.7323   23.2630 C   0  0  0  0  0  0
  -25.9267  -30.8264   21.3756 C   0  0  0  0  0  0
  -25.9991  -29.4668   20.7185 C   0  0  0  0  0  0
  -27.1894  -28.7142   20.7033 C   0  0  0  0  0  0
  -26.0853  -27.0473   19.3239 C   0  0  0  0  0  0
  -24.8764  -27.7489   19.4142 C   0  0  0  0  0  0
  -23.5965  -29.8128   20.1720 C   0  0  0  0  0  0
  -25.4128  -36.3159   24.0322 C   0  0  1  0  0  0
  -20.5809  -28.3567   23.1343 C   0  0  2  0  0  0
  -20.6611  -26.9229   22.5649 C   0  0  0  0  0  0
  -19.5842  -26.6362   21.5210 C   0  0  0  0  0  0
  -18.1881  -26.8088   22.1327 C   0  0  0  0  0  0
  -19.1524  -28.8783   23.2953 C   0  0  0  0  0  0
  -18.9484  -30.1340   23.9093 C   0  0  0  0  0  0
  -17.6519  -30.6585   24.0639 C   0  0  0  0  0  0
  -25.9060  -34.9490   23.5148 C   0  0  0  0  0  0
  -16.5372  -29.9125   23.6420 C   0  0  0  0  0  0
  -16.7266  -28.6531   23.0475 C   0  0  0  0  0  0
  -26.4421  -31.6605   25.0775 C   0  0  0  0  0  0
  -25.3639  -31.3786   26.1502 C   0  0  0  0  0  0
  -27.0281  -30.3048   24.6211 C   0  0  0  0  0  0
  -27.6085  -32.4274   25.7505 C   0  0  0  0  0  0
  -27.5603  -37.1809   24.8469 C   0  0  0  0  0  0
  -21.4108  -29.2878   22.3716 N   0  0  0  0  0  0
  -26.4339  -37.3821   23.9387 N   0  0  0  0  0  0
  -24.6642  -31.0773   22.1040 N   0  0  0  0  0  0
  -23.4090  -28.8216   23.3249 O   0  0  0  0  0  0
  -28.3831  -26.7322   20.0495 O   0  0  0  0  0  0
  -26.5606  -34.8900   22.4694 O   0  0  0  0  0  0
  -23.5234  -32.1498   23.7441 O   0  0  0  0  0  0
  -27.2952  -22.0596   21.4903 C   0  0  0  0  0  0
  -28.2276  -23.2802   21.5916 C   0  0  0  0  0  0
  -25.1108  -24.1719   20.5281 C   0  0  0  0  0  0
  -26.3669  -21.9877   20.2559 C   0  0  2  0  0  0
  -27.6411  -24.6838   21.2948 C   0  0  2  0  0  0
  -24.9848  -22.6395   20.5127 C   0  0  1  0  0  0
  -26.1022  -24.8235   21.5348 C   0  0  2  0  0  0
  -22.6585  -22.2709   21.6215 C   0  0  0  0  0  0
  -30.4553  -15.3100   21.8717 C   0  0  0  0  0  0
  -26.2320  -20.5344   19.7667 C   0  0  0  0  0  0
  -24.1786  -22.0760   21.7201 C   0  0  0  0  0  0
  -28.2471  -25.3054   19.9989 C   0  0  0  0  0  0
  -30.3608  -16.7734   21.4013 C   0  0  0  0  0  0
  -27.4258  -20.0977   18.8905 C   0  0  0  0  0  0
  -29.2663  -16.9865   20.3485 C   0  0  0  0  0  0
  -27.8171  -18.6297   19.0923 C   0  0  0  0  0  0
  -28.9881  -18.4659   20.0755 C   0  0  0  0  0  0
  -25.8257  -24.4662   22.7859 F   0  0  0  0  0  0
  -31.4633  -12.3259   19.1326 H   0  0  0  0  0  0
  -30.2627  -11.2500   19.7648 H   0  0  0  0  0  0
  -29.7355  -11.8813   17.3879 H   0  0  0  0  0  0
  -29.6723  -13.5630   17.8507 H   0  0  0  0  0  0
  -27.8057  -11.3337   18.7819 H   0  0  0  0  0  0
  -27.3598  -12.7041   17.8080 H   0  0  0  0  0  0
  -27.7347  -14.2562   19.6357 H   0  0  0  0  0  0
  -28.6801  -11.8814   21.3233 H   0  0  0  0  0  0
  -28.4350  -13.4719   21.9179 H   0  0  0  0  0  0
  -25.2834   -9.5567   22.4803 H   0  0  0  0  0  0
  -23.9959   -7.4602   22.7574 H   0  0  0  0  0  0
  -21.0851   -8.8788   19.9024 H   0  0  0  0  0  0
  -22.3806  -10.9643   19.6161 H   0  0  0  0  0  0
  -21.2093   -7.6142   23.9707 H   0  0  0  0  0  0
  -21.1469   -6.0525   25.9050 H   0  0  0  0  0  0
  -22.0642   -2.7612   23.2851 H   0  0  0  0  0  0
  -22.4190  -11.9725   22.4502 H   0  0  0  0  0  0
  -21.1260  -13.1279   22.2831 H   0  0  0  0  0  0
  -24.6240  -15.8044   20.5348 H   0  0  0  0  0  0
  -26.2500  -15.6614   20.0994 H   0  0  0  0  0  0
  -26.7085  -32.5518   23.1205 H   0  0  0  0  0  0
  -24.9941  -33.9925   25.0417 H   0  0  0  0  0  0
  -22.6905  -31.2956   21.4114 H   0  0  0  0  0  0
  -23.3758  -35.9650   23.3300 H   0  0  0  0  0  0
  -24.3591  -36.8957   22.2052 H   0  0  0  0  0  0
  -23.7128  -37.6489   23.6621 H   0  0  0  0  0  0
  -26.0428  -31.5917   20.6042 H   0  0  0  0  0  0
  -26.8161  -30.8774   21.9915 H   0  0  0  0  0  0
  -28.0715  -29.0722   21.2157 H   0  0  0  0  0  0
  -26.1194  -26.1900   18.6683 H   0  0  0  0  0  0
  -24.0035  -27.3737   18.8949 H   0  0  0  0  0  0
  -23.6615  -30.5723   19.3905 H   0  0  0  0  0  0
  -22.7304  -29.1957   19.9140 H   0  0  0  0  0  0
  -25.1275  -36.2112   25.0815 H   0  0  0  0  0  0
  -20.9866  -28.3098   24.1461 H   0  0  0  0  0  0
  -20.4942  -26.2285   23.3898 H   0  0  0  0  0  0
  -21.6559  -26.6911   22.1831 H   0  0  0  0  0  0
  -19.6957  -25.6204   21.1371 H   0  0  0  0  0  0
  -19.7218  -27.3085   20.6733 H   0  0  0  0  0  0
  -17.4366  -26.7189   21.3474 H   0  0  0  0  0  0
  -17.9902  -26.0095   22.8472 H   0  0  0  0  0  0
  -19.7992  -30.7011   24.2653 H   0  0  0  0  0  0
  -17.5141  -31.6310   24.5148 H   0  0  0  0  0  0
  -15.5400  -30.3081   23.7796 H   0  0  0  0  0  0
  -15.8642  -28.0878   22.7260 H   0  0  0  0  0  0
  -24.5867  -30.7088   25.7784 H   0  0  0  0  0  0
  -24.8745  -32.2988   26.4764 H   0  0  0  0  0  0
  -25.7919  -30.9040   27.0351 H   0  0  0  0  0  0
  -26.2899  -29.6846   24.1122 H   0  0  0  0  0  0
  -27.3902  -29.7263   25.4722 H   0  0  0  0  0  0
  -27.8744  -30.4388   23.9464 H   0  0  0  0  0  0
  -27.2824  -33.3611   26.2096 H   0  0  0  0  0  0
  -28.3858  -32.6773   25.0263 H   0  0  0  0  0  0
  -28.0762  -31.8355   26.5397 H   0  0  0  0  0  0
  -28.2639  -38.0103   24.7569 H   0  0  0  0  0  0
  -28.1098  -36.2642   24.6272 H   0  0  0  0  0  0
  -27.2307  -37.1399   25.8873 H   0  0  0  0  0  0
  -20.9280  -29.8688   21.6987 H   0  0  0  0  0  0
  -26.0260  -38.2904   24.1441 H   0  0  0  0  0  0
  -26.7106  -21.9813   22.4039 H   0  0  0  0  0  0
  -27.9374  -21.1796   21.5221 H   0  0  0  0  0  0
  -29.1108  -23.0987   20.9779 H   0  0  0  0  0  0
  -28.6082  -23.3020   22.6158 H   0  0  0  0  0  0
  -24.1189  -24.5977   20.6748 H   0  0  0  0  0  0
  -25.3735  -24.4653   19.5176 H   0  0  0  0  0  0
  -26.8300  -22.5338   19.4305 H   0  0  0  0  0  0
  -28.0825  -25.3128   22.0679 H   0  0  0  0  0  0
  -24.3925  -22.4106   19.6233 H   0  0  0  0  0  0
  -25.8557  -25.8811   21.5670 H   0  0  0  0  0  0
  -22.1513  -21.6404   22.3523 H   0  0  0  0  0  0
  -22.2793  -22.0076   20.6326 H   0  0  0  0  0  0
  -22.3767  -23.3019   21.8365 H   0  0  0  0  0  0
  -29.5526  -15.0672   22.4212 H   0  0  0  0  0  0
  -31.2525  -15.2387   22.6138 H   0  0  0  0  0  0
  -25.3272  -20.4040   19.1696 H   0  0  0  0  0  0
  -26.1001  -19.8832   20.6318 H   0  0  0  0  0  0
  -24.5128  -22.5377   22.6481 H   0  0  0  0  0  0
  -24.3689  -21.0080   21.8397 H   0  0  0  0  0  0
  -27.7843  -24.9363   19.0851 H   0  0  0  0  0  0
  -29.2854  -24.9819   19.9159 H   0  0  0  0  0  0
  -31.3233  -17.0993   21.0087 H   0  0  0  0  0  0
  -30.1640  -17.4078   22.2682 H   0  0  0  0  0  0
  -28.3007  -20.7268   19.0707 H   0  0  0  0  0  0
  -27.1561  -20.2702   17.8468 H   0  0  0  0  0  0
  -28.3465  -16.5112   20.6900 H   0  0  0  0  0  0
  -29.5429  -16.4876   19.4171 H   0  0  0  0  0  0
  -28.0991  -18.1833   18.1364 H   0  0  0  0  0  0
  -26.9424  -18.0745   19.4355 H   0  0  0  0  0  0
  -29.8924  -18.9335   19.6768 H   0  0  0  0  0  0
  -28.7688  -18.9745   21.0165 H   0  0  0  0  0  0
  1 25  1  0  0  0
  1 30  2  0  0  0
  1 79  1  0  0  0
  2  3  1  0  0  0
  2 25  1  0  0  0
  2 89  1  0  0  0
  2 90  1  0  0  0
  3  4  1  0  0  0
  3 91  1  0  0  0
  3 92  1  0  0  0
  4  5  1  0  0  0
  4 93  1  0  0  0
  4 94  1  0  0  0
  5  6  1  0  0  0
  5 26  1  0  0  0
  5 95  1  0  0  0
  6 25  1  0  0  0
  6 96  1  0  0  0
  6 97  1  0  0  0
  7  8  2  0  0  0
  7 26  1  0  0  0
  7 29  1  0  0  0
  8  9  1  0  0  0
  8 22  1  0  0  0
  9 10  1  0  0  0
  9 27  2  0  0  0
 10 11  2  0  0  0
 10 15  1  0  0  0
 11 12  1  0  0  0
 11 98  1  0  0  0
 12 13  2  0  0  0
 12 99  1  0  0  0
 13 14  1  0  0  0
 13 31  1  0  0  0
 14 15  2  0  0  0
 14100  1  0  0  0
 15101  1  0  0  0
 16 17  2  0  0  0
 16 21  1  0  0  0
 16 31  1  0  0  0
 17 18  1  0  0  0
 17102  1  0  0  0
 18 19  2  0  0  0
 18103  1  0  0  0
 19 20  1  0  0  0
 19 24  1  0  0  0
 20 21  2  0  0  0
 20104  1  0  0  0
 21 23  1  0  0  0
 22 28  1  0  0  0
 22 32  2  0  0  0
 26 27  1  0  0  0
 28105  1  0  0  0
 28106  1  0  0  0
 29107  1  0  0  0
 29108  1  0  0  0
 33 34  1  0  0  0
 33 66  1  0  0  0
 33 70  2  0  0  0
 34 36  1  0  0  0
 34 59  1  0  0  0
 34109  1  0  0  0
 35 44  2  0  0  0
 35 45  1  0  0  0
 35 68  1  0  0  0
 36 56  1  0  0  0
 36110  1  0  0  0
 37 39  1  0  0  0
 37 47  1  0  0  0
 37 66  1  0  0  0
 37111  1  0  0  0
 38 43  2  0  0  0
 38 46  1  0  0  0
 38 47  1  0  0  0
 39 64  1  0  0  0
 39 67  2  0  0  0
 40 52  1  0  0  0
 40 53  2  0  0  0
 40 58  1  0  0  0
 41112  1  0  0  0
 41113  1  0  0  0
 41114  1  0  0  0
 41 48  1  0  0  0
 42 43  1  0  0  0
 42 66  1  0  0  0
 42115  1  0  0  0
 42116  1  0  0  0
 43 44  1  0  0  0
 44117  1  0  0  0
 45 46  2  0  0  0
 45118  1  0  0  0
 46119  1  0  0  0
 47120  1  0  0  0
 47121  1  0  0  0
 48 56  1  0  0  0
 48 65  1  0  0  0
 48122  1  0  0  0
 49 50  1  0  0  0
 49 53  1  0  0  0
 49 64  1  0  0  0
 49123  1  0  0  0
 50 51  1  0  0  0
 50124  1  0  0  0
 50125  1  0  0  0
 51 52  1  0  0  0
 51126  1  0  0  0
 51127  1  0  0  0
 52128  1  0  0  0
 52129  1  0  0  0
 53 54  1  0  0  0
 54 55  2  0  0  0
 54130  1  0  0  0
 55 57  1  0  0  0
 55131  1  0  0  0
 56 69  2  0  0  0
 57 58  2  0  0  0
 57132  1  0  0  0
 58133  1  0  0  0
 59 60  1  0  0  0
 59 61  1  0  0  0
 59 62  1  0  0  0
 60134  1  0  0  0
 60135  1  0  0  0
 60136  1  0  0  0
 61137  1  0  0  0
 61138  1  0  0  0
 61139  1  0  0  0
 62140  1  0  0  0
 62141  1  0  0  0
 62142  1  0  0  0
 63 65  1  0  0  0
 63143  1  0  0  0
 63144  1  0  0  0
 63145  1  0  0  0
 64146  1  0  0  0
 65147  1  0  0  0
 68 82  1  0  0  0
 71 72  1  0  0  0
 71 74  1  0  0  0
 71148  1  0  0  0
 71149  1  0  0  0
 72 75  1  0  0  0
 72150  1  0  0  0
 72151  1  0  0  0
 73 76  1  0  0  0
 73 77  1  0  0  0
 73152  1  0  0  0
 73153  1  0  0  0
 74 76  1  0  0  0
 74 80  1  0  0  0
 74154  1  0  0  0
 75 77  1  0  0  0
 75 82  1  0  0  0
 75155  1  0  0  0
 76 81  1  0  0  0
 76156  1  0  0  0
 77 88  1  0  0  0
 77157  1  0  0  0
 78 81  1  0  0  0
 78158  1  0  0  0
 78159  1  0  0  0
 78160  1  0  0  0
 79 83  1  0  0  0
 79161  1  0  0  0
 79162  1  0  0  0
 80 84  1  0  0  0
 80163  1  0  0  0
 80164  1  0  0  0
 81165  1  0  0  0
 81166  1  0  0  0
 82167  1  0  0  0
 82168  1  0  0  0
 83 85  1  0  0  0
 83169  1  0  0  0
 83170  1  0  0  0
 84 86  1  0  0  0
 84171  1  0  0  0
 84172  1  0  0  0
 85 87  1  0  0  0
 85173  1  0  0  0
 85174  1  0  0  0
 86 87  1  0  0  0
 86175  1  0  0  0
 86176  1  0  0  0
 87177  1  0  0  0
 87178  1  0  0  0
M  ISO  4   1 100  68 101  79 100  82 101
M  END
> <chiral flag>
0

> <version>
0

> <s_m_source_file>
/data/baiqing/PycharmProjects/Reinvent-master-3.2/result/LINK_invent/BTK/process_docking_weight1_custom_sum_contain_oxygen_bond_distance_aromatic_linkinvent_7_9_3/rearranged_h_0036.sdf

> <i_m_source_file_index>
61

> <r_mmod_Potential_Energy-OPLS-2005>
120.924369812012

> <r_mmod_Stretch_Energy-OPLS-2005>
36.9456024169922

> <r_mmod_Bend_Energy-OPLS-2005>
138.307220458984

> <r_mmod_Torsional_Energy-OPLS-2005>
255.524810791016

> <r_mmod_Improper_Torsional_Energy-OPLS-2005>
1.71453392505646

> <r_mmod_Van_der_Waal_Energy-OPLS-2005>
143.283142089844

> <r_mmod_Electrostatic_Energy-OPLS-2005>
-305.254119873047

> <r_mmod_Solvation_Energy-OPLS-2005>
-164.8857421875

> <b_mmod_Minimization_Converged-OPLS-2005>
0

> <r_mmod_RMS_Derivative-OPLS-2005>
7.00812816619873

$$$$
62
                    3D
 Structure written by MMmdl.
150158  0  0  1  0            999 V2000
  -30.4275  -15.1299   20.3923 C   0  0  0  0  0  0
  -30.4573  -12.7013   19.5182 C   0  0  0  0  0  0
  -29.5404  -12.5684   18.2740 C   0  0  0  0  0  0
  -28.0768  -12.3155   18.6854 C   0  0  0  0  0  0
  -27.6272  -13.2563   19.8300 C   0  0  2  0  0  0
  -28.6654  -13.3354   20.9685 C   0  0  0  0  0  0
  -25.2461  -13.8207   20.5706 C   0  0  0  0  0  0
  -24.1785  -13.0428   20.9210 C   0  0  0  0  0  0
  -24.6408  -11.6911   20.8733 C   0  0  0  0  0  0
  -23.9093  -10.4284   21.0400 C   0  0  0  0  0  0
  -24.3644   -9.4198   21.9173 C   0  0  0  0  0  0
  -23.6307   -8.2241   22.0749 C   0  0  0  0  0  0
  -22.4281   -8.0283   21.3552 C   0  0  0  0  0  0
  -21.9927   -9.0246   20.4637 C   0  0  0  0  0  0
  -22.7266  -10.2119   20.3038 C   0  0  0  0  0  0
  -21.6861   -6.0733   22.5282 C   0  0  0  0  0  0
  -21.4018   -6.5637   23.8213 C   0  0  0  0  0  0
  -21.3659   -5.6795   24.9178 C   0  0  0  0  0  0
  -21.6047   -4.3059   24.7228 C   0  0  0  0  0  0
  -21.8823   -3.8140   23.4355 C   0  0  0  0  0  0
  -21.9194   -4.6956   22.3406 C   0  0  0  0  0  0
  -22.7804  -13.5189   21.1882 C   0  0  0  0  0  0
  -22.1668   -4.2135   21.0988 F   0  0  0  0  0  0
  -21.5627   -3.4547   25.7742 F   0  0  0  0  0  0
  -29.9299  -13.8074   20.3824 N   0  0  0  0  0  0
  -26.2885  -12.9451   20.3186 N   0  0  0  0  0  0
  -25.9343  -11.6573   20.5682 N   0  0  0  0  0  0
  -22.0487  -12.8143   22.0441 N   0  0  0  0  0  0
  -25.4133  -15.1943   20.4202 N   0  0  0  0  0  0
  -31.6272  -15.2248   20.0954 O   0  0  0  0  0  0
  -21.6647   -6.8878   21.4245 O   0  0  0  0  0  0
  -22.3468  -14.5501   20.6739 O   0  0  0  0  0  0
  -24.6540  -31.8317   23.1764 C   0  0  0  0  0  0
  -25.9266  -32.4626   23.8207 C   0  0  1  0  0  0
  -27.2377  -27.0269   20.1692 C   0  0  0  0  0  0
  -25.5971  -33.8435   24.2130 N   0  0  0  0  0  0
  -23.4661  -30.4446   21.5232 C   0  0  2  0  0  0
  -24.9215  -28.8453   20.1120 C   0  0  0  0  0  0
  -22.7626  -29.4481   22.4807 C   0  0  0  0  0  0
  -18.0314  -28.1417   22.8473 C   0  0  0  0  0  0
  -24.1495  -36.7225   23.2646 C   0  0  0  0  0  0
  -26.0278  -30.6699   21.3913 C   0  0  0  0  0  0
  -26.1017  -29.2686   20.7358 C   0  0  0  0  0  0
  -27.2565  -28.3792   20.7408 C   0  0  0  0  0  0
  -26.0283  -26.7291   19.5036 C   0  0  0  0  0  0
  -24.9043  -27.5927   19.4767 C   0  0  0  0  0  0
  -23.7012  -29.7610   20.1484 C   0  0  0  0  0  0
  -25.4131  -36.2987   24.0308 C   0  0  1  0  0  0
  -20.5935  -28.3751   23.1206 C   0  0  2  0  0  0
  -20.6793  -26.9439   22.5405 C   0  0  0  0  0  0
  -19.5764  -26.6386   21.5215 C   0  0  0  0  0  0
  -18.1948  -26.7950   22.1628 C   0  0  0  0  0  0
  -19.1576  -28.8901   23.2829 C   0  0  0  0  0  0
  -18.9486  -30.1492   23.8859 C   0  0  0  0  0  0
  -17.6478  -30.6604   24.0558 C   0  0  0  0  0  0
  -25.9087  -34.9366   23.5033 C   0  0  0  0  0  0
  -16.5368  -29.9094   23.6341 C   0  0  0  0  0  0
  -16.7293  -28.6516   23.0356 C   0  0  0  0  0  0
  -26.4555  -31.6530   25.0690 C   0  0  0  0  0  0
  -25.3721  -31.3744   26.1372 C   0  0  0  0  0  0
  -27.0433  -30.2908   24.6350 C   0  0  0  0  0  0
  -27.6061  -32.4316   25.7492 C   0  0  0  0  0  0
  -27.5575  -37.1768   24.8462 C   0  0  0  0  0  0
  -21.4304  -29.3048   22.3555 N   0  0  0  0  0  0
  -26.4281  -37.3717   23.9404 N   0  0  0  0  0  0
  -24.7364  -31.0070   22.0847 N   0  0  0  0  0  0
  -23.4209  -28.8049   23.3022 O   0  0  0  0  0  0
  -28.2830  -25.9934   20.2372 O   0  0  0  0  0  0
  -26.5688  -34.8884   22.4619 O   0  0  0  0  0  0
  -23.5632  -32.1249   23.6919 O   0  0  0  0  0  0
  -29.8273  -19.0437   19.3021 C   0  0  0  0  0  0
  -29.0985  -19.1717   21.4775 C   0  0  0  0  0  0
  -29.5682  -18.2373   20.4719 C   0  0  0  0  0  0
  -29.6572  -20.5113   19.2150 C   0  0  0  0  0  0
  -29.1597  -21.3616   20.2864 C   0  0  0  0  0  0
  -30.0658  -21.1732   17.9085 C   0  0  0  0  0  0
  -29.4654  -16.5289   20.6494 C   0  0  0  0  0  0
  -29.2062  -23.0820   20.3612 C   0  0  0  0  0  0
  -28.0743  -24.3965   20.1116 C   0  0  0  0  0  0
  -28.9235  -20.5746   21.4035 N   0  0  0  0  0  0
  -31.4830  -12.8961   19.2037 H   0  0  0  0  0  0
  -30.4944  -11.7631   20.0732 H   0  0  0  0  0  0
  -29.8933  -11.7669   17.6237 H   0  0  0  0  0  0
  -29.5975  -13.4847   17.6852 H   0  0  0  0  0  0
  -27.9966  -11.2781   19.0092 H   0  0  0  0  0  0
  -27.4161  -12.4195   17.8251 H   0  0  0  0  0  0
  -27.5701  -14.2454   19.3756 H   0  0  0  0  0  0
  -28.7875  -12.3684   21.4588 H   0  0  0  0  0  0
  -28.3289  -14.0311   21.7393 H   0  0  0  0  0  0
  -25.2798   -9.5666   22.4732 H   0  0  0  0  0  0
  -24.0014   -7.4631   22.7468 H   0  0  0  0  0  0
  -21.0857   -8.8758   19.8938 H   0  0  0  0  0  0
  -22.3725  -10.9652   19.6131 H   0  0  0  0  0  0
  -21.2018   -7.6143   23.9707 H   0  0  0  0  0  0
  -21.1483   -6.0531   25.9080 H   0  0  0  0  0  0
  -22.0601   -2.7600   23.2860 H   0  0  0  0  0  0
  -22.4155  -11.9815   22.4805 H   0  0  0  0  0  0
  -21.1089  -13.1103   22.2667 H   0  0  0  0  0  0
  -24.6453  -15.8467   20.5374 H   0  0  0  0  0  0
  -26.2636  -15.6411   20.1038 H   0  0  0  0  0  0
  -26.7330  -32.5204   23.0927 H   0  0  0  0  0  0
  -25.0077  -33.9521   25.0250 H   0  0  0  0  0  0
  -22.7742  -31.2727   21.3567 H   0  0  0  0  0  0
  -23.3763  -35.9550   23.3280 H   0  0  0  0  0  0
  -24.3577  -36.8892   22.2067 H   0  0  0  0  0  0
  -23.7247  -37.6404   23.6712 H   0  0  0  0  0  0
  -26.1954  -31.4158   20.6140 H   0  0  0  0  0  0
  -26.8929  -30.7274   22.0403 H   0  0  0  0  0  0
  -28.1534  -28.7051   21.2488 H   0  0  0  0  0  0
  -25.9258  -25.7708   19.0160 H   0  0  0  0  0  0
  -24.0069  -27.2619   18.9713 H   0  0  0  0  0  0
  -23.8478  -30.5305   19.3894 H   0  0  0  0  0  0
  -22.8139  -29.2079   19.8345 H   0  0  0  0  0  0
  -25.1323  -36.1799   25.0799 H   0  0  0  0  0  0
  -21.0023  -28.3363   24.1330 H   0  0  0  0  0  0
  -20.5684  -26.2364   23.3645 H   0  0  0  0  0  0
  -21.6658  -26.7427   22.1210 H   0  0  0  0  0  0
  -19.6924  -25.6289   21.1270 H   0  0  0  0  0  0
  -19.6708  -27.3177   20.6732 H   0  0  0  0  0  0
  -17.4217  -26.6692   21.4032 H   0  0  0  0  0  0
  -18.0343  -26.0107   22.9039 H   0  0  0  0  0  0
  -19.7958  -30.7324   24.2216 H   0  0  0  0  0  0
  -17.5026  -31.6273   24.5180 H   0  0  0  0  0  0
  -15.5369  -30.2981   23.7681 H   0  0  0  0  0  0
  -15.8695  -28.0816   22.7089 H   0  0  0  0  0  0
  -24.5898  -30.7099   25.7685 H   0  0  0  0  0  0
  -24.8918  -32.2931   26.4743 H   0  0  0  0  0  0
  -25.7994  -30.8943   27.0185 H   0  0  0  0  0  0
  -26.3070  -29.6605   24.1350 H   0  0  0  0  0  0
  -27.3985  -29.7244   25.4970 H   0  0  0  0  0  0
  -27.9007  -30.4101   23.9728 H   0  0  0  0  0  0
  -27.2636  -33.3643   26.1995 H   0  0  0  0  0  0
  -28.3924  -32.6841   25.0362 H   0  0  0  0  0  0
  -28.0679  -31.8490   26.5478 H   0  0  0  0  0  0
  -28.2563  -38.0089   24.7508 H   0  0  0  0  0  0
  -28.1097  -36.2610   24.6292 H   0  0  0  0  0  0
  -27.2284  -37.1412   25.8862 H   0  0  0  0  0  0
  -20.9544  -29.8745   21.6702 H   0  0  0  0  0  0
  -26.0136  -38.2774   24.1421 H   0  0  0  0  0  0
  -30.1564  -18.5207   18.4147 H   0  0  0  0  0  0
  -28.7935  -18.7605   22.4287 H   0  0  0  0  0  0
  -29.9336  -20.4982   17.0620 H   0  0  0  0  0  0
  -31.1165  -21.4648   17.9436 H   0  0  0  0  0  0
  -29.4702  -22.0649   17.7074 H   0  0  0  0  0  0
  -28.5667  -16.2963   20.0794 H   0  0  0  0  0  0
  -29.1501  -16.4062   21.6855 H   0  0  0  0  0  0
  -30.0482  -23.3367   19.7176 H   0  0  0  0  0  0
  -29.6017  -23.2668   21.3596 H   0  0  0  0  0  0
  -27.2250  -24.1810   20.7598 H   0  0  0  0  0  0
  -27.6951  -24.2493   19.1001 H   0  0  0  0  0  0
  1 25  1  0  0  0
  1 30  2  0  0  0
  1 77  1  0  0  0
  2  3  1  0  0  0
  2 25  1  0  0  0
  2 81  1  0  0  0
  2 82  1  0  0  0
  3  4  1  0  0  0
  3 83  1  0  0  0
  3 84  1  0  0  0
  4  5  1  0  0  0
  4 85  1  0  0  0
  4 86  1  0  0  0
  5  6  1  0  0  0
  5 26  1  0  0  0
  5 87  1  0  0  0
  6 25  1  0  0  0
  6 88  1  0  0  0
  6 89  1  0  0  0
  7  8  2  0  0  0
  7 26  1  0  0  0
  7 29  1  0  0  0
  8  9  1  0  0  0
  8 22  1  0  0  0
  9 10  1  0  0  0
  9 27  2  0  0  0
 10 11  2  0  0  0
 10 15  1  0  0  0
 11 12  1  0  0  0
 11 90  1  0  0  0
 12 13  2  0  0  0
 12 91  1  0  0  0
 13 14  1  0  0  0
 13 31  1  0  0  0
 14 15  2  0  0  0
 14 92  1  0  0  0
 15 93  1  0  0  0
 16 17  2  0  0  0
 16 21  1  0  0  0
 16 31  1  0  0  0
 17 18  1  0  0  0
 17 94  1  0  0  0
 18 19  2  0  0  0
 18 95  1  0  0  0
 19 20  1  0  0  0
 19 24  1  0  0  0
 20 21  2  0  0  0
 20 96  1  0  0  0
 21 23  1  0  0  0
 22 28  1  0  0  0
 22 32  2  0  0  0
 26 27  1  0  0  0
 28 97  1  0  0  0
 28 98  1  0  0  0
 29 99  1  0  0  0
 29100  1  0  0  0
 33 34  1  0  0  0
 33 66  1  0  0  0
 33 70  2  0  0  0
 34 36  1  0  0  0
 34 59  1  0  0  0
 34101  1  0  0  0
 35 44  2  0  0  0
 35 45  1  0  0  0
 35 68  1  0  0  0
 36 56  1  0  0  0
 36102  1  0  0  0
 37 39  1  0  0  0
 37 47  1  0  0  0
 37 66  1  0  0  0
 37103  1  0  0  0
 38 43  2  0  0  0
 38 46  1  0  0  0
 38 47  1  0  0  0
 39 64  1  0  0  0
 39 67  2  0  0  0
 40 52  1  0  0  0
 40 53  2  0  0  0
 40 58  1  0  0  0
 41104  1  0  0  0
 41105  1  0  0  0
 41106  1  0  0  0
 41 48  1  0  0  0
 42 43  1  0  0  0
 42 66  1  0  0  0
 42107  1  0  0  0
 42108  1  0  0  0
 43 44  1  0  0  0
 44109  1  0  0  0
 45 46  2  0  0  0
 45110  1  0  0  0
 46111  1  0  0  0
 47112  1  0  0  0
 47113  1  0  0  0
 48 56  1  0  0  0
 48 65  1  0  0  0
 48114  1  0  0  0
 49 50  1  0  0  0
 49 53  1  0  0  0
 49 64  1  0  0  0
 49115  1  0  0  0
 50 51  1  0  0  0
 50116  1  0  0  0
 50117  1  0  0  0
 51 52  1  0  0  0
 51118  1  0  0  0
 51119  1  0  0  0
 52120  1  0  0  0
 52121  1  0  0  0
 53 54  1  0  0  0
 54 55  2  0  0  0
 54122  1  0  0  0
 55 57  1  0  0  0
 55123  1  0  0  0
 56 69  2  0  0  0
 57 58  2  0  0  0
 57124  1  0  0  0
 58125  1  0  0  0
 59 60  1  0  0  0
 59 61  1  0  0  0
 59 62  1  0  0  0
 60126  1  0  0  0
 60127  1  0  0  0
 60128  1  0  0  0
 61129  1  0  0  0
 61130  1  0  0  0
 61131  1  0  0  0
 62132  1  0  0  0
 62133  1  0  0  0
 62134  1  0  0  0
 63 65  1  0  0  0
 63135  1  0  0  0
 63136  1  0  0  0
 63137  1  0  0  0
 64138  1  0  0  0
 65139  1  0  0  0
 68 79  1  0  0  0
 71 73  2  0  0  0
 71 74  1  0  0  0
 71140  1  0  0  0
 72 73  1  0  0  0
 72 80  2  0  0  0
 72141  1  0  0  0
 73 77  1  0  0  0
 74 75  2  0  0  0
 74 76  1  0  0  0
 75 78  1  0  0  0
 75 80  1  0  0  0
 76142  1  0  0  0
 76143  1  0  0  0
 76144  1  0  0  0
 77145  1  0  0  0
 77146  1  0  0  0
 78 79  1  0  0  0
 78147  1  0  0  0
 78148  1  0  0  0
 79149  1  0  0  0
 79150  1  0  0  0
M  ISO  4   1 100  68 101  77 100  79 101
M  END
> <chiral flag>
0

> <version>
0

> <s_m_source_file>
/data/baiqing/PycharmProjects/Reinvent-master-3.2/result/LINK_invent/BTK/process_docking_weight1_custom_sum_contain_oxygen_bond_distance_aromatic_linkinvent_7_9_3/rearranged_h_0036.sdf

> <i_m_source_file_index>
62

> <r_mmod_Potential_Energy-OPLS-2005>
761.481140136719

> <r_mmod_Stretch_Energy-OPLS-2005>
413.670043945312

> <r_mmod_Bend_Energy-OPLS-2005>
397.056793212891

> <r_mmod_Torsional_Energy-OPLS-2005>
179.521286010742

> <r_mmod_Improper_Torsional_Energy-OPLS-2005>
6.5554256439209

> <r_mmod_Van_der_Waal_Energy-OPLS-2005>
127.855270385742

> <r_mmod_Electrostatic_Energy-OPLS-2005>
-463.700408935547

> <r_mmod_Solvation_Energy-OPLS-2005>
-223.059356689453

> <b_mmod_Minimization_Converged-OPLS-2005>
0

> <r_mmod_RMS_Derivative-OPLS-2005>
1.63132476806641

$$$$
63
                    3D
 Structure written by MMmdl.
169177  0  0  1  0            999 V2000
  -30.6698  -14.5325   20.5259 C   0  0  0  0  0  0
  -30.4265  -12.3278   19.4460 C   0  0  0  0  0  0
  -29.5035  -12.4993   18.2201 C   0  0  0  0  0  0
  -28.0237  -12.3541   18.6277 C   0  0  0  0  0  0
  -27.6586  -13.2095   19.8715 C   0  0  2  0  0  0
  -28.6993  -13.0258   21.0008 C   0  0  0  0  0  0
  -25.2572  -13.8162   20.5671 C   0  0  0  0  0  0
  -24.1824  -13.0441   20.9172 C   0  0  0  0  0  0
  -24.6374  -11.6905   20.8726 C   0  0  0  0  0  0
  -23.9044  -10.4293   21.0396 C   0  0  0  0  0  0
  -24.3601   -9.4215   21.9172 C   0  0  0  0  0  0
  -23.6284   -8.2247   22.0747 C   0  0  0  0  0  0
  -22.4270   -8.0274   21.3538 C   0  0  0  0  0  0
  -21.9897   -9.0243   20.4641 C   0  0  0  0  0  0
  -22.7216  -10.2127   20.3047 C   0  0  0  0  0  0
  -21.6852   -6.0727   22.5279 C   0  0  0  0  0  0
  -21.4011   -6.5632   23.8211 C   0  0  0  0  0  0
  -21.3663   -5.6789   24.9175 C   0  0  0  0  0  0
  -21.6048   -4.3049   24.7232 C   0  0  0  0  0  0
  -21.8820   -3.8140   23.4351 C   0  0  0  0  0  0
  -21.9190   -4.6956   22.3406 C   0  0  0  0  0  0
  -22.7849  -13.5240   21.1846 C   0  0  0  0  0  0
  -22.1661   -4.2139   21.0983 F   0  0  0  0  0  0
  -21.5634   -3.4537   25.7744 F   0  0  0  0  0  0
  -30.0274  -13.3322   20.4470 N   0  0  0  0  0  0
  -26.3002  -12.9333   20.3341 N   0  0  0  0  0  0
  -25.9305  -11.6495   20.5761 N   0  0  0  0  0  0
  -22.0488  -12.8232   22.0402 N   0  0  0  0  0  0
  -25.4303  -15.1880   20.4083 N   0  0  0  0  0  0
  -31.8145  -14.6978   20.0972 O   0  0  0  0  0  0
  -21.6638   -6.8868   21.4237 O   0  0  0  0  0  0
  -22.3541  -14.5553   20.6706 O   0  0  0  0  0  0
  -24.6204  -31.8652   23.2084 C   0  0  0  0  0  0
  -25.9077  -32.4799   23.8394 C   0  0  1  0  0  0
  -27.2243  -27.3819   20.1024 C   0  0  0  0  0  0
  -25.5913  -33.8596   24.2318 N   0  0  0  0  0  0
  -23.4095  -30.4906   21.5503 C   0  0  2  0  0  0
  -24.8537  -28.9570   20.1081 C   0  0  0  0  0  0
  -22.7440  -29.4647   22.4971 C   0  0  0  0  0  0
  -18.0275  -28.1377   22.8482 C   0  0  0  0  0  0
  -24.1483  -36.7308   23.2639 C   0  0  0  0  0  0
  -25.9445  -30.8147   21.3704 C   0  0  0  0  0  0
  -26.0175  -29.4478   20.7122 C   0  0  0  0  0  0
  -27.2040  -28.6687   20.7048 C   0  0  0  0  0  0
  -26.0420  -26.9339   19.4663 C   0  0  0  0  0  0
  -24.8641  -27.7029   19.4793 C   0  0  0  0  0  0
  -23.6182  -29.8294   20.1626 C   0  0  0  0  0  0
  -25.4105  -36.3094   24.0335 C   0  0  1  0  0  0
  -20.5871  -28.3671   23.1303 C   0  0  2  0  0  0
  -20.6760  -26.9399   22.5419 C   0  0  0  0  0  0
  -19.5735  -26.6381   21.5217 C   0  0  0  0  0  0
  -18.1914  -26.7918   22.1626 C   0  0  0  0  0  0
  -19.1527  -28.8841   23.2885 C   0  0  0  0  0  0
  -18.9450  -30.1447   23.8893 C   0  0  0  0  0  0
  -17.6452  -30.6578   24.0563 C   0  0  0  0  0  0
  -25.9043  -34.9458   23.5127 C   0  0  0  0  0  0
  -16.5342  -29.9080   23.6324 C   0  0  0  0  0  0
  -16.7265  -28.6504   23.0337 C   0  0  0  0  0  0
  -26.4484  -31.6589   25.0739 C   0  0  0  0  0  0
  -25.3733  -31.3701   26.1478 C   0  0  0  0  0  0
  -27.0328  -30.3018   24.6155 C   0  0  0  0  0  0
  -27.6056  -32.4319   25.7494 C   0  0  0  0  0  0
  -27.5574  -37.1808   24.8464 C   0  0  0  0  0  0
  -21.4164  -29.3034   22.3709 N   0  0  0  0  0  0
  -26.4284  -37.3783   23.9413 N   0  0  0  0  0  0
  -24.6764  -31.0720   22.1004 N   0  0  0  0  0  0
  -23.4196  -28.8184   23.3023 O   0  0  0  0  0  0
  -28.3746  -26.5993   20.1583 O   0  0  0  0  0  0
  -26.5607  -34.8917   22.4690 O   0  0  0  0  0  0
  -23.5387  -32.1437   23.7446 O   0  0  0  0  0  0
  -30.3293  -20.4089   23.3660 C   0  0  0  0  0  0
  -30.2597  -21.5985   24.0394 C   0  0  0  0  0  0
  -29.6307  -21.9522   21.9164 C   0  0  0  0  0  0
  -33.8583  -21.7426   27.5876 C   0  0  0  0  0  0
  -30.5698  -21.9566   25.4583 C   0  0  0  0  0  0
  -29.1200  -22.7532   20.7239 C   0  0  0  0  0  0
  -32.3998  -22.0629   27.2401 C   0  0  0  0  0  0
  -32.0289  -21.6319   25.8129 C   0  0  0  0  0  0
  -29.1918  -24.3223   20.8824 C   0  0  0  0  0  0
  -29.8969  -18.0908   21.5124 C   0  0  0  0  0  0
  -29.8987  -19.5822   20.9980 C   0  0  0  0  0  0
  -30.0817  -16.9955   20.4191 C   0  0  0  0  0  0
  -28.2632  -25.1599   19.9548 C   0  0  0  0  0  0
  -29.9289  -20.6284   22.0656 N   0  0  0  0  0  0
  -29.8200  -22.5078   23.1204 N   0  3  0  0  0  0
  -29.8977  -15.5907   20.8757 N   0  0  0  0  0  0
  -31.4727  -12.4253   19.1492 H   0  0  0  0  0  0
  -30.3294  -11.3242   19.8633 H   0  0  0  0  0  0
  -29.7546  -11.7638   17.4546 H   0  0  0  0  0  0
  -29.6673  -13.4794   17.7688 H   0  0  0  0  0  0
  -27.8418  -11.2994   18.8382 H   0  0  0  0  0  0
  -27.3753  -12.6113   17.7891 H   0  0  0  0  0  0
  -27.6922  -14.2516   19.5525 H   0  0  0  0  0  0
  -28.6819  -11.9997   21.3716 H   0  0  0  0  0  0
  -28.4594  -13.6541   21.8600 H   0  0  0  0  0  0
  -25.2745   -9.5700   22.4743 H   0  0  0  0  0  0
  -23.9997   -7.4645   22.7467 H   0  0  0  0  0  0
  -21.0830   -8.8755   19.8948 H   0  0  0  0  0  0
  -22.3667  -10.9660   19.6156 H   0  0  0  0  0  0
  -21.1999   -7.6140   23.9712 H   0  0  0  0  0  0
  -21.1487   -6.0519   25.9079 H   0  0  0  0  0  0
  -22.0594   -2.7600   23.2858 H   0  0  0  0  0  0
  -22.4099  -11.9893   22.4797 H   0  0  0  0  0  0
  -21.1100  -13.1248   22.2599 H   0  0  0  0  0  0
  -24.6630  -15.8432   20.5115 H   0  0  0  0  0  0
  -26.2824  -15.6247   20.0802 H   0  0  0  0  0  0
  -26.7152  -32.5495   23.1159 H   0  0  0  0  0  0
  -25.0035  -33.9753   25.0441 H   0  0  0  0  0  0
  -22.7000  -31.3089   21.4132 H   0  0  0  0  0  0
  -23.3734  -35.9651   23.3307 H   0  0  0  0  0  0
  -24.3575  -36.8925   22.2055 H   0  0  0  0  0  0
  -23.7260  -37.6524   23.6654 H   0  0  0  0  0  0
  -26.0673  -31.5827   20.6054 H   0  0  0  0  0  0
  -26.8292  -30.8639   21.9938 H   0  0  0  0  0  0
  -28.0982  -29.0386   21.1860 H   0  0  0  0  0  0
  -26.0018  -25.9872   18.9486 H   0  0  0  0  0  0
  -23.9725  -27.3275   18.9958 H   0  0  0  0  0  0
  -23.7288  -30.6094   19.4079 H   0  0  0  0  0  0
  -22.7393  -29.2552   19.8634 H   0  0  0  0  0  0
  -25.1282  -36.1951   25.0826 H   0  0  0  0  0  0
  -20.9955  -28.3237   24.1429 H   0  0  0  0  0  0
  -20.5672  -26.2277   23.3613 H   0  0  0  0  0  0
  -21.6628  -26.7441   22.1207 H   0  0  0  0  0  0
  -19.6899  -25.6300   21.1234 H   0  0  0  0  0  0
  -19.6667  -27.3195   20.6747 H   0  0  0  0  0  0
  -17.4187  -26.6660   21.4025 H   0  0  0  0  0  0
  -18.0306  -26.0061   22.9025 H   0  0  0  0  0  0
  -19.7933  -30.7255   24.2260 H   0  0  0  0  0  0
  -17.5014  -31.6259   24.5161 H   0  0  0  0  0  0
  -15.5344  -30.2980   23.7660 H   0  0  0  0  0  0
  -15.8662  -28.0837   22.7036 H   0  0  0  0  0  0
  -24.5903  -30.7050   25.7816 H   0  0  0  0  0  0
  -24.8919  -32.2853   26.4928 H   0  0  0  0  0  0
  -25.8074  -30.8869   27.0240 H   0  0  0  0  0  0
  -26.2892  -29.6764   24.1196 H   0  0  0  0  0  0
  -27.4065  -29.7269   25.4642 H   0  0  0  0  0  0
  -27.8739  -30.4319   23.9338 H   0  0  0  0  0  0
  -27.2673  -33.3612   26.2087 H   0  0  0  0  0  0
  -28.3845  -32.6896   25.0305 H   0  0  0  0  0  0
  -28.0744  -31.8439   26.5397 H   0  0  0  0  0  0
  -28.2597  -38.0100   24.7503 H   0  0  0  0  0  0
  -28.1067  -36.2631   24.6293 H   0  0  0  0  0  0
  -27.2291  -37.1465   25.8867 H   0  0  0  0  0  0
  -20.9334  -29.8781   21.6950 H   0  0  0  0  0  0
  -26.0167  -38.2860   24.1407 H   0  0  0  0  0  0
  -30.6367  -19.4437   23.7406 H   0  0  0  0  0  0
  -34.0944  -22.0532   28.6061 H   0  0  0  0  0  0
  -34.5458  -22.2571   26.9149 H   0  0  0  0  0  0
  -34.0569  -20.6727   27.5153 H   0  0  0  0  0  0
  -29.8881  -21.4147   26.1157 H   0  0  0  0  0  0
  -30.3762  -23.0185   25.6150 H   0  0  0  0  0  0
  -28.0885  -22.4322   20.5777 H   0  0  0  0  0  0
  -29.6858  -22.4261   19.8511 H   0  0  0  0  0  0
  -32.2295  -23.1347   27.3545 H   0  0  0  0  0  0
  -31.7432  -21.5677   27.9569 H   0  0  0  0  0  0
  -32.6903  -22.1310   25.1025 H   0  0  0  0  0  0
  -32.2034  -20.5611   25.6970 H   0  0  0  0  0  0
  -30.2254  -24.6513   20.7724 H   0  0  0  0  0  0
  -28.8973  -24.5965   21.8948 H   0  0  0  0  0  0
  -28.9690  -17.9119   22.0570 H   0  0  0  0  0  0
  -30.7082  -17.9418   22.2234 H   0  0  0  0  0  0
  -29.0212  -19.7643   20.3766 H   0  0  0  0  0  0
  -30.7717  -19.7544   20.3682 H   0  0  0  0  0  0
  -31.0621  -17.1253   19.9576 H   0  0  0  0  0  0
  -29.3585  -17.1697   19.6213 H   0  0  0  0  0  0
  -27.2566  -24.7993   20.1628 H   0  0  0  0  0  0
  -28.4728  -24.9356   18.9078 H   0  0  0  0  0  0
  -29.6565  -23.4878   23.3189 H   0  0  0  0  0  0
  -28.9808  -15.3489   21.2220 H   0  0  0  0  0  0
  1 25  1  0  0  0
  1 30  2  0  0  0
  1 86  1  0  0  0
  2  3  1  0  0  0
  2 25  1  0  0  0
  2 87  1  0  0  0
  2 88  1  0  0  0
  3  4  1  0  0  0
  3 89  1  0  0  0
  3 90  1  0  0  0
  4  5  1  0  0  0
  4 91  1  0  0  0
  4 92  1  0  0  0
  5  6  1  0  0  0
  5 26  1  0  0  0
  5 93  1  0  0  0
  6 25  1  0  0  0
  6 94  1  0  0  0
  6 95  1  0  0  0
  7  8  2  0  0  0
  7 26  1  0  0  0
  7 29  1  0  0  0
  8  9  1  0  0  0
  8 22  1  0  0  0
  9 10  1  0  0  0
  9 27  2  0  0  0
 10 11  2  0  0  0
 10 15  1  0  0  0
 11 12  1  0  0  0
 11 96  1  0  0  0
 12 13  2  0  0  0
 12 97  1  0  0  0
 13 14  1  0  0  0
 13 31  1  0  0  0
 14 15  2  0  0  0
 14 98  1  0  0  0
 15 99  1  0  0  0
 16 17  2  0  0  0
 16 21  1  0  0  0
 16 31  1  0  0  0
 17 18  1  0  0  0
 17100  1  0  0  0
 18 19  2  0  0  0
 18101  1  0  0  0
 19 20  1  0  0  0
 19 24  1  0  0  0
 20 21  2  0  0  0
 20102  1  0  0  0
 21 23  1  0  0  0
 22 28  1  0  0  0
 22 32  2  0  0  0
 26 27  1  0  0  0
 28103  1  0  0  0
 28104  1  0  0  0
 29105  1  0  0  0
 29106  1  0  0  0
 33 34  1  0  0  0
 33 66  1  0  0  0
 33 70  2  0  0  0
 34 36  1  0  0  0
 34 59  1  0  0  0
 34107  1  0  0  0
 35 44  2  0  0  0
 35 45  1  0  0  0
 35 68  1  0  0  0
 36 56  1  0  0  0
 36108  1  0  0  0
 37 39  1  0  0  0
 37 47  1  0  0  0
 37 66  1  0  0  0
 37109  1  0  0  0
 38 43  2  0  0  0
 38 46  1  0  0  0
 38 47  1  0  0  0
 39 64  1  0  0  0
 39 67  2  0  0  0
 40 52  1  0  0  0
 40 53  2  0  0  0
 40 58  1  0  0  0
 41110  1  0  0  0
 41111  1  0  0  0
 41112  1  0  0  0
 41 48  1  0  0  0
 42 43  1  0  0  0
 42 66  1  0  0  0
 42113  1  0  0  0
 42114  1  0  0  0
 43 44  1  0  0  0
 44115  1  0  0  0
 45 46  2  0  0  0
 45116  1  0  0  0
 46117  1  0  0  0
 47118  1  0  0  0
 47119  1  0  0  0
 48 56  1  0  0  0
 48 65  1  0  0  0
 48120  1  0  0  0
 49 50  1  0  0  0
 49 53  1  0  0  0
 49 64  1  0  0  0
 49121  1  0  0  0
 50 51  1  0  0  0
 50122  1  0  0  0
 50123  1  0  0  0
 51 52  1  0  0  0
 51124  1  0  0  0
 51125  1  0  0  0
 52126  1  0  0  0
 52127  1  0  0  0
 53 54  1  0  0  0
 54 55  2  0  0  0
 54128  1  0  0  0
 55 57  1  0  0  0
 55129  1  0  0  0
 56 69  2  0  0  0
 57 58  2  0  0  0
 57130  1  0  0  0
 58131  1  0  0  0
 59 60  1  0  0  0
 59 61  1  0  0  0
 59 62  1  0  0  0
 60132  1  0  0  0
 60133  1  0  0  0
 60134  1  0  0  0
 61135  1  0  0  0
 61136  1  0  0  0
 61137  1  0  0  0
 62138  1  0  0  0
 62139  1  0  0  0
 62140  1  0  0  0
 63 65  1  0  0  0
 63141  1  0  0  0
 63142  1  0  0  0
 63143  1  0  0  0
 64144  1  0  0  0
 65145  1  0  0  0
 68 83  1  0  0  0
 71 72  2  0  0  0
 71 84  1  0  0  0
 71146  1  0  0  0
 72 75  1  0  0  0
 72 85  1  0  0  0
 73 76  1  0  0  0
 73 84  1  0  0  0
 73 85  2  0  0  0
 74 77  1  0  0  0
 74147  1  0  0  0
 74148  1  0  0  0
 74149  1  0  0  0
 75 78  1  0  0  0
 75150  1  0  0  0
 75151  1  0  0  0
 76 79  1  0  0  0
 76152  1  0  0  0
 76153  1  0  0  0
 77 78  1  0  0  0
 77154  1  0  0  0
 77155  1  0  0  0
 78156  1  0  0  0
 78157  1  0  0  0
 79 83  1  0  0  0
 79158  1  0  0  0
 79159  1  0  0  0
 80 81  1  0  0  0
 80 82  1  0  0  0
 80160  1  0  0  0
 80161  1  0  0  0
 81 84  1  0  0  0
 81162  1  0  0  0
 81163  1  0  0  0
 82 86  1  0  0  0
 82164  1  0  0  0
 82165  1  0  0  0
 83166  1  0  0  0
 83167  1  0  0  0
 85168  1  0  0  0
 86169  1  0  0  0
M  CHG  1  85   1
M  ISO  4   1 100  68 101  83 101  86 100
M  END
> <chiral flag>
0

> <version>
0

> <s_m_source_file>
/data/baiqing/PycharmProjects/Reinvent-master-3.2/result/LINK_invent/BTK/process_docking_weight1_custom_sum_contain_oxygen_bond_distance_aromatic_linkinvent_7_9_3/rearranged_h_0036.sdf

> <i_m_source_file_index>
63

> <r_mmod_Potential_Energy-OPLS-2005>
-73.1637573242188

> <r_mmod_Stretch_Energy-OPLS-2005>
51.3973083496094

> <r_mmod_Bend_Energy-OPLS-2005>
110.031555175781

> <r_mmod_Torsional_Energy-OPLS-2005>
226.30290222168

> <r_mmod_Improper_Torsional_Energy-OPLS-2005>
6.72747325897217

> <r_mmod_Van_der_Waal_Energy-OPLS-2005>
130.048950195312

> <r_mmod_Electrostatic_Energy-OPLS-2005>
-206.398742675781

> <r_mmod_Solvation_Energy-OPLS-2005>
-415.155364990234

> <b_mmod_Minimization_Converged-OPLS-2005>
0

> <r_mmod_RMS_Derivative-OPLS-2005>
1.15045285224915

$$$$
64
                    3D
 Structure written by MMmdl.
159167  0  0  1  0            999 V2000
  -30.6704  -14.5352   20.5752 C   0  0  0  0  0  0
  -30.4230  -12.3570   19.4138 C   0  0  0  0  0  0
  -29.4914  -12.5325   18.1978 C   0  0  0  0  0  0
  -28.0124  -12.3818   18.6094 C   0  0  0  0  0  0
  -27.6523  -13.2168   19.8695 C   0  0  2  0  0  0
  -28.6991  -13.0107   20.9850 C   0  0  0  0  0  0
  -25.2539  -13.8178   20.5698 C   0  0  0  0  0  0
  -24.1807  -13.0438   20.9191 C   0  0  0  0  0  0
  -24.6383  -11.6914   20.8734 C   0  0  0  0  0  0
  -23.9056  -10.4298   21.0391 C   0  0  0  0  0  0
  -24.3606   -9.4229   21.9183 C   0  0  0  0  0  0
  -23.6285   -8.2262   22.0761 C   0  0  0  0  0  0
  -22.4275   -8.0290   21.3552 C   0  0  0  0  0  0
  -21.9894   -9.0257   20.4653 C   0  0  0  0  0  0
  -22.7221  -10.2138   20.3064 C   0  0  0  0  0  0
  -21.6861   -6.0735   22.5294 C   0  0  0  0  0  0
  -21.3996   -6.5639   23.8215 C   0  0  0  0  0  0
  -21.3667   -5.6800   24.9186 C   0  0  0  0  0  0
  -21.6061   -4.3065   24.7239 C   0  0  0  0  0  0
  -21.8817   -3.8150   23.4362 C   0  0  0  0  0  0
  -21.9182   -4.6962   22.3409 C   0  0  0  0  0  0
  -22.7836  -13.5225   21.1875 C   0  0  0  0  0  0
  -22.1662   -4.2147   21.0991 F   0  0  0  0  0  0
  -21.5636   -3.4552   25.7757 F   0  0  0  0  0  0
  -30.0159  -13.3485   20.4231 N   0  0  0  0  0  0
  -26.2978  -12.9359   20.3357 N   0  0  0  0  0  0
  -25.9300  -11.6506   20.5723 N   0  0  0  0  0  0
  -22.0482  -12.8191   22.0426 N   0  0  0  0  0  0
  -25.4214  -15.1903   20.4084 N   0  0  0  0  0  0
  -31.8137  -14.7123   20.1426 O   0  0  0  0  0  0
  -21.6653   -6.8882   21.4258 O   0  0  0  0  0  0
  -22.3513  -14.5540   20.6746 O   0  0  0  0  0  0
  -24.6186  -31.8626   23.2068 C   0  0  0  0  0  0
  -25.9072  -32.4795   23.8361 C   0  0  1  0  0  0
  -27.2197  -27.3622   20.1074 C   0  0  0  0  0  0
  -25.5928  -33.8603   24.2291 N   0  0  0  0  0  0
  -23.4080  -30.4879   21.5478 C   0  0  2  0  0  0
  -24.8532  -28.9498   20.1110 C   0  0  0  0  0  0
  -22.7402  -29.4658   22.4949 C   0  0  0  0  0  0
  -18.0266  -28.1432   22.8419 C   0  0  0  0  0  0
  -24.1497  -36.7303   23.2624 C   0  0  0  0  0  0
  -25.9439  -30.8072   21.3682 C   0  0  0  0  0  0
  -26.0197  -29.4365   20.7155 C   0  0  0  0  0  0
  -27.2041  -28.6506   20.7123 C   0  0  0  0  0  0
  -26.0326  -26.9255   19.4700 C   0  0  0  0  0  0
  -24.8597  -27.6975   19.4798 C   0  0  0  0  0  0
  -23.6193  -29.8244   20.1612 C   0  0  0  0  0  0
  -25.4115  -36.3072   24.0304 C   0  0  1  0  0  0
  -20.5849  -28.3716   23.1276 C   0  0  2  0  0  0
  -20.6789  -26.9457   22.5398 C   0  0  0  0  0  0
  -19.5797  -26.6413   21.5180 C   0  0  0  0  0  0
  -18.1951  -26.7970   22.1571 C   0  0  0  0  0  0
  -19.1512  -28.8889   23.2847 C   0  0  0  0  0  0
  -18.9458  -30.1485   23.8865 C   0  0  0  0  0  0
  -17.6464  -30.6625   24.0562 C   0  0  0  0  0  0
  -25.9044  -34.9452   23.5074 C   0  0  0  0  0  0
  -16.5350  -29.9122   23.6358 C   0  0  0  0  0  0
  -16.7248  -28.6571   23.0314 C   0  0  0  0  0  0
  -26.4513  -31.6586   25.0701 C   0  0  0  0  0  0
  -25.3796  -31.3664   26.1448 C   0  0  0  0  0  0
  -27.0332  -30.3015   24.6091 C   0  0  0  0  0  0
  -27.6071  -32.4303   25.7501 C   0  0  0  0  0  0
  -27.5567  -37.1801   24.8453 C   0  0  0  0  0  0
  -21.4134  -29.3058   22.3679 N   0  0  0  0  0  0
  -26.4275  -37.3770   23.9403 N   0  0  0  0  0  0
  -24.6757  -31.0674   22.0998 N   0  0  0  0  0  0
  -23.4153  -28.8185   23.3012 O   0  0  0  0  0  0
  -28.3485  -26.5412   20.1596 O   0  0  0  0  0  0
  -26.5597  -34.8905   22.4637 O   0  0  0  0  0  0
  -23.5370  -32.1411   23.7437 O   0  0  0  0  0  0
  -28.7558  -20.4358   20.9884 C   0  0  0  0  0  0
  -27.4989  -21.0851   21.1835 C   0  0  0  0  0  0
  -29.5865  -21.5065   20.6671 C   0  0  0  0  0  0
  -26.1840  -20.4676   21.5689 C   0  0  0  0  0  0
  -31.0448  -21.5826   20.3345 C   0  0  0  0  0  0
  -28.9046  -18.9010   21.2005 C   0  0  0  0  0  0
  -30.2591  -18.1740   20.9346 C   0  0  0  0  0  0
  -29.2264  -24.1225   20.5784 C   0  0  0  0  0  0
  -30.5089  -16.8135   21.6881 C   0  0  0  0  0  0
  -28.1171  -25.0995   20.0445 C   0  0  0  0  0  0
  -27.5510  -22.3959   21.0282 N   0  0  0  0  0  0
  -28.8260  -22.6875   20.7074 N   0  0  0  0  0  0
  -29.9625  -15.5464   21.1372 N   0  0  0  0  0  0
  -31.4665  -12.4696   19.1111 H   0  0  0  0  0  0
  -30.3359  -11.3488   19.8207 H   0  0  0  0  0  0
  -29.7407  -11.8134   17.4155 H   0  0  0  0  0  0
  -29.6479  -13.5210   17.7624 H   0  0  0  0  0  0
  -27.8224  -11.3236   18.7929 H   0  0  0  0  0  0
  -27.3667  -12.6695   17.7796 H   0  0  0  0  0  0
  -27.6874  -14.2663   19.5736 H   0  0  0  0  0  0
  -28.7000  -11.9705   21.3143 H   0  0  0  0  0  0
  -28.4549  -13.5973   21.8714 H   0  0  0  0  0  0
  -25.2747   -9.5718   22.4752 H   0  0  0  0  0  0
  -24.0027   -7.4652   22.7465 H   0  0  0  0  0  0
  -21.0841   -8.8740   19.8930 H   0  0  0  0  0  0
  -22.3663  -10.9669   19.6181 H   0  0  0  0  0  0
  -21.1979   -7.6144   23.9715 H   0  0  0  0  0  0
  -21.1492   -6.0537   25.9088 H   0  0  0  0  0  0
  -22.0577   -2.7609   23.2868 H   0  0  0  0  0  0
  -22.4053  -11.9831   22.4816 H   0  0  0  0  0  0
  -21.1100  -13.1216   22.2611 H   0  0  0  0  0  0
  -24.6499  -15.8411   20.5048 H   0  0  0  0  0  0
  -26.2690  -15.6311   20.0756 H   0  0  0  0  0  0
  -26.7131  -32.5470   23.1106 H   0  0  0  0  0  0
  -25.0149  -33.9809   25.0478 H   0  0  0  0  0  0
  -22.6966  -31.3038   21.4077 H   0  0  0  0  0  0
  -23.3741  -35.9651   23.3272 H   0  0  0  0  0  0
  -24.3582  -36.8952   22.2039 H   0  0  0  0  0  0
  -23.7287  -37.6506   23.6678 H   0  0  0  0  0  0
  -26.0537  -31.5650   20.5915 H   0  0  0  0  0  0
  -26.8324  -30.8711   21.9841 H   0  0  0  0  0  0
  -28.0946  -29.0110   21.2084 H   0  0  0  0  0  0
  -25.9861  -25.9718   18.9649 H   0  0  0  0  0  0
  -23.9647  -27.3176   19.0046 H   0  0  0  0  0  0
  -23.7372  -30.6027   19.4060 H   0  0  0  0  0  0
  -22.7383  -29.2535   19.8574 H   0  0  0  0  0  0
  -25.1313  -36.1889   25.0792 H   0  0  0  0  0  0
  -20.9930  -28.3319   24.1399 H   0  0  0  0  0  0
  -20.5740  -26.2318   23.3583 H   0  0  0  0  0  0
  -21.6663  -26.7561   22.1170 H   0  0  0  0  0  0
  -19.6998  -25.6312   21.1247 H   0  0  0  0  0  0
  -19.6785  -27.3185   20.6681 H   0  0  0  0  0  0
  -17.4229  -26.6635   21.3978 H   0  0  0  0  0  0
  -18.0407  -26.0158   22.9028 H   0  0  0  0  0  0
  -19.7935  -30.7311   24.2214 H   0  0  0  0  0  0
  -17.5035  -31.6300   24.5179 H   0  0  0  0  0  0
  -15.5364  -30.3040   23.7738 H   0  0  0  0  0  0
  -15.8628  -28.0936   22.7004 H   0  0  0  0  0  0
  -24.6007  -30.6970   25.7792 H   0  0  0  0  0  0
  -24.8951  -32.2799   26.4890 H   0  0  0  0  0  0
  -25.8187  -30.8851   27.0196 H   0  0  0  0  0  0
  -26.2849  -29.6766   24.1194 H   0  0  0  0  0  0
  -27.4138  -29.7272   25.4551 H   0  0  0  0  0  0
  -27.8694  -30.4306   23.9213 H   0  0  0  0  0  0
  -27.2684  -33.3608   26.2069 H   0  0  0  0  0  0
  -28.3930  -32.6835   25.0379 H   0  0  0  0  0  0
  -28.0685  -31.8411   26.5436 H   0  0  0  0  0  0
  -28.2550  -38.0126   24.7495 H   0  0  0  0  0  0
  -28.1099  -36.2644   24.6293 H   0  0  0  0  0  0
  -27.2277  -37.1467   25.8854 H   0  0  0  0  0  0
  -20.9304  -29.8740   21.6851 H   0  0  0  0  0  0
  -26.0134  -38.2820   24.1460 H   0  0  0  0  0  0
  -26.2682  -19.9350   22.5155 H   0  0  0  0  0  0
  -25.8460  -19.7502   20.8199 H   0  0  0  0  0  0
  -25.4002  -21.2179   21.6927 H   0  0  0  0  0  0
  -31.5781  -20.6629   20.5464 H   0  0  0  0  0  0
  -31.5331  -22.3668   20.9142 H   0  0  0  0  0  0
  -31.1897  -21.8024   19.2765 H   0  0  0  0  0  0
  -28.1423  -18.3786   20.6219 H   0  0  0  0  0  0
  -28.6329  -18.6870   22.2339 H   0  0  0  0  0  0
  -31.0331  -18.8207   21.3404 H   0  0  0  0  0  0
  -30.4632  -18.0931   19.8655 H   0  0  0  0  0  0
  -29.5477  -24.4492   21.5683 H   0  0  0  0  0  0
  -30.1063  -24.1917   19.9394 H   0  0  0  0  0  0
  -30.1440  -16.9019   22.7116 H   0  0  0  0  0  0
  -31.5882  -16.6985   21.8005 H   0  0  0  0  0  0
  -27.2046  -24.8780   20.5985 H   0  0  0  0  0  0
  -27.9274  -24.8518   18.9969 H   0  0  0  0  0  0
  -29.0127  -15.3149   21.3962 H   0  0  0  0  0  0
  1 25  1  0  0  0
  1 30  2  0  0  0
  1 83  1  0  0  0
  2  3  1  0  0  0
  2 25  1  0  0  0
  2 84  1  0  0  0
  2 85  1  0  0  0
  3  4  1  0  0  0
  3 86  1  0  0  0
  3 87  1  0  0  0
  4  5  1  0  0  0
  4 88  1  0  0  0
  4 89  1  0  0  0
  5  6  1  0  0  0
  5 26  1  0  0  0
  5 90  1  0  0  0
  6 25  1  0  0  0
  6 91  1  0  0  0
  6 92  1  0  0  0
  7  8  2  0  0  0
  7 26  1  0  0  0
  7 29  1  0  0  0
  8  9  1  0  0  0
  8 22  1  0  0  0
  9 10  1  0  0  0
  9 27  2  0  0  0
 10 11  2  0  0  0
 10 15  1  0  0  0
 11 12  1  0  0  0
 11 93  1  0  0  0
 12 13  2  0  0  0
 12 94  1  0  0  0
 13 14  1  0  0  0
 13 31  1  0  0  0
 14 15  2  0  0  0
 14 95  1  0  0  0
 15 96  1  0  0  0
 16 17  2  0  0  0
 16 21  1  0  0  0
 16 31  1  0  0  0
 17 18  1  0  0  0
 17 97  1  0  0  0
 18 19  2  0  0  0
 18 98  1  0  0  0
 19 20  1  0  0  0
 19 24  1  0  0  0
 20 21  2  0  0  0
 20 99  1  0  0  0
 21 23  1  0  0  0
 22 28  1  0  0  0
 22 32  2  0  0  0
 26 27  1  0  0  0
 28100  1  0  0  0
 28101  1  0  0  0
 29102  1  0  0  0
 29103  1  0  0  0
 33 34  1  0  0  0
 33 66  1  0  0  0
 33 70  2  0  0  0
 34 36  1  0  0  0
 34 59  1  0  0  0
 34104  1  0  0  0
 35 44  2  0  0  0
 35 45  1  0  0  0
 35 68  1  0  0  0
 36 56  1  0  0  0
 36105  1  0  0  0
 37 39  1  0  0  0
 37 47  1  0  0  0
 37 66  1  0  0  0
 37106  1  0  0  0
 38 43  2  0  0  0
 38 46  1  0  0  0
 38 47  1  0  0  0
 39 64  1  0  0  0
 39 67  2  0  0  0
 40 52  1  0  0  0
 40 53  2  0  0  0
 40 58  1  0  0  0
 41107  1  0  0  0
 41108  1  0  0  0
 41109  1  0  0  0
 41 48  1  0  0  0
 42 43  1  0  0  0
 42 66  1  0  0  0
 42110  1  0  0  0
 42111  1  0  0  0
 43 44  1  0  0  0
 44112  1  0  0  0
 45 46  2  0  0  0
 45113  1  0  0  0
 46114  1  0  0  0
 47115  1  0  0  0
 47116  1  0  0  0
 48 56  1  0  0  0
 48 65  1  0  0  0
 48117  1  0  0  0
 49 50  1  0  0  0
 49 53  1  0  0  0
 49 64  1  0  0  0
 49118  1  0  0  0
 50 51  1  0  0  0
 50119  1  0  0  0
 50120  1  0  0  0
 51 52  1  0  0  0
 51121  1  0  0  0
 51122  1  0  0  0
 52123  1  0  0  0
 52124  1  0  0  0
 53 54  1  0  0  0
 54 55  2  0  0  0
 54125  1  0  0  0
 55 57  1  0  0  0
 55126  1  0  0  0
 56 69  2  0  0  0
 57 58  2  0  0  0
 57127  1  0  0  0
 58128  1  0  0  0
 59 60  1  0  0  0
 59 61  1  0  0  0
 59 62  1  0  0  0
 60129  1  0  0  0
 60130  1  0  0  0
 60131  1  0  0  0
 61132  1  0  0  0
 61133  1  0  0  0
 61134  1  0  0  0
 62135  1  0  0  0
 62136  1  0  0  0
 62137  1  0  0  0
 63 65  1  0  0  0
 63138  1  0  0  0
 63139  1  0  0  0
 63140  1  0  0  0
 64141  1  0  0  0
 65142  1  0  0  0
 68 80  1  0  0  0
 71 72  1  0  0  0
 71 73  2  0  0  0
 71 76  1  0  0  0
 72 74  1  0  0  0
 72 81  2  0  0  0
 73 75  1  0  0  0
 73 82  1  0  0  0
 74143  1  0  0  0
 74144  1  0  0  0
 74145  1  0  0  0
 75146  1  0  0  0
 75147  1  0  0  0
 75148  1  0  0  0
 76 77  1  0  0  0
 76149  1  0  0  0
 76150  1  0  0  0
 77 79  1  0  0  0
 77151  1  0  0  0
 77152  1  0  0  0
 78 80  1  0  0  0
 78 82  1  0  0  0
 78153  1  0  0  0
 78154  1  0  0  0
 79 83  1  0  0  0
 79155  1  0  0  0
 79156  1  0  0  0
 80157  1  0  0  0
 80158  1  0  0  0
 81 82  1  0  0  0
 83159  1  0  0  0
M  ISO  4   1 100  68 101  80 101  83 100
M  END
> <chiral flag>
0

> <version>
0

> <s_m_source_file>
/data/baiqing/PycharmProjects/Reinvent-master-3.2/result/LINK_invent/BTK/process_docking_weight1_custom_sum_contain_oxygen_bond_distance_aromatic_linkinvent_7_9_3/rearranged_h_0036.sdf

> <i_m_source_file_index>
64

> <r_mmod_Potential_Energy-OPLS-2005>
-57.388298034668

> <r_mmod_Stretch_Energy-OPLS-2005>
55.8708648681641

> <r_mmod_Bend_Energy-OPLS-2005>
133.101791381836

> <r_mmod_Torsional_Energy-OPLS-2005>
214.82861328125

> <r_mmod_Improper_Torsional_Energy-OPLS-2005>
3.38206458091736

> <r_mmod_Van_der_Waal_Energy-OPLS-2005>
132.497009277344

> <r_mmod_Electrostatic_Energy-OPLS-2005>
-403.668884277344

> <r_mmod_Solvation_Energy-OPLS-2005>
-220.645126342773

> <b_mmod_Minimization_Converged-OPLS-2005>
0

> <r_mmod_RMS_Derivative-OPLS-2005>
3.4165256023407

$$$$
65
                    3D
 Structure written by MMmdl.
155163  0  0  1  0            999 V2000
  -30.5954  -14.8476   20.4318 C   0  0  0  0  0  0
  -30.4222  -12.5080   19.5055 C   0  0  0  0  0  0
  -29.5229  -12.5135   18.2498 C   0  0  0  0  0  0
  -28.0404  -12.3536   18.6402 C   0  0  0  0  0  0
  -27.6326  -13.2536   19.8394 C   0  0  2  0  0  0
  -28.6747  -13.2348   20.9792 C   0  0  0  0  0  0
  -25.2483  -13.8240   20.5719 C   0  0  0  0  0  0
  -24.1822  -13.0451   20.9230 C   0  0  0  0  0  0
  -24.6435  -11.6936   20.8734 C   0  0  0  0  0  0
  -23.9118  -10.4307   21.0364 C   0  0  0  0  0  0
  -24.3645   -9.4225   21.9156 C   0  0  0  0  0  0
  -23.6313   -8.2262   22.0734 C   0  0  0  0  0  0
  -22.4294   -8.0294   21.3527 C   0  0  0  0  0  0
  -21.9921   -9.0269   20.4636 C   0  0  0  0  0  0
  -22.7263  -10.2150   20.3045 C   0  0  0  0  0  0
  -21.6875   -6.0745   22.5282 C   0  0  0  0  0  0
  -21.4028   -6.5637   23.8231 C   0  0  0  0  0  0
  -21.3674   -5.6785   24.9185 C   0  0  0  0  0  0
  -21.6060   -4.3057   24.7226 C   0  0  0  0  0  0
  -21.8825   -3.8156   23.4343 C   0  0  0  0  0  0
  -21.9208   -4.6967   22.3400 C   0  0  0  0  0  0
  -22.7834  -13.5215   21.1873 C   0  0  0  0  0  0
  -22.1674   -4.2156   21.0970 F   0  0  0  0  0  0
  -21.5613   -3.4535   25.7738 F   0  0  0  0  0  0
  -29.9621  -13.6110   20.3893 N   0  0  0  0  0  0
  -26.2905  -12.9486   20.3225 N   0  0  0  0  0  0
  -25.9357  -11.6609   20.5692 N   0  0  0  0  0  0
  -22.0522  -12.8198   22.0441 N   0  0  0  0  0  0
  -25.4130  -15.1971   20.4143 N   0  0  0  0  0  0
  -31.7916  -14.8918   20.1337 O   0  0  0  0  0  0
  -21.6668   -6.8875   21.4239 O   0  0  0  0  0  0
  -22.3483  -14.5481   20.6688 O   0  0  0  0  0  0
  -24.6409  -31.8470   23.1949 C   0  0  0  0  0  0
  -25.9198  -32.4703   23.8294 C   0  0  1  0  0  0
  -27.2165  -27.1737   20.1504 C   0  0  0  0  0  0
  -25.5979  -33.8501   24.2220 N   0  0  0  0  0  0
  -23.4419  -30.4688   21.5381 C   0  0  2  0  0  0
  -24.8905  -28.9041   20.1129 C   0  0  0  0  0  0
  -22.7532  -29.4566   22.4884 C   0  0  0  0  0  0
  -18.0304  -28.1410   22.8484 C   0  0  0  0  0  0
  -24.1486  -36.7258   23.2643 C   0  0  0  0  0  0
  -25.9954  -30.7341   21.3886 C   0  0  0  0  0  0
  -26.0670  -29.3495   20.7290 C   0  0  0  0  0  0
  -27.2319  -28.5005   20.7292 C   0  0  0  0  0  0
  -26.0162  -26.8219   19.4938 C   0  0  0  0  0  0
  -24.8763  -27.6524   19.4802 C   0  0  0  0  0  0
  -23.6649  -29.8022   20.1565 C   0  0  0  0  0  0
  -25.4123  -36.3049   24.0312 C   0  0  1  0  0  0
  -20.5914  -28.3731   23.1249 C   0  0  2  0  0  0
  -20.6796  -26.9427   22.5421 C   0  0  0  0  0  0
  -19.5780  -26.6388   21.5218 C   0  0  0  0  0  0
  -18.1952  -26.7952   22.1620 C   0  0  0  0  0  0
  -19.1557  -28.8890   23.2864 C   0  0  0  0  0  0
  -18.9460  -30.1487   23.8886 C   0  0  0  0  0  0
  -17.6452  -30.6593   24.0572 C   0  0  0  0  0  0
  -25.9066  -34.9410   23.5068 C   0  0  0  0  0  0
  -16.5347  -29.9081   23.6359 C   0  0  0  0  0  0
  -16.7282  -28.6512   23.0362 C   0  0  0  0  0  0
  -26.4532  -31.6564   25.0715 C   0  0  0  0  0  0
  -25.3715  -31.3756   26.1415 C   0  0  0  0  0  0
  -27.0397  -30.2956   24.6299 C   0  0  0  0  0  0
  -27.6080  -32.4329   25.7485 C   0  0  0  0  0  0
  -27.5591  -37.1784   24.8457 C   0  0  0  0  0  0
  -21.4235  -29.3047   22.3610 N   0  0  0  0  0  0
  -26.4298  -37.3755   23.9405 N   0  0  0  0  0  0
  -24.7118  -31.0359   22.0963 N   0  0  0  0  0  0
  -23.4188  -28.8113   23.3024 O   0  0  0  0  0  0
  -28.2913  -26.2261   20.2035 O   0  0  0  0  0  0
  -26.5627  -34.8901   22.4630 O   0  0  0  0  0  0
  -23.5540  -32.1329   23.7197 O   0  0  0  0  0  0
  -29.5318  -19.7576   21.6125 C   0  0  0  0  0  0
  -29.4766  -19.7972   19.2661 C   0  0  0  0  0  0
  -29.7019  -18.9795   20.4207 C   0  0  0  0  0  0
  -29.2611  -21.1863   21.6056 C   0  0  0  0  0  0
  -29.1371  -21.9291   20.3786 C   0  0  0  0  0  0
  -30.4671  -22.1547   23.6791 C   0  0  0  0  0  0
  -29.1318  -21.9025   22.9503 C   0  0  0  0  0  0
  -30.4144  -17.4960   20.3466 C   0  0  0  0  0  0
  -29.2416  -23.5626   20.2391 C   0  0  0  0  0  0
  -28.0383  -24.7033   20.2844 C   0  0  0  0  0  0
  -29.2183  -21.1604   19.2439 N   0  0  0  0  0  0
  -29.8720  -16.0501   20.5837 N   0  0  0  0  0  0
  -31.4686  -12.6073   19.2218 H   0  0  0  0  0  0
  -30.3461  -11.5465   20.0163 H   0  0  0  0  0  0
  -29.8187  -11.7120   17.5720 H   0  0  0  0  0  0
  -29.6639  -13.4456   17.7009 H   0  0  0  0  0  0
  -27.8802  -11.3054   18.8915 H   0  0  0  0  0  0
  -27.4036  -12.5589   17.7805 H   0  0  0  0  0  0
  -27.6057  -14.2715   19.4500 H   0  0  0  0  0  0
  -28.7321  -12.2473   21.4384 H   0  0  0  0  0  0
  -28.3967  -13.9297   21.7730 H   0  0  0  0  0  0
  -25.2794   -9.5713   22.4739 H   0  0  0  0  0  0
  -24.0055   -7.4659   22.7435 H   0  0  0  0  0  0
  -21.0870   -8.8772   19.8918 H   0  0  0  0  0  0
  -22.3696  -10.9687   19.6178 H   0  0  0  0  0  0
  -21.2009   -7.6148   23.9730 H   0  0  0  0  0  0
  -21.1492   -6.0512   25.9091 H   0  0  0  0  0  0
  -22.0584   -2.7617   23.2853 H   0  0  0  0  0  0
  -22.4167  -11.9862   22.4805 H   0  0  0  0  0  0
  -21.1125  -13.1171   22.2643 H   0  0  0  0  0  0
  -24.6395  -15.8437   20.5173 H   0  0  0  0  0  0
  -26.2478  -15.6376   20.0489 H   0  0  0  0  0  0
  -26.7265  -32.5327   23.1026 H   0  0  0  0  0  0
  -25.0153  -33.9580   25.0386 H   0  0  0  0  0  0
  -22.7467  -31.2961   21.3878 H   0  0  0  0  0  0
  -23.3766  -35.9566   23.3279 H   0  0  0  0  0  0
  -24.3591  -36.8907   22.2058 H   0  0  0  0  0  0
  -23.7194  -37.6433   23.6674 H   0  0  0  0  0  0
  -26.1524  -31.4968   20.6247 H   0  0  0  0  0  0
  -26.8651  -30.7748   22.0329 H   0  0  0  0  0  0
  -28.1297  -28.8379   21.2270 H   0  0  0  0  0  0
  -25.9275  -25.8763   18.9844 H   0  0  0  0  0  0
  -23.9797  -27.3091   18.9810 H   0  0  0  0  0  0
  -23.7995  -30.5779   19.4011 H   0  0  0  0  0  0
  -22.7817  -29.2412   19.8467 H   0  0  0  0  0  0
  -25.1312  -36.1900   25.0808 H   0  0  0  0  0  0
  -21.0011  -28.3320   24.1362 H   0  0  0  0  0  0
  -20.5715  -26.2313   23.3624 H   0  0  0  0  0  0
  -21.6654  -26.7453   22.1191 H   0  0  0  0  0  0
  -19.6930  -25.6284   21.1282 H   0  0  0  0  0  0
  -19.6744  -27.3168   20.6729 H   0  0  0  0  0  0
  -17.4225  -26.6712   21.4012 H   0  0  0  0  0  0
  -18.0340  -26.0093   22.9020 H   0  0  0  0  0  0
  -19.7921  -30.7342   24.2221 H   0  0  0  0  0  0
  -17.4981  -31.6269   24.5174 H   0  0  0  0  0  0
  -15.5340  -30.2972   23.7676 H   0  0  0  0  0  0
  -15.8685  -28.0816   22.7085 H   0  0  0  0  0  0
  -24.5832  -30.7202   25.7694 H   0  0  0  0  0  0
  -24.8979  -32.2951   26.4873 H   0  0  0  0  0  0
  -25.7957  -30.8852   27.0182 H   0  0  0  0  0  0
  -26.3000  -29.6679   24.1316 H   0  0  0  0  0  0
  -27.4016  -29.7272   25.4881 H   0  0  0  0  0  0
  -27.8916  -30.4191   23.9605 H   0  0  0  0  0  0
  -27.2677  -33.3634   26.2049 H   0  0  0  0  0  0
  -28.3882  -32.6898   25.0298 H   0  0  0  0  0  0
  -28.0771  -31.8479   26.5413 H   0  0  0  0  0  0
  -28.2593  -38.0100   24.7557 H   0  0  0  0  0  0
  -28.1114  -36.2641   24.6243 H   0  0  0  0  0  0
  -27.2323  -37.1386   25.8863 H   0  0  0  0  0  0
  -20.9438  -29.8731   21.6776 H   0  0  0  0  0  0
  -26.0192  -38.2822   24.1440 H   0  0  0  0  0  0
  -29.6902  -19.2716   22.5656 H   0  0  0  0  0  0
  -29.5991  -19.3590   18.2853 H   0  0  0  0  0  0
  -30.2980  -22.6886   24.6154 H   0  0  0  0  0  0
  -31.1568  -22.7561   23.0842 H   0  0  0  0  0  0
  -30.9744  -21.2252   23.9352 H   0  0  0  0  0  0
  -28.4840  -21.3067   23.5966 H   0  0  0  0  0  0
  -28.6069  -22.8474   22.8220 H   0  0  0  0  0  0
  -31.2793  -17.5744   21.0099 H   0  0  0  0  0  0
  -30.8649  -17.4567   19.3533 H   0  0  0  0  0  0
  -29.7322  -23.7184   19.2771 H   0  0  0  0  0  0
  -29.9998  -23.8660   20.9624 H   0  0  0  0  0  0
  -27.4930  -24.5480   21.2168 H   0  0  0  0  0  0
  -27.3421  -24.4195   19.4987 H   0  0  0  0  0  0
  -28.8915  -15.9568   20.7986 H   0  0  0  0  0  0
  1 25  1  0  0  0
  1 30  2  0  0  0
  1 82  1  0  0  0
  2  3  1  0  0  0
  2 25  1  0  0  0
  2 83  1  0  0  0
  2 84  1  0  0  0
  3  4  1  0  0  0
  3 85  1  0  0  0
  3 86  1  0  0  0
  4  5  1  0  0  0
  4 87  1  0  0  0
  4 88  1  0  0  0
  5  6  1  0  0  0
  5 26  1  0  0  0
  5 89  1  0  0  0
  6 25  1  0  0  0
  6 90  1  0  0  0
  6 91  1  0  0  0
  7  8  2  0  0  0
  7 26  1  0  0  0
  7 29  1  0  0  0
  8  9  1  0  0  0
  8 22  1  0  0  0
  9 10  1  0  0  0
  9 27  2  0  0  0
 10 11  2  0  0  0
 10 15  1  0  0  0
 11 12  1  0  0  0
 11 92  1  0  0  0
 12 13  2  0  0  0
 12 93  1  0  0  0
 13 14  1  0  0  0
 13 31  1  0  0  0
 14 15  2  0  0  0
 14 94  1  0  0  0
 15 95  1  0  0  0
 16 17  2  0  0  0
 16 21  1  0  0  0
 16 31  1  0  0  0
 17 18  1  0  0  0
 17 96  1  0  0  0
 18 19  2  0  0  0
 18 97  1  0  0  0
 19 20  1  0  0  0
 19 24  1  0  0  0
 20 21  2  0  0  0
 20 98  1  0  0  0
 21 23  1  0  0  0
 22 28  1  0  0  0
 22 32  2  0  0  0
 26 27  1  0  0  0
 28 99  1  0  0  0
 28100  1  0  0  0
 29101  1  0  0  0
 29102  1  0  0  0
 33 34  1  0  0  0
 33 66  1  0  0  0
 33 70  2  0  0  0
 34 36  1  0  0  0
 34 59  1  0  0  0
 34103  1  0  0  0
 35 44  2  0  0  0
 35 45  1  0  0  0
 35 68  1  0  0  0
 36 56  1  0  0  0
 36104  1  0  0  0
 37 39  1  0  0  0
 37 47  1  0  0  0
 37 66  1  0  0  0
 37105  1  0  0  0
 38 43  2  0  0  0
 38 46  1  0  0  0
 38 47  1  0  0  0
 39 64  1  0  0  0
 39 67  2  0  0  0
 40 52  1  0  0  0
 40 53  2  0  0  0
 40 58  1  0  0  0
 41106  1  0  0  0
 41107  1  0  0  0
 41108  1  0  0  0
 41 48  1  0  0  0
 42 43  1  0  0  0
 42 66  1  0  0  0
 42109  1  0  0  0
 42110  1  0  0  0
 43 44  1  0  0  0
 44111  1  0  0  0
 45 46  2  0  0  0
 45112  1  0  0  0
 46113  1  0  0  0
 47114  1  0  0  0
 47115  1  0  0  0
 48 56  1  0  0  0
 48 65  1  0  0  0
 48116  1  0  0  0
 49 50  1  0  0  0
 49 53  1  0  0  0
 49 64  1  0  0  0
 49117  1  0  0  0
 50 51  1  0  0  0
 50118  1  0  0  0
 50119  1  0  0  0
 51 52  1  0  0  0
 51120  1  0  0  0
 51121  1  0  0  0
 52122  1  0  0  0
 52123  1  0  0  0
 53 54  1  0  0  0
 54 55  2  0  0  0
 54124  1  0  0  0
 55 57  1  0  0  0
 55125  1  0  0  0
 56 69  2  0  0  0
 57 58  2  0  0  0
 57126  1  0  0  0
 58127  1  0  0  0
 59 60  1  0  0  0
 59 61  1  0  0  0
 59 62  1  0  0  0
 60128  1  0  0  0
 60129  1  0  0  0
 60130  1  0  0  0
 61131  1  0  0  0
 61132  1  0  0  0
 61133  1  0  0  0
 62134  1  0  0  0
 62135  1  0  0  0
 62136  1  0  0  0
 63 65  1  0  0  0
 63137  1  0  0  0
 63138  1  0  0  0
 63139  1  0  0  0
 64140  1  0  0  0
 65141  1  0  0  0
 68 80  1  0  0  0
 71 73  2  0  0  0
 71 74  1  0  0  0
 71142  1  0  0  0
 72 73  1  0  0  0
 72 81  2  0  0  0
 72143  1  0  0  0
 73 78  1  0  0  0
 74 75  2  0  0  0
 74 77  1  0  0  0
 75 79  1  0  0  0
 75 81  1  0  0  0
 76 77  1  0  0  0
 76144  1  0  0  0
 76145  1  0  0  0
 76146  1  0  0  0
 77147  1  0  0  0
 77148  1  0  0  0
 78 82  1  0  0  0
 78149  1  0  0  0
 78150  1  0  0  0
 79 80  1  0  0  0
 79151  1  0  0  0
 79152  1  0  0  0
 80153  1  0  0  0
 80154  1  0  0  0
 82155  1  0  0  0
M  ISO  4   1 100  68 101  80 101  82 100
M  END
> <chiral flag>
0

> <version>
0

> <s_m_source_file>
/data/baiqing/PycharmProjects/Reinvent-master-3.2/result/LINK_invent/BTK/process_docking_weight1_custom_sum_contain_oxygen_bond_distance_aromatic_linkinvent_7_9_3/rearranged_h_0036.sdf

> <i_m_source_file_index>
65

> <r_mmod_Potential_Energy-OPLS-2005>
245.845596313477

> <r_mmod_Stretch_Energy-OPLS-2005>
197.704086303711

> <r_mmod_Bend_Energy-OPLS-2005>
241.052322387695

> <r_mmod_Torsional_Energy-OPLS-2005>
225.032485961914

> <r_mmod_Improper_Torsional_Energy-OPLS-2005>
9.34939765930176

> <r_mmod_Van_der_Waal_Energy-OPLS-2005>
133.764022827148

> <r_mmod_Electrostatic_Energy-OPLS-2005>
-475.789733886719

> <r_mmod_Solvation_Energy-OPLS-2005>
-224.755966186523

> <b_mmod_Minimization_Converged-OPLS-2005>
0

> <r_mmod_RMS_Derivative-OPLS-2005>
4.55023097991943

$$$$
66
                    3D
 Structure written by MMmdl.
159167  0  0  1  0            999 V2000
  -30.6036  -14.7216   20.4576 C   0  0  0  0  0  0
  -30.4306  -12.4383   19.4668 C   0  0  0  0  0  0
  -29.5060  -12.5018   18.2308 C   0  0  0  0  0  0
  -28.0291  -12.3375   18.6392 C   0  0  0  0  0  0
  -27.6402  -13.2288   19.8490 C   0  0  2  0  0  0
  -28.6850  -13.1404   20.9820 C   0  0  0  0  0  0
  -25.2515  -13.8206   20.5681 C   0  0  0  0  0  0
  -24.1802  -13.0452   20.9192 C   0  0  0  0  0  0
  -24.6388  -11.6924   20.8708 C   0  0  0  0  0  0
  -23.9050  -10.4306   21.0395 C   0  0  0  0  0  0
  -24.3620   -9.4234   21.9175 C   0  0  0  0  0  0
  -23.6299   -8.2268   22.0764 C   0  0  0  0  0  0
  -22.4282   -8.0295   21.3547 C   0  0  0  0  0  0
  -21.9900   -9.0266   20.4650 C   0  0  0  0  0  0
  -22.7224  -10.2146   20.3054 C   0  0  0  0  0  0
  -21.6869   -6.0731   22.5263 C   0  0  0  0  0  0
  -21.4031   -6.5628   23.8199 C   0  0  0  0  0  0
  -21.3667   -5.6780   24.9157 C   0  0  0  0  0  0
  -21.6051   -4.3043   24.7208 C   0  0  0  0  0  0
  -21.8817   -3.8137   23.4333 C   0  0  0  0  0  0
  -21.9208   -4.6949   22.3389 C   0  0  0  0  0  0
  -22.7828  -13.5244   21.1851 C   0  0  0  0  0  0
  -22.1671   -4.2135   21.0967 F   0  0  0  0  0  0
  -21.5634   -3.4534   25.7726 F   0  0  0  0  0  0
  -29.9833  -13.4964   20.3985 N   0  0  0  0  0  0
  -26.2922  -12.9394   20.3271 N   0  0  0  0  0  0
  -25.9311  -11.6533   20.5729 N   0  0  0  0  0  0
  -22.0474  -12.8243   22.0417 N   0  0  0  0  0  0
  -25.4241  -15.1926   20.4090 N   0  0  0  0  0  0
  -31.7991  -14.8225   20.1728 O   0  0  0  0  0  0
  -21.6652   -6.8876   21.4238 O   0  0  0  0  0  0
  -22.3485  -14.5523   20.6655 O   0  0  0  0  0  0
  -24.6302  -31.8565   23.2020 C   0  0  0  0  0  0
  -25.9152  -32.4746   23.8358 C   0  0  1  0  0  0
  -27.2103  -27.2863   20.1182 C   0  0  0  0  0  0
  -25.5963  -33.8555   24.2278 N   0  0  0  0  0  0
  -23.4220  -30.4850   21.5433 C   0  0  2  0  0  0
  -24.8607  -28.9252   20.1115 C   0  0  0  0  0  0
  -22.7479  -29.4654   22.4919 C   0  0  0  0  0  0
  -18.0292  -28.1418   22.8470 C   0  0  0  0  0  0
  -24.1484  -36.7264   23.2639 C   0  0  0  0  0  0
  -25.9691  -30.7721   21.3814 C   0  0  0  0  0  0
  -26.0318  -29.4000   20.7144 C   0  0  0  0  0  0
  -27.2071  -28.5915   20.7050 C   0  0  0  0  0  0
  -26.0101  -26.8514   19.5166 C   0  0  0  0  0  0
  -24.8512  -27.6551   19.5105 C   0  0  0  0  0  0
  -23.6342  -29.8159   20.1591 C   0  0  0  0  0  0
  -25.4116  -36.3065   24.0329 C   0  0  1  0  0  0
  -20.5899  -28.3733   23.1253 C   0  0  2  0  0  0
  -20.6794  -26.9455   22.5397 C   0  0  0  0  0  0
  -19.5770  -26.6406   21.5204 C   0  0  0  0  0  0
  -18.1947  -26.7960   22.1609 C   0  0  0  0  0  0
  -19.1548  -28.8890   23.2859 C   0  0  0  0  0  0
  -18.9472  -30.1495   23.8879 C   0  0  0  0  0  0
  -17.6475  -30.6614   24.0571 C   0  0  0  0  0  0
  -25.9066  -34.9430   23.5106 C   0  0  0  0  0  0
  -16.5365  -29.9110   23.6351 C   0  0  0  0  0  0
  -16.7281  -28.6533   23.0352 C   0  0  0  0  0  0
  -26.4511  -31.6604   25.0778 C   0  0  0  0  0  0
  -25.3736  -31.3747   26.1503 C   0  0  0  0  0  0
  -27.0375  -30.3011   24.6340 C   0  0  0  0  0  0
  -27.6069  -32.4364   25.7532 C   0  0  0  0  0  0
  -27.5582  -37.1789   24.8468 C   0  0  0  0  0  0
  -21.4194  -29.3070   22.3634 N   0  0  0  0  0  0
  -26.4290  -37.3774   23.9414 N   0  0  0  0  0  0
  -24.6922  -31.0570   22.0966 N   0  0  0  0  0  0
  -23.4200  -28.8194   23.3005 O   0  0  0  0  0  0
  -28.3380  -26.4536   20.1917 O   0  0  0  0  0  0
  -26.5635  -34.8907   22.4677 O   0  0  0  0  0  0
  -23.5463  -32.1381   23.7339 O   0  0  0  0  0  0
  -28.4969  -18.2830   19.0946 C   0  0  0  0  0  0
  -28.0152  -20.6970   18.8869 C   0  0  0  0  0  0
  -29.5937  -19.8971   20.5408 C   0  0  0  0  0  0
  -27.8145  -19.3569   18.4714 C   0  0  0  0  0  0
  -29.4122  -18.5145   20.1419 C   0  0  0  0  0  0
  -28.9050  -21.0260   19.9340 C   0  0  0  0  0  0
  -26.8841  -19.0739   17.3053 C   0  0  0  0  0  0
  -29.9134  -22.7321   21.6175 C   0  0  0  0  0  0
  -30.2502  -17.3092   20.7549 C   0  0  0  0  0  0
  -28.0697  -23.7132   20.1351 C   0  0  0  0  0  0
  -28.4485  -25.1445   19.4953 C   0  0  0  0  0  0
  -29.2053  -22.5638   20.2588 C   0  0  2  0  0  0
  -29.8210  -15.8493   20.6398 N   0  0  0  0  0  0
  -31.4723  -12.5638   19.1679 H   0  0  0  0  0  0
  -30.3724  -11.4575   19.9432 H   0  0  0  0  0  0
  -29.7805  -11.7331   17.5079 H   0  0  0  0  0  0
  -29.6441  -13.4604   17.7276 H   0  0  0  0  0  0
  -27.8705  -11.2876   18.8886 H   0  0  0  0  0  0
  -27.3764  -12.5478   17.7907 H   0  0  0  0  0  0
  -27.6405  -14.2543   19.4809 H   0  0  0  0  0  0
  -28.7152  -12.1320   21.3966 H   0  0  0  0  0  0
  -28.4215  -13.8020   21.8089 H   0  0  0  0  0  0
  -25.2778   -9.5704   22.4734 H   0  0  0  0  0  0
  -24.0010   -7.4652   22.7486 H   0  0  0  0  0  0
  -21.0838   -8.8775   19.8951 H   0  0  0  0  0  0
  -22.3689  -10.9680   19.6151 H   0  0  0  0  0  0
  -21.2026   -7.6135   23.9688 H   0  0  0  0  0  0
  -21.1497   -6.0515   25.9055 H   0  0  0  0  0  0
  -22.0592   -2.7598   23.2829 H   0  0  0  0  0  0
  -22.4094  -11.9926   22.4831 H   0  0  0  0  0  0
  -21.1089  -13.1268   22.2610 H   0  0  0  0  0  0
  -24.6603  -15.8503   20.5216 H   0  0  0  0  0  0
  -26.2712  -15.6281   20.0669 H   0  0  0  0  0  0
  -26.7219  -32.5353   23.1092 H   0  0  0  0  0  0
  -25.0124  -33.9686   25.0433 H   0  0  0  0  0  0
  -22.7194  -31.3092   21.4011 H   0  0  0  0  0  0
  -23.3766  -35.9580   23.3298 H   0  0  0  0  0  0
  -24.3573  -36.8891   22.2057 H   0  0  0  0  0  0
  -23.7202  -37.6452   23.6660 H   0  0  0  0  0  0
  -26.1338  -31.5413   20.6248 H   0  0  0  0  0  0
  -26.8384  -30.7956   22.0285 H   0  0  0  0  0  0
  -28.1083  -28.9508   21.1824 H   0  0  0  0  0  0
  -25.9297  -25.8639   19.0869 H   0  0  0  0  0  0
  -23.9444  -27.2723   19.0612 H   0  0  0  0  0  0
  -23.7570  -30.5926   19.4034 H   0  0  0  0  0  0
  -22.7493  -29.2546   19.8534 H   0  0  0  0  0  0
  -25.1291  -36.1913   25.0822 H   0  0  0  0  0  0
  -20.9997  -28.3328   24.1370 H   0  0  0  0  0  0
  -20.5720  -26.2344   23.3606 H   0  0  0  0  0  0
  -21.6660  -26.7501   22.1177 H   0  0  0  0  0  0
  -19.6940  -25.6304   21.1258 H   0  0  0  0  0  0
  -19.6718  -27.3191   20.6713 H   0  0  0  0  0  0
  -17.4219  -26.6704   21.4010 H   0  0  0  0  0  0
  -18.0363  -26.0120   22.9021 H   0  0  0  0  0  0
  -19.7950  -30.7323   24.2235 H   0  0  0  0  0  0
  -17.5027  -31.6282   24.5191 H   0  0  0  0  0  0
  -15.5366  -30.3005   23.7700 H   0  0  0  0  0  0
  -15.8678  -28.0851   22.7081 H   0  0  0  0  0  0
  -24.5905  -30.7112   25.7816 H   0  0  0  0  0  0
  -24.8941  -32.2909   26.4966 H   0  0  0  0  0  0
  -25.8061  -30.8888   27.0264 H   0  0  0  0  0  0
  -26.2988  -29.6749   24.1336 H   0  0  0  0  0  0
  -27.3966  -29.7307   25.4919 H   0  0  0  0  0  0
  -27.8905  -30.4258   23.9669 H   0  0  0  0  0  0
  -27.2691  -33.3666   26.2125 H   0  0  0  0  0  0
  -28.3869  -32.6952   25.0352 H   0  0  0  0  0  0
  -28.0782  -31.8507   26.5442 H   0  0  0  0  0  0
  -28.2598  -38.0091   24.7551 H   0  0  0  0  0  0
  -28.1084  -36.2631   24.6253 H   0  0  0  0  0  0
  -27.2315  -37.1390   25.8876 H   0  0  0  0  0  0
  -20.9406  -29.8721   21.6762 H   0  0  0  0  0  0
  -26.0166  -38.2846   24.1438 H   0  0  0  0  0  0
  -28.3460  -17.2727   18.7369 H   0  0  0  0  0  0
  -27.5043  -21.4845   18.3503 H   0  0  0  0  0  0
  -30.3169  -20.0956   21.3159 H   0  0  0  0  0  0
  -26.4291  -18.0867   17.3921 H   0  0  0  0  0  0
  -27.4282  -19.1147   16.3600 H   0  0  0  0  0  0
  -26.0785  -19.8061   17.2572 H   0  0  0  0  0  0
  -30.8849  -22.2377   21.6312 H   0  0  0  0  0  0
  -29.3157  -22.3239   22.4343 H   0  0  0  0  0  0
  -30.0934  -23.7831   21.8431 H   0  0  0  0  0  0
  -30.3643  -17.5152   21.8192 H   0  0  0  0  0  0
  -31.2585  -17.4022   20.3488 H   0  0  0  0  0  0
  -27.2585  -23.3303   19.5173 H   0  0  0  0  0  0
  -27.5962  -23.8654   21.1048 H   0  0  0  0  0  0
  -27.9598  -25.2300   18.5242 H   0  0  0  0  0  0
  -29.5029  -25.0852   19.2312 H   0  0  0  0  0  0
  -29.9418  -22.8213   19.4972 H   0  0  0  0  0  0
  -28.8409  -15.6756   20.7929 H   0  0  0  0  0  0
  1 25  1  0  0  0
  1 30  2  0  0  0
  1 83  1  0  0  0
  2  3  1  0  0  0
  2 25  1  0  0  0
  2 84  1  0  0  0
  2 85  1  0  0  0
  3  4  1  0  0  0
  3 86  1  0  0  0
  3 87  1  0  0  0
  4  5  1  0  0  0
  4 88  1  0  0  0
  4 89  1  0  0  0
  5  6  1  0  0  0
  5 26  1  0  0  0
  5 90  1  0  0  0
  6 25  1  0  0  0
  6 91  1  0  0  0
  6 92  1  0  0  0
  7  8  2  0  0  0
  7 26  1  0  0  0
  7 29  1  0  0  0
  8  9  1  0  0  0
  8 22  1  0  0  0
  9 10  1  0  0  0
  9 27  2  0  0  0
 10 11  2  0  0  0
 10 15  1  0  0  0
 11 12  1  0  0  0
 11 93  1  0  0  0
 12 13  2  0  0  0
 12 94  1  0  0  0
 13 14  1  0  0  0
 13 31  1  0  0  0
 14 15  2  0  0  0
 14 95  1  0  0  0
 15 96  1  0  0  0
 16 17  2  0  0  0
 16 21  1  0  0  0
 16 31  1  0  0  0
 17 18  1  0  0  0
 17 97  1  0  0  0
 18 19  2  0  0  0
 18 98  1  0  0  0
 19 20  1  0  0  0
 19 24  1  0  0  0
 20 21  2  0  0  0
 20 99  1  0  0  0
 21 23  1  0  0  0
 22 28  1  0  0  0
 22 32  2  0  0  0
 26 27  1  0  0  0
 28100  1  0  0  0
 28101  1  0  0  0
 29102  1  0  0  0
 29103  1  0  0  0
 33 34  1  0  0  0
 33 66  1  0  0  0
 33 70  2  0  0  0
 34 36  1  0  0  0
 34 59  1  0  0  0
 34104  1  0  0  0
 35 44  2  0  0  0
 35 45  1  0  0  0
 35 68  1  0  0  0
 36 56  1  0  0  0
 36105  1  0  0  0
 37 39  1  0  0  0
 37 47  1  0  0  0
 37 66  1  0  0  0
 37106  1  0  0  0
 38 43  2  0  0  0
 38 46  1  0  0  0
 38 47  1  0  0  0
 39 64  1  0  0  0
 39 67  2  0  0  0
 40 52  1  0  0  0
 40 53  2  0  0  0
 40 58  1  0  0  0
 41107  1  0  0  0
 41108  1  0  0  0
 41109  1  0  0  0
 41 48  1  0  0  0
 42 43  1  0  0  0
 42 66  1  0  0  0
 42110  1  0  0  0
 42111  1  0  0  0
 43 44  1  0  0  0
 44112  1  0  0  0
 45 46  2  0  0  0
 45113  1  0  0  0
 46114  1  0  0  0
 47115  1  0  0  0
 47116  1  0  0  0
 48 56  1  0  0  0
 48 65  1  0  0  0
 48117  1  0  0  0
 49 50  1  0  0  0
 49 53  1  0  0  0
 49 64  1  0  0  0
 49118  1  0  0  0
 50 51  1  0  0  0
 50119  1  0  0  0
 50120  1  0  0  0
 51 52  1  0  0  0
 51121  1  0  0  0
 51122  1  0  0  0
 52123  1  0  0  0
 52124  1  0  0  0
 53 54  1  0  0  0
 54 55  2  0  0  0
 54125  1  0  0  0
 55 57  1  0  0  0
 55126  1  0  0  0
 56 69  2  0  0  0
 57 58  2  0  0  0
 57127  1  0  0  0
 58128  1  0  0  0
 59 60  1  0  0  0
 59 61  1  0  0  0
 59 62  1  0  0  0
 60129  1  0  0  0
 60130  1  0  0  0
 60131  1  0  0  0
 61132  1  0  0  0
 61133  1  0  0  0
 61134  1  0  0  0
 62135  1  0  0  0
 62136  1  0  0  0
 62137  1  0  0  0
 63 65  1  0  0  0
 63138  1  0  0  0
 63139  1  0  0  0
 63140  1  0  0  0
 64141  1  0  0  0
 65142  1  0  0  0
 68 81  1  0  0  0
 71 74  2  0  0  0
 71 75  1  0  0  0
 71143  1  0  0  0
 72 74  1  0  0  0
 72 76  2  0  0  0
 72144  1  0  0  0
 73 75  2  0  0  0
 73 76  1  0  0  0
 73145  1  0  0  0
 74 77  1  0  0  0
 75 79  1  0  0  0
 76 82  1  0  0  0
 77146  1  0  0  0
 77147  1  0  0  0
 77148  1  0  0  0
 78149  1  0  0  0
 78150  1  0  0  0
 78151  1  0  0  0
 78 82  1  0  0  0
 79 83  1  0  0  0
 79152  1  0  0  0
 79153  1  0  0  0
 80 81  1  0  0  0
 80 82  1  0  0  0
 80154  1  0  0  0
 80155  1  0  0  0
 81156  1  0  0  0
 81157  1  0  0  0
 82158  1  0  0  0
 83159  1  0  0  0
M  ISO  4   1 100  68 101  81 101  83 100
M  END
> <chiral flag>
0

> <version>
0

> <s_m_source_file>
/data/baiqing/PycharmProjects/Reinvent-master-3.2/result/LINK_invent/BTK/process_docking_weight1_custom_sum_contain_oxygen_bond_distance_aromatic_linkinvent_7_9_3/rearranged_h_0036.sdf

> <i_m_source_file_index>
66

> <r_mmod_Potential_Energy-OPLS-2005>
87.2587051391602

> <r_mmod_Stretch_Energy-OPLS-2005>
109.652542114258

> <r_mmod_Bend_Energy-OPLS-2005>
170.109466552734

> <r_mmod_Torsional_Energy-OPLS-2005>
214.686767578125

> <r_mmod_Improper_Torsional_Energy-OPLS-2005>
5.25508213043213

> <r_mmod_Van_der_Waal_Energy-OPLS-2005>
135.665710449219

> <r_mmod_Electrostatic_Energy-OPLS-2005>
-418.199249267578

> <r_mmod_Solvation_Energy-OPLS-2005>
-203.235488891602

> <b_mmod_Minimization_Converged-OPLS-2005>
0

> <r_mmod_RMS_Derivative-OPLS-2005>
2.99235200881958

$$$$
67
                    3D
 Structure written by MMmdl.
163171  0  0  1  0            999 V2000
  -30.7128  -14.3809   20.6622 C   0  0  0  0  0  0
  -30.4327  -12.2856   19.3922 C   0  0  0  0  0  0
  -29.4908  -12.5166   18.1927 C   0  0  0  0  0  0
  -28.0117  -12.3799   18.6060 C   0  0  0  0  0  0
  -27.6713  -13.1908   19.8838 C   0  0  2  0  0  0
  -28.7074  -12.8946   20.9902 C   0  0  0  0  0  0
  -25.2646  -13.8141   20.5660 C   0  0  0  0  0  0
  -24.1862  -13.0442   20.9155 C   0  0  0  0  0  0
  -24.6382  -11.6899   20.8725 C   0  0  0  0  0  0
  -23.9037  -10.4297   21.0406 C   0  0  0  0  0  0
  -24.3598   -9.4218   21.9184 C   0  0  0  0  0  0
  -23.6287   -8.2247   22.0755 C   0  0  0  0  0  0
  -22.4269   -8.0282   21.3545 C   0  0  0  0  0  0
  -21.9896   -9.0247   20.4644 C   0  0  0  0  0  0
  -22.7214  -10.2131   20.3053 C   0  0  0  0  0  0
  -21.6852   -6.0736   22.5275 C   0  0  0  0  0  0
  -21.4009   -6.5640   23.8205 C   0  0  0  0  0  0
  -21.3660   -5.6796   24.9173 C   0  0  0  0  0  0
  -21.6049   -4.3059   24.7227 C   0  0  0  0  0  0
  -21.8825   -3.8146   23.4347 C   0  0  0  0  0  0
  -21.9193   -4.6962   22.3402 C   0  0  0  0  0  0
  -22.7889  -13.5264   21.1824 C   0  0  0  0  0  0
  -22.1665   -4.2148   21.0979 F   0  0  0  0  0  0
  -21.5630   -3.4544   25.7739 F   0  0  0  0  0  0
  -30.0497  -13.2135   20.4626 N   0  0  0  0  0  0
  -26.3068  -12.9270   20.3378 N   0  0  0  0  0  0
  -25.9303  -11.6443   20.5752 N   0  0  0  0  0  0
  -22.0512  -12.8263   22.0381 N   0  0  0  0  0  0
  -25.4424  -15.1850   20.4059 N   0  0  0  0  0  0
  -31.7532  -14.6921   20.0720 O   0  0  0  0  0  0
  -21.6637   -6.8880   21.4238 O   0  0  0  0  0  0
  -22.3569  -14.5567   20.6674 O   0  0  0  0  0  0
  -24.6122  -31.8712   23.2093 C   0  0  0  0  0  0
  -25.9027  -32.4837   23.8391 C   0  0  1  0  0  0
  -27.2374  -27.4654   20.0898 C   0  0  0  0  0  0
  -25.5905  -33.8631   24.2340 N   0  0  0  0  0  0
  -23.3982  -30.4939   21.5514 C   0  0  2  0  0  0
  -24.8428  -28.9613   20.1151 C   0  0  0  0  0  0
  -22.7396  -29.4683   22.5004 C   0  0  0  0  0  0
  -18.0276  -28.1366   22.8509 C   0  0  0  0  0  0
  -24.1488  -36.7305   23.2640 C   0  0  0  0  0  0
  -25.9231  -30.8473   21.3538 C   0  0  0  0  0  0
  -26.0021  -29.4841   20.7022 C   0  0  0  0  0  0
  -27.2037  -28.7464   20.6800 C   0  0  0  0  0  0
  -26.0612  -26.9457   19.5039 C   0  0  0  0  0  0
  -24.8663  -27.6911   19.5125 C   0  0  0  0  0  0
  -23.6023  -29.8243   20.1661 C   0  0  0  0  0  0
  -25.4111  -36.3123   24.0347 C   0  0  1  0  0  0
  -20.5868  -28.3655   23.1328 C   0  0  2  0  0  0
  -20.6761  -26.9391   22.5425 C   0  0  0  0  0  0
  -19.5746  -26.6386   21.5215 C   0  0  0  0  0  0
  -18.1923  -26.7919   22.1623 C   0  0  0  0  0  0
  -19.1529  -28.8824   23.2915 C   0  0  0  0  0  0
  -18.9455  -30.1429   23.8926 C   0  0  0  0  0  0
  -17.6464  -30.6578   24.0566 C   0  0  0  0  0  0
  -25.9037  -34.9488   23.5142 C   0  0  0  0  0  0
  -16.5352  -29.9089   23.6319 C   0  0  0  0  0  0
  -16.7264  -28.6495   23.0357 C   0  0  0  0  0  0
  -26.4469  -31.6605   25.0701 C   0  0  0  0  0  0
  -25.3753  -31.3694   26.1461 C   0  0  0  0  0  0
  -27.0285  -30.3061   24.6021 C   0  0  0  0  0  0
  -27.6060  -32.4309   25.7460 C   0  0  0  0  0  0
  -27.5586  -37.1808   24.8472 C   0  0  0  0  0  0
  -21.4127  -29.3034   22.3735 N   0  0  0  0  0  0
  -26.4297  -37.3810   23.9417 N   0  0  0  0  0  0
  -24.6632  -31.0847   22.0973 N   0  0  0  0  0  0
  -23.4176  -28.8222   23.3036 O   0  0  0  0  0  0
  -28.4175  -26.7602   20.0870 O   0  0  0  0  0  0
  -26.5592  -34.8945   22.4698 O   0  0  0  0  0  0
  -23.5328  -32.1448   23.7514 O   0  0  0  0  0  0
  -30.7177  -23.0987   22.3416 C   0  0  0  0  0  0
  -28.6229  -22.6941   21.6913 C   0  0  0  0  0  0
  -30.3224  -21.9422   22.9583 C   0  0  0  0  0  0
  -28.9755  -21.6895   22.5493 C   0  0  0  0  0  0
  -31.1619  -21.1114   23.8942 C   0  0  0  0  0  0
  -28.0668  -20.5592   22.9758 C   0  0  0  0  0  0
  -28.6223  -19.1481   22.7257 C   0  0  0  0  0  0
  -29.0620  -18.8829   21.2738 C   0  0  0  0  0  0
  -29.1496  -17.3827   20.9490 C   0  0  0  0  0  0
  -29.7020  -24.8302   20.8211 C   0  0  0  0  0  0
  -30.2893  -16.6385   21.6719 C   0  0  0  0  0  0
  -28.3088  -25.3973   20.4924 C   0  0  0  0  0  0
  -29.6687  -23.5917   21.5919 N   0  0  0  0  0  0
  -30.0981  -15.2035   21.5188 N   0  0  0  0  0  0
  -31.4742  -12.4115   19.0891 H   0  0  0  0  0  0
  -30.3529  -11.2585   19.7513 H   0  0  0  0  0  0
  -29.7218  -11.8080   17.3962 H   0  0  0  0  0  0
  -29.6634  -13.5102   17.7763 H   0  0  0  0  0  0
  -27.8115  -11.3213   18.7758 H   0  0  0  0  0  0
  -27.3616  -12.6826   17.7840 H   0  0  0  0  0  0
  -27.7421  -14.2486   19.6282 H   0  0  0  0  0  0
  -28.6756  -11.8370   21.2558 H   0  0  0  0  0  0
  -28.4510  -13.4166   21.9120 H   0  0  0  0  0  0
  -25.2738   -9.5710   22.4756 H   0  0  0  0  0  0
  -24.0004   -7.4651   22.7476 H   0  0  0  0  0  0
  -21.0832   -8.8763   19.8952 H   0  0  0  0  0  0
  -22.3675  -10.9669   19.6164 H   0  0  0  0  0  0
  -21.1992   -7.6146   23.9717 H   0  0  0  0  0  0
  -21.1476   -6.0518   25.9080 H   0  0  0  0  0  0
  -22.0602   -2.7608   23.2842 H   0  0  0  0  0  0
  -22.4088  -11.9899   22.4751 H   0  0  0  0  0  0
  -21.1134  -13.1312   22.2570 H   0  0  0  0  0  0
  -24.6850  -15.8504   20.5151 H   0  0  0  0  0  0
  -26.3033  -15.6130   20.0874 H   0  0  0  0  0  0
  -26.7098  -32.5556   23.1157 H   0  0  0  0  0  0
  -25.0090  -33.9802   25.0507 H   0  0  0  0  0  0
  -22.6859  -31.3098   21.4136 H   0  0  0  0  0  0
  -23.3759  -35.9630   23.3325 H   0  0  0  0  0  0
  -24.3581  -36.8884   22.2048 H   0  0  0  0  0  0
  -23.7227  -37.6518   23.6626 H   0  0  0  0  0  0
  -26.0304  -31.6137   20.5844 H   0  0  0  0  0  0
  -26.8142  -30.9033   21.9668 H   0  0  0  0  0  0
  -28.1016  -29.1525   21.1251 H   0  0  0  0  0  0
  -26.0603  -25.9755   19.0280 H   0  0  0  0  0  0
  -23.9751  -27.2836   19.0556 H   0  0  0  0  0  0
  -23.7042  -30.5990   19.4049 H   0  0  0  0  0  0
  -22.7271  -29.2411   19.8739 H   0  0  0  0  0  0
  -25.1284  -36.1998   25.0842 H   0  0  0  0  0  0
  -20.9969  -28.3210   24.1445 H   0  0  0  0  0  0
  -20.5656  -26.2257   23.3606 H   0  0  0  0  0  0
  -21.6630  -26.7429   22.1221 H   0  0  0  0  0  0
  -19.6900  -25.6304   21.1220 H   0  0  0  0  0  0
  -19.6680  -27.3210   20.6755 H   0  0  0  0  0  0
  -17.4194  -26.6691   21.4011 H   0  0  0  0  0  0
  -18.0303  -26.0049   22.9003 H   0  0  0  0  0  0
  -19.7934  -30.7233   24.2309 H   0  0  0  0  0  0
  -17.5023  -31.6263   24.5154 H   0  0  0  0  0  0
  -15.5354  -30.3003   23.7622 H   0  0  0  0  0  0
  -15.8664  -28.0812   22.7077 H   0  0  0  0  0  0
  -24.5941  -30.7016   25.7809 H   0  0  0  0  0  0
  -24.8917  -32.2842   26.4904 H   0  0  0  0  0  0
  -25.8131  -30.8886   27.0216 H   0  0  0  0  0  0
  -26.2793  -29.6825   24.1121 H   0  0  0  0  0  0
  -27.4148  -29.7283   25.4427 H   0  0  0  0  0  0
  -27.8591  -30.4412   23.9083 H   0  0  0  0  0  0
  -27.2691  -33.3599   26.2070 H   0  0  0  0  0  0
  -28.3854  -32.6877   25.0275 H   0  0  0  0  0  0
  -28.0743  -31.8406   26.5348 H   0  0  0  0  0  0
  -28.2628  -38.0089   24.7528 H   0  0  0  0  0  0
  -28.1068  -36.2625   24.6294 H   0  0  0  0  0  0
  -27.2305  -37.1443   25.8879 H   0  0  0  0  0  0
  -20.9267  -29.8753   21.6967 H   0  0  0  0  0  0
  -26.0196  -38.2896   24.1416 H   0  0  0  0  0  0
  -31.6587  -23.6331   22.3838 H   0  0  0  0  0  0
  -27.6914  -22.8571   21.1648 H   0  0  0  0  0  0
  -31.9943  -21.6941   24.2898 H   0  0  0  0  0  0
  -31.5735  -20.2468   23.3726 H   0  0  0  0  0  0
  -30.5649  -20.7557   24.7351 H   0  0  0  0  0  0
  -27.1157  -20.6654   22.4506 H   0  0  0  0  0  0
  -27.8355  -20.6810   24.0349 H   0  0  0  0  0  0
  -27.8479  -18.4341   23.0089 H   0  0  0  0  0  0
  -29.4565  -18.9567   23.3987 H   0  0  0  0  0  0
  -30.0139  -19.3752   21.0704 H   0  0  0  0  0  0
  -28.3381  -19.3374   20.5959 H   0  0  0  0  0  0
  -29.2714  -17.2572   19.8720 H   0  0  0  0  0  0
  -28.1899  -16.9217   21.1892 H   0  0  0  0  0  0
  -30.2566  -25.5649   21.4054 H   0  0  0  0  0  0
  -30.2699  -24.6602   19.9061 H   0  0  0  0  0  0
  -30.2755  -16.8579   22.7391 H   0  0  0  0  0  0
  -31.2640  -16.9577   21.2971 H   0  0  0  0  0  0
  -27.6706  -25.3386   21.3776 H   0  0  0  0  0  0
  -27.8470  -24.7962   19.7093 H   0  0  0  0  0  0
  -29.2989  -14.8077   21.9905 H   0  0  0  0  0  0
  1 25  1  0  0  0
  1 30  2  0  0  0
  1 84  1  0  0  0
  2  3  1  0  0  0
  2 25  1  0  0  0
  2 85  1  0  0  0
  2 86  1  0  0  0
  3  4  1  0  0  0
  3 87  1  0  0  0
  3 88  1  0  0  0
  4  5  1  0  0  0
  4 89  1  0  0  0
  4 90  1  0  0  0
  5  6  1  0  0  0
  5 26  1  0  0  0
  5 91  1  0  0  0
  6 25  1  0  0  0
  6 92  1  0  0  0
  6 93  1  0  0  0
  7  8  2  0  0  0
  7 26  1  0  0  0
  7 29  1  0  0  0
  8  9  1  0  0  0
  8 22  1  0  0  0
  9 10  1  0  0  0
  9 27  2  0  0  0
 10 11  2  0  0  0
 10 15  1  0  0  0
 11 12  1  0  0  0
 11 94  1  0  0  0
 12 13  2  0  0  0
 12 95  1  0  0  0
 13 14  1  0  0  0
 13 31  1  0  0  0
 14 15  2  0  0  0
 14 96  1  0  0  0
 15 97  1  0  0  0
 16 17  2  0  0  0
 16 21  1  0  0  0
 16 31  1  0  0  0
 17 18  1  0  0  0
 17 98  1  0  0  0
 18 19  2  0  0  0
 18 99  1  0  0  0
 19 20  1  0  0  0
 19 24  1  0  0  0
 20 21  2  0  0  0
 20100  1  0  0  0
 21 23  1  0  0  0
 22 28  1  0  0  0
 22 32  2  0  0  0
 26 27  1  0  0  0
 28101  1  0  0  0
 28102  1  0  0  0
 29103  1  0  0  0
 29104  1  0  0  0
 33 34  1  0  0  0
 33 66  1  0  0  0
 33 70  2  0  0  0
 34 36  1  0  0  0
 34 59  1  0  0  0
 34105  1  0  0  0
 35 44  2  0  0  0
 35 45  1  0  0  0
 35 68  1  0  0  0
 36 56  1  0  0  0
 36106  1  0  0  0
 37 39  1  0  0  0
 37 47  1  0  0  0
 37 66  1  0  0  0
 37107  1  0  0  0
 38 43  2  0  0  0
 38 46  1  0  0  0
 38 47  1  0  0  0
 39 64  1  0  0  0
 39 67  2  0  0  0
 40 52  1  0  0  0
 40 53  2  0  0  0
 40 58  1  0  0  0
 41108  1  0  0  0
 41109  1  0  0  0
 41110  1  0  0  0
 41 48  1  0  0  0
 42 43  1  0  0  0
 42 66  1  0  0  0
 42111  1  0  0  0
 42112  1  0  0  0
 43 44  1  0  0  0
 44113  1  0  0  0
 45 46  2  0  0  0
 45114  1  0  0  0
 46115  1  0  0  0
 47116  1  0  0  0
 47117  1  0  0  0
 48 56  1  0  0  0
 48 65  1  0  0  0
 48118  1  0  0  0
 49 50  1  0  0  0
 49 53  1  0  0  0
 49 64  1  0  0  0
 49119  1  0  0  0
 50 51  1  0  0  0
 50120  1  0  0  0
 50121  1  0  0  0
 51 52  1  0  0  0
 51122  1  0  0  0
 51123  1  0  0  0
 52124  1  0  0  0
 52125  1  0  0  0
 53 54  1  0  0  0
 54 55  2  0  0  0
 54126  1  0  0  0
 55 57  1  0  0  0
 55127  1  0  0  0
 56 69  2  0  0  0
 57 58  2  0  0  0
 57128  1  0  0  0
 58129  1  0  0  0
 59 60  1  0  0  0
 59 61  1  0  0  0
 59 62  1  0  0  0
 60130  1  0  0  0
 60131  1  0  0  0
 60132  1  0  0  0
 61133  1  0  0  0
 61134  1  0  0  0
 61135  1  0  0  0
 62136  1  0  0  0
 62137  1  0  0  0
 62138  1  0  0  0
 63 65  1  0  0  0
 63139  1  0  0  0
 63140  1  0  0  0
 63141  1  0  0  0
 64142  1  0  0  0
 65143  1  0  0  0
 68 82  1  0  0  0
 71 73  2  0  0  0
 71 83  1  0  0  0
 71144  1  0  0  0
 72 74  2  0  0  0
 72 83  1  0  0  0
 72145  1  0  0  0
 73 74  1  0  0  0
 73 75  1  0  0  0
 74 76  1  0  0  0
 75146  1  0  0  0
 75147  1  0  0  0
 75148  1  0  0  0
 76 77  1  0  0  0
 76149  1  0  0  0
 76150  1  0  0  0
 77 78  1  0  0  0
 77151  1  0  0  0
 77152  1  0  0  0
 78 79  1  0  0  0
 78153  1  0  0  0
 78154  1  0  0  0
 79 81  1  0  0  0
 79155  1  0  0  0
 79156  1  0  0  0
 80 82  1  0  0  0
 80 83  1  0  0  0
 80157  1  0  0  0
 80158  1  0  0  0
 81 84  1  0  0  0
 81159  1  0  0  0
 81160  1  0  0  0
 82161  1  0  0  0
 82162  1  0  0  0
 84163  1  0  0  0
M  ISO  4   1 100  68 101  82 101  84 100
M  END
> <chiral flag>
0

> <version>
0

> <s_m_source_file>
/data/baiqing/PycharmProjects/Reinvent-master-3.2/result/LINK_invent/BTK/process_docking_weight1_custom_sum_contain_oxygen_bond_distance_aromatic_linkinvent_7_9_3/rearranged_h_0036.sdf

> <i_m_source_file_index>
67

> <r_mmod_Potential_Energy-OPLS-2005>
-98.5628356933594

> <r_mmod_Stretch_Energy-OPLS-2005>
30.2550563812256

> <r_mmod_Bend_Energy-OPLS-2005>
92.0983352661133

> <r_mmod_Torsional_Energy-OPLS-2005>
225.20556640625

> <r_mmod_Improper_Torsional_Energy-OPLS-2005>
2.56568765640259

> <r_mmod_Van_der_Waal_Energy-OPLS-2005>
127.926338195801

> <r_mmod_Electrostatic_Energy-OPLS-2005>
-373.80859375

> <r_mmod_Solvation_Energy-OPLS-2005>
-210.751159667969

> <b_mmod_Minimization_Converged-OPLS-2005>
0

> <r_mmod_RMS_Derivative-OPLS-2005>
1.67825996875763

$$$$
68
                    3D
 Structure written by MMmdl.
165173  0  0  1  0            999 V2000
  -30.7529  -14.3702   20.6717 C   0  0  0  0  0  0
  -30.4211  -12.2843   19.3998 C   0  0  0  0  0  0
  -29.4874  -12.5203   18.1972 C   0  0  0  0  0  0
  -28.0095  -12.3865   18.6105 C   0  0  0  0  0  0
  -27.6687  -13.2024   19.8848 C   0  0  2  0  0  0
  -28.7057  -12.9317   20.9980 C   0  0  0  0  0  0
  -25.2600  -13.8165   20.5677 C   0  0  0  0  0  0
  -24.1837  -13.0442   20.9162 C   0  0  0  0  0  0
  -24.6384  -11.6911   20.8721 C   0  0  0  0  0  0
  -23.9048  -10.4295   21.0391 C   0  0  0  0  0  0
  -24.3597   -9.4216   21.9178 C   0  0  0  0  0  0
  -23.6280   -8.2249   22.0750 C   0  0  0  0  0  0
  -22.4268   -8.0276   21.3538 C   0  0  0  0  0  0
  -21.9902   -9.0245   20.4631 C   0  0  0  0  0  0
  -22.7220  -10.2129   20.3040 C   0  0  0  0  0  0
  -21.6848   -6.0730   22.5274 C   0  0  0  0  0  0
  -21.4007   -6.5633   23.8210 C   0  0  0  0  0  0
  -21.3658   -5.6787   24.9174 C   0  0  0  0  0  0
  -21.6044   -4.3053   24.7225 C   0  0  0  0  0  0
  -21.8824   -3.8140   23.4351 C   0  0  0  0  0  0
  -21.9194   -4.6956   22.3401 C   0  0  0  0  0  0
  -22.7861  -13.5241   21.1837 C   0  0  0  0  0  0
  -22.1662   -4.2141   21.0980 F   0  0  0  0  0  0
  -21.5632   -3.4537   25.7743 F   0  0  0  0  0  0
  -30.0511  -13.2259   20.4656 N   0  0  0  0  0  0
  -26.3048  -12.9329   20.3399 N   0  0  0  0  0  0
  -25.9311  -11.6489   20.5759 N   0  0  0  0  0  0
  -22.0490  -12.8223   22.0379 N   0  0  0  0  0  0
  -25.4342  -15.1879   20.4087 N   0  0  0  0  0  0
  -31.7819  -14.6612   20.0542 O   0  0  0  0  0  0
  -21.6633   -6.8870   21.4238 O   0  0  0  0  0  0
  -22.3546  -14.5553   20.6697 O   0  0  0  0  0  0
  -24.6109  -31.8703   23.2118 C   0  0  0  0  0  0
  -25.9031  -32.4824   23.8400 C   0  0  1  0  0  0
  -27.2465  -27.4685   20.0782 C   0  0  0  0  0  0
  -25.5913  -33.8622   24.2336 N   0  0  0  0  0  0
  -23.3961  -30.4929   21.5516 C   0  0  2  0  0  0
  -24.8447  -28.9578   20.1174 C   0  0  0  0  0  0
  -22.7368  -29.4685   22.5012 C   0  0  0  0  0  0
  -18.0268  -28.1371   22.8520 C   0  0  0  0  0  0
  -24.1481  -36.7298   23.2638 C   0  0  0  0  0  0
  -25.9208  -30.8420   21.3616 C   0  0  0  0  0  0
  -25.9997  -29.4748   20.7167 C   0  0  0  0  0  0
  -27.1975  -28.7298   20.7098 C   0  0  0  0  0  0
  -26.0700  -26.9515   19.4917 C   0  0  0  0  0  0
  -24.8716  -27.6897   19.5107 C   0  0  0  0  0  0
  -23.6023  -29.8180   20.1683 C   0  0  0  0  0  0
  -25.4107  -36.3102   24.0329 C   0  0  1  0  0  0
  -20.5853  -28.3661   23.1333 C   0  0  2  0  0  0
  -20.6750  -26.9403   22.5425 C   0  0  0  0  0  0
  -19.5721  -26.6385   21.5223 C   0  0  0  0  0  0
  -18.1900  -26.7928   22.1634 C   0  0  0  0  0  0
  -19.1518  -28.8833   23.2924 C   0  0  0  0  0  0
  -18.9446  -30.1443   23.8928 C   0  0  0  0  0  0
  -17.6449  -30.6583   24.0581 C   0  0  0  0  0  0
  -25.9036  -34.9472   23.5121 C   0  0  0  0  0  0
  -16.5343  -29.9087   23.6336 C   0  0  0  0  0  0
  -16.7259  -28.6500   23.0367 C   0  0  0  0  0  0
  -26.4469  -31.6598   25.0723 C   0  0  0  0  0  0
  -25.3743  -31.3665   26.1469 C   0  0  0  0  0  0
  -27.0311  -30.3055   24.6072 C   0  0  0  0  0  0
  -27.6050  -32.4313   25.7493 C   0  0  0  0  0  0
  -27.5566  -37.1800   24.8467 C   0  0  0  0  0  0
  -21.4106  -29.3039   22.3741 N   0  0  0  0  0  0
  -26.4284  -37.3791   23.9408 N   0  0  0  0  0  0
  -24.6604  -31.0821   22.1006 N   0  0  0  0  0  0
  -23.4152  -28.8235   23.3050 O   0  0  0  0  0  0
  -28.4397  -26.7827   20.0649 O   0  0  0  0  0  0
  -26.5591  -34.8920   22.4677 O   0  0  0  0  0  0
  -23.5319  -32.1461   23.7537 O   0  0  0  0  0  0
  -27.8362  -21.9270   18.5473 C   0  0  0  0  0  0
  -27.6109  -24.2108   17.7246 C   0  0  0  0  0  0
  -28.9774  -23.7517   19.6894 C   0  0  0  0  0  0
  -27.2906  -22.8436   17.6248 C   0  0  0  0  0  0
  -28.6937  -22.3716   19.5814 C   0  0  0  0  0  0
  -28.4431  -24.6729   18.7642 C   0  0  0  0  0  0
  -27.1053  -22.1267   15.1998 C   0  0  0  0  0  0
  -26.3649  -22.3653   16.5204 C   0  0  0  0  0  0
  -29.3366  -21.4124   20.5831 C   0  0  0  0  0  0
  -28.8170  -26.1448   18.8451 C   0  0  0  0  0  0
  -29.1756  -19.9100   20.2768 C   0  0  0  0  0  0
  -29.9729  -19.0086   21.2356 C   0  0  0  0  0  0
  -29.7598  -17.5158   20.9388 C   0  0  0  0  0  0
  -30.6094  -16.5831   21.8193 C   0  0  0  0  0  0
  -30.2293  -15.1927   21.5882 N   0  0  0  0  0  0
  -31.4633  -12.3923   19.0931 H   0  0  0  0  0  0
  -30.3253  -11.2606   19.7652 H   0  0  0  0  0  0
  -29.7155  -11.8115   17.4003 H   0  0  0  0  0  0
  -29.6651  -13.5138   17.7830 H   0  0  0  0  0  0
  -27.8052  -11.3291   18.7833 H   0  0  0  0  0  0
  -27.3607  -12.6903   17.7878 H   0  0  0  0  0  0
  -27.7315  -14.2581   19.6192 H   0  0  0  0  0  0
  -28.6653  -11.8850   21.3022 H   0  0  0  0  0  0
  -28.4523  -13.4962   21.8950 H   0  0  0  0  0  0
  -25.2739   -9.5701   22.4755 H   0  0  0  0  0  0
  -23.9990   -7.4648   22.7479 H   0  0  0  0  0  0
  -21.0839   -8.8752   19.8931 H   0  0  0  0  0  0
  -22.3675  -10.9661   19.6142 H   0  0  0  0  0  0
  -21.1994   -7.6141   23.9711 H   0  0  0  0  0  0
  -21.1472   -6.0515   25.9077 H   0  0  0  0  0  0
  -22.0605   -2.7604   23.2855 H   0  0  0  0  0  0
  -22.4090  -11.9872   22.4757 H   0  0  0  0  0  0
  -21.1099  -13.1235   22.2564 H   0  0  0  0  0  0
  -24.6728  -15.8497   20.5124 H   0  0  0  0  0  0
  -26.2995  -15.6236   20.1139 H   0  0  0  0  0  0
  -26.7107  -32.5562   23.1174 H   0  0  0  0  0  0
  -25.0077  -33.9791   25.0492 H   0  0  0  0  0  0
  -22.6840  -31.3086   21.4108 H   0  0  0  0  0  0
  -23.3750  -35.9621   23.3312 H   0  0  0  0  0  0
  -24.3567  -36.8919   22.2051 H   0  0  0  0  0  0
  -23.7229  -37.6498   23.6660 H   0  0  0  0  0  0
  -26.0250  -31.6049   20.5889 H   0  0  0  0  0  0
  -26.8123  -30.9033   21.9747 H   0  0  0  0  0  0
  -28.0896  -29.1304   21.1715 H   0  0  0  0  0  0
  -26.0652  -25.9767   19.0294 H   0  0  0  0  0  0
  -23.9810  -27.2762   19.0581 H   0  0  0  0  0  0
  -23.6980  -30.5873   19.4013 H   0  0  0  0  0  0
  -22.7290  -29.2285   19.8828 H   0  0  0  0  0  0
  -25.1281  -36.1951   25.0818 H   0  0  0  0  0  0
  -20.9955  -28.3239   24.1450 H   0  0  0  0  0  0
  -20.5670  -26.2270   23.3605 H   0  0  0  0  0  0
  -21.6617  -26.7447   22.1217 H   0  0  0  0  0  0
  -19.6887  -25.6306   21.1227 H   0  0  0  0  0  0
  -19.6647  -27.3216   20.6769 H   0  0  0  0  0  0
  -17.4172  -26.6717   21.4027 H   0  0  0  0  0  0
  -18.0281  -26.0046   22.8999 H   0  0  0  0  0  0
  -19.7918  -30.7255   24.2304 H   0  0  0  0  0  0
  -17.5003  -31.6263   24.5183 H   0  0  0  0  0  0
  -15.5344  -30.2994   23.7636 H   0  0  0  0  0  0
  -15.8659  -28.0817   22.7080 H   0  0  0  0  0  0
  -24.5908  -30.7030   25.7786 H   0  0  0  0  0  0
  -24.8938  -32.2802   26.4970 H   0  0  0  0  0  0
  -25.8102  -30.8778   27.0191 H   0  0  0  0  0  0
  -26.2849  -29.6802   24.1153 H   0  0  0  0  0  0
  -27.4146  -29.7289   25.4504 H   0  0  0  0  0  0
  -27.8646  -30.4405   23.9173 H   0  0  0  0  0  0
  -27.2701  -33.3641   26.2041 H   0  0  0  0  0  0
  -28.3877  -32.6826   25.0324 H   0  0  0  0  0  0
  -28.0685  -31.8444   26.5433 H   0  0  0  0  0  0
  -28.2582  -38.0098   24.7519 H   0  0  0  0  0  0
  -28.1059  -36.2626   24.6294 H   0  0  0  0  0  0
  -27.2272  -37.1461   25.8867 H   0  0  0  0  0  0
  -20.9253  -29.8767   21.6978 H   0  0  0  0  0  0
  -26.0166  -38.2861   24.1429 H   0  0  0  0  0  0
  -27.5920  -20.8802   18.4402 H   0  0  0  0  0  0
  -27.2127  -24.9083   17.0006 H   0  0  0  0  0  0
  -29.6267  -24.1093   20.4767 H   0  0  0  0  0  0
  -26.4137  -21.8077   14.4196 H   0  0  0  0  0  0
  -27.8661  -21.3527   15.3072 H   0  0  0  0  0  0
  -27.5970  -23.0358   14.8524 H   0  0  0  0  0  0
  -25.5766  -23.1049   16.3704 H   0  0  0  0  0  0
  -25.8627  -21.4494   16.8349 H   0  0  0  0  0  0
  -28.9313  -21.6252   21.5730 H   0  0  0  0  0  0
  -30.4000  -21.6505   20.6323 H   0  0  0  0  0  0
  -28.4322  -26.6924   17.9827 H   0  0  0  0  0  0
  -29.9030  -26.2089   18.7704 H   0  0  0  0  0  0
  -29.5110  -19.7096   19.2576 H   0  0  0  0  0  0
  -28.1190  -19.6400   20.3225 H   0  0  0  0  0  0
  -29.6788  -19.2178   22.2654 H   0  0  0  0  0  0
  -31.0349  -19.2480   21.1620 H   0  0  0  0  0  0
  -29.9904  -17.3190   19.8901 H   0  0  0  0  0  0
  -28.7028  -17.2760   21.0717 H   0  0  0  0  0  0
  -30.4522  -16.8117   22.8740 H   0  0  0  0  0  0
  -31.6725  -16.7371   21.6231 H   0  0  0  0  0  0
  -29.4229  -14.8467   22.0873 H   0  0  0  0  0  0
  1 25  1  0  0  0
  1 30  2  0  0  0
  1 85  1  0  0  0
  2  3  1  0  0  0
  2 25  1  0  0  0
  2 86  1  0  0  0
  2 87  1  0  0  0
  3  4  1  0  0  0
  3 88  1  0  0  0
  3 89  1  0  0  0
  4  5  1  0  0  0
  4 90  1  0  0  0
  4 91  1  0  0  0
  5  6  1  0  0  0
  5 26  1  0  0  0
  5 92  1  0  0  0
  6 25  1  0  0  0
  6 93  1  0  0  0
  6 94  1  0  0  0
  7  8  2  0  0  0
  7 26  1  0  0  0
  7 29  1  0  0  0
  8  9  1  0  0  0
  8 22  1  0  0  0
  9 10  1  0  0  0
  9 27  2  0  0  0
 10 11  2  0  0  0
 10 15  1  0  0  0
 11 12  1  0  0  0
 11 95  1  0  0  0
 12 13  2  0  0  0
 12 96  1  0  0  0
 13 14  1  0  0  0
 13 31  1  0  0  0
 14 15  2  0  0  0
 14 97  1  0  0  0
 15 98  1  0  0  0
 16 17  2  0  0  0
 16 21  1  0  0  0
 16 31  1  0  0  0
 17 18  1  0  0  0
 17 99  1  0  0  0
 18 19  2  0  0  0
 18100  1  0  0  0
 19 20  1  0  0  0
 19 24  1  0  0  0
 20 21  2  0  0  0
 20101  1  0  0  0
 21 23  1  0  0  0
 22 28  1  0  0  0
 22 32  2  0  0  0
 26 27  1  0  0  0
 28102  1  0  0  0
 28103  1  0  0  0
 29104  1  0  0  0
 29105  1  0  0  0
 33 34  1  0  0  0
 33 66  1  0  0  0
 33 70  2  0  0  0
 34 36  1  0  0  0
 34 59  1  0  0  0
 34106  1  0  0  0
 35 44  2  0  0  0
 35 45  1  0  0  0
 35 68  1  0  0  0
 36 56  1  0  0  0
 36107  1  0  0  0
 37 39  1  0  0  0
 37 47  1  0  0  0
 37 66  1  0  0  0
 37108  1  0  0  0
 38 43  2  0  0  0
 38 46  1  0  0  0
 38 47  1  0  0  0
 39 64  1  0  0  0
 39 67  2  0  0  0
 40 52  1  0  0  0
 40 53  2  0  0  0
 40 58  1  0  0  0
 41109  1  0  0  0
 41110  1  0  0  0
 41111  1  0  0  0
 41 48  1  0  0  0
 42 43  1  0  0  0
 42 66  1  0  0  0
 42112  1  0  0  0
 42113  1  0  0  0
 43 44  1  0  0  0
 44114  1  0  0  0
 45 46  2  0  0  0
 45115  1  0  0  0
 46116  1  0  0  0
 47117  1  0  0  0
 47118  1  0  0  0
 48 56  1  0  0  0
 48 65  1  0  0  0
 48119  1  0  0  0
 49 50  1  0  0  0
 49 53  1  0  0  0
 49 64  1  0  0  0
 49120  1  0  0  0
 50 51  1  0  0  0
 50121  1  0  0  0
 50122  1  0  0  0
 51 52  1  0  0  0
 51123  1  0  0  0
 51124  1  0  0  0
 52125  1  0  0  0
 52126  1  0  0  0
 53 54  1  0  0  0
 54 55  2  0  0  0
 54127  1  0  0  0
 55 57  1  0  0  0
 55128  1  0  0  0
 56 69  2  0  0  0
 57 58  2  0  0  0
 57129  1  0  0  0
 58130  1  0  0  0
 59 60  1  0  0  0
 59 61  1  0  0  0
 59 62  1  0  0  0
 60131  1  0  0  0
 60132  1  0  0  0
 60133  1  0  0  0
 61134  1  0  0  0
 61135  1  0  0  0
 61136  1  0  0  0
 62137  1  0  0  0
 62138  1  0  0  0
 62139  1  0  0  0
 63 65  1  0  0  0
 63140  1  0  0  0
 63141  1  0  0  0
 63142  1  0  0  0
 64143  1  0  0  0
 65144  1  0  0  0
 68 80  1  0  0  0
 71 74  2  0  0  0
 71 75  1  0  0  0
 71145  1  0  0  0
 72 74  1  0  0  0
 72 76  2  0  0  0
 72146  1  0  0  0
 73 75  2  0  0  0
 73 76  1  0  0  0
 73147  1  0  0  0
 74 78  1  0  0  0
 75 79  1  0  0  0
 76 80  1  0  0  0
 77 78  1  0  0  0
 77148  1  0  0  0
 77149  1  0  0  0
 77150  1  0  0  0
 78151  1  0  0  0
 78152  1  0  0  0
 79 81  1  0  0  0
 79153  1  0  0  0
 79154  1  0  0  0
 80155  1  0  0  0
 80156  1  0  0  0
 81 82  1  0  0  0
 81157  1  0  0  0
 81158  1  0  0  0
 82 83  1  0  0  0
 82159  1  0  0  0
 82160  1  0  0  0
 83 84  1  0  0  0
 83161  1  0  0  0
 83162  1  0  0  0
 84 85  1  0  0  0
 84163  1  0  0  0
 84164  1  0  0  0
 85165  1  0  0  0
M  ISO  4   1 100  68 101  80 101  85 100
M  END
> <chiral flag>
0

> <version>
0

> <s_m_source_file>
/data/baiqing/PycharmProjects/Reinvent-master-3.2/result/LINK_invent/BTK/process_docking_weight1_custom_sum_contain_oxygen_bond_distance_aromatic_linkinvent_7_9_3/rearranged_h_0036.sdf

> <i_m_source_file_index>
68

> <r_mmod_Potential_Energy-OPLS-2005>
-76.2433700561523

> <r_mmod_Stretch_Energy-OPLS-2005>
32.0071449279785

> <r_mmod_Bend_Energy-OPLS-2005>
88.2491836547852

> <r_mmod_Torsional_Energy-OPLS-2005>
207.948791503906

> <r_mmod_Improper_Torsional_Energy-OPLS-2005>
2.05549716949463

> <r_mmod_Van_der_Waal_Energy-OPLS-2005>
150.587600708008

> <r_mmod_Electrostatic_Energy-OPLS-2005>
-363.820526123047

> <r_mmod_Solvation_Energy-OPLS-2005>
-200.08869934082

> <b_mmod_Minimization_Converged-OPLS-2005>
0

> <r_mmod_RMS_Derivative-OPLS-2005>
1.44404482841492

$$$$
69
                    3D
 Structure written by MMmdl.
191199  0  0  1  0            999 V2000
  -30.6955  -14.4127   20.5870 C   0  0  0  0  0  0
  -30.4258  -12.2808   19.3989 C   0  0  0  0  0  0
  -29.4856  -12.5168   18.1969 C   0  0  0  0  0  0
  -28.0095  -12.3650   18.6151 C   0  0  0  0  0  0
  -27.6661  -13.1825   19.8870 C   0  0  2  0  0  0
  -28.7091  -12.9211   20.9997 C   0  0  0  0  0  0
  -25.2646  -13.8121   20.5747 C   0  0  0  0  0  0
  -24.1844  -13.0449   20.9169 C   0  0  0  0  0  0
  -24.6343  -11.6897   20.8744 C   0  0  0  0  0  0
  -23.8977  -10.4312   21.0442 C   0  0  0  0  0  0
  -24.3541   -9.4236   21.9223 C   0  0  0  0  0  0
  -23.6245   -8.2250   22.0764 C   0  0  0  0  0  0
  -22.4240   -8.0274   21.3538 C   0  0  0  0  0  0
  -21.9852   -9.0253   20.4659 C   0  0  0  0  0  0
  -22.7160  -10.2147   20.3089 C   0  0  0  0  0  0
  -21.6851   -6.0728   22.5281 C   0  0  0  0  0  0
  -21.4025   -6.5642   23.8218 C   0  0  0  0  0  0
  -21.3664   -5.6786   24.9174 C   0  0  0  0  0  0
  -21.6029   -4.3053   24.7227 C   0  0  0  0  0  0
  -21.8823   -3.8139   23.4351 C   0  0  0  0  0  0
  -21.9203   -4.6961   22.3411 C   0  0  0  0  0  0
  -22.7868  -13.5301   21.1795 C   0  0  0  0  0  0
  -22.1674   -4.2155   21.0982 F   0  0  0  0  0  0
  -21.5614   -3.4543   25.7748 F   0  0  0  0  0  0
  -30.0477  -13.2280   20.4577 N   0  0  0  0  0  0
  -26.3035  -12.9219   20.3428 N   0  0  0  0  0  0
  -25.9259  -11.6403   20.5748 N   0  0  0  0  0  0
  -22.0447  -12.8360   22.0340 N   0  0  0  0  0  0
  -25.4453  -15.1844   20.4234 N   0  0  0  0  0  0
  -31.8027  -14.6494   20.0937 O   0  0  0  0  0  0
  -21.6608   -6.8868   21.4243 O   0  0  0  0  0  0
  -22.3607  -14.5631   20.6632 O   0  0  0  0  0  0
  -24.6100  -31.8706   23.2128 C   0  0  0  0  0  0
  -25.9012  -32.4838   23.8419 C   0  0  1  0  0  0
  -27.2463  -27.4815   20.0953 C   0  0  0  0  0  0
  -25.5886  -33.8636   24.2359 N   0  0  0  0  0  0
  -23.3975  -30.4917   21.5515 C   0  0  2  0  0  0
  -24.8493  -28.9582   20.1194 C   0  0  0  0  0  0
  -22.7393  -29.4658   22.5010 C   0  0  0  0  0  0
  -18.0270  -28.1371   22.8497 C   0  0  0  0  0  0
  -24.1488  -36.7321   23.2635 C   0  0  0  0  0  0
  -25.9207  -30.8489   21.3611 C   0  0  0  0  0  0
  -26.0022  -29.4830   20.7174 C   0  0  0  0  0  0
  -27.2050  -28.7481   20.7098 C   0  0  0  0  0  0
  -26.0842  -26.9550   19.4967 C   0  0  0  0  0  0
  -24.8812  -27.6895   19.5100 C   0  0  0  0  0  0
  -23.6074  -29.8193   20.1670 C   0  0  0  0  0  0
  -25.4103  -36.3125   24.0347 C   0  0  1  0  0  0
  -20.5856  -28.3647   23.1337 C   0  0  2  0  0  0
  -20.6760  -26.9389   22.5425 C   0  0  0  0  0  0
  -19.5742  -26.6387   21.5214 C   0  0  0  0  0  0
  -18.1917  -26.7925   22.1620 C   0  0  0  0  0  0
  -19.1518  -28.8828   23.2918 C   0  0  0  0  0  0
  -18.9446  -30.1435   23.8925 C   0  0  0  0  0  0
  -17.6448  -30.6581   24.0567 C   0  0  0  0  0  0
  -25.9023  -34.9485   23.5149 C   0  0  0  0  0  0
  -16.5340  -29.9086   23.6315 C   0  0  0  0  0  0
  -16.7259  -28.6503   23.0338 C   0  0  0  0  0  0
  -26.4461  -31.6599   25.0724 C   0  0  0  0  0  0
  -25.3743  -31.3688   26.1484 C   0  0  0  0  0  0
  -27.0275  -30.3051   24.6051 C   0  0  0  0  0  0
  -27.6061  -32.4294   25.7473 C   0  0  0  0  0  0
  -27.5586  -37.1814   24.8464 C   0  0  0  0  0  0
  -21.4126  -29.3022   22.3756 N   0  0  0  0  0  0
  -26.4297  -37.3802   23.9412 N   0  0  0  0  0  0
  -24.6603  -31.0841   22.1010 N   0  0  0  0  0  0
  -23.4187  -28.8195   23.3029 O   0  0  0  0  0  0
  -28.4202  -26.7792   20.0454 O   0  0  0  0  0  0
  -26.5577  -34.8927   22.4704 O   0  0  0  0  0  0
  -23.5303  -32.1437   23.7543 O   0  0  0  0  0  0
  -27.5209  -23.7516   20.5660 C   0  0  0  0  0  0
  -29.9329  -23.8467   20.4771 C   0  0  0  0  0  0
  -28.7064  -24.4831   20.7431 C   0  0  0  0  0  0
  -27.6039  -22.4209   20.1302 C   0  0  0  0  0  0
  -29.9254  -22.5079   20.0456 C   0  0  0  0  0  0
  -24.6130  -20.0745   21.0264 C   0  0  0  0  0  0
  -28.6476  -25.9351   21.1688 C   0  0  0  0  0  0
  -26.3362  -21.6114   19.9361 C   0  0  0  0  0  0
  -31.2343  -21.8056   19.7102 C   0  0  0  0  0  0
  -25.9703  -20.7762   21.1719 C   0  0  0  0  0  0
  -31.6961  -22.0255   18.2546 C   0  0  0  0  0  0
  -30.8802  -21.2298   17.2251 C   0  0  0  0  0  0
  -28.2815  -18.1579   17.3548 C   0  0  0  0  0  0
  -28.7528  -18.1942   18.8192 C   0  0  0  0  0  0
  -27.3673  -19.3369   16.9851 C   0  0  0  0  0  0
  -29.4379  -16.8768   19.1949 C   0  0  0  0  0  0
  -31.2107  -21.5815   15.7614 C   0  0  0  0  0  0
  -26.9979  -19.4382   15.4863 C   0  0  0  0  0  0
  -29.9493  -16.7834   20.6489 C   0  0  0  0  0  0
  -30.4590  -20.6800   14.7658 C   0  0  0  0  0  0
  -28.1988  -19.6306   14.5390 C   0  0  0  0  0  0
  -28.7816  -21.8057   19.8767 N   0  0  0  0  0  0
  -29.9305  -15.3896   21.0909 N   0  0  0  0  0  0
  -28.9948  -20.8128   14.9277 N   0  3  0  0  0  0
  -31.4670  -12.3964   19.0914 H   0  0  0  0  0  0
  -30.3314  -11.2561   19.7600 H   0  0  0  0  0  0
  -29.7202  -11.8211   17.3909 H   0  0  0  0  0  0
  -29.6472  -13.5196   17.7973 H   0  0  0  0  0  0
  -27.8240  -11.3047   18.7957 H   0  0  0  0  0  0
  -27.3493  -12.6545   17.7970 H   0  0  0  0  0  0
  -27.7156  -14.2324   19.6109 H   0  0  0  0  0  0
  -28.6737  -11.8752   21.3090 H   0  0  0  0  0  0
  -28.4755  -13.4880   21.9016 H   0  0  0  0  0  0
  -25.2699   -9.5713   22.4777 H   0  0  0  0  0  0
  -23.9983   -7.4649   22.7478 H   0  0  0  0  0  0
  -21.0782   -8.8767   19.8963 H   0  0  0  0  0  0
  -22.3641  -10.9681   19.6191 H   0  0  0  0  0  0
  -21.2026   -7.6150   23.9731 H   0  0  0  0  0  0
  -21.1477   -6.0507   25.9072 H   0  0  0  0  0  0
  -22.0597   -2.7600   23.2844 H   0  0  0  0  0  0
  -22.3993  -12.0021   22.4789 H   0  0  0  0  0  0
  -21.1082  -13.1478   22.2521 H   0  0  0  0  0  0
  -24.6912  -15.8500   20.5473 H   0  0  0  0  0  0
  -26.3113  -15.6202   20.1357 H   0  0  0  0  0  0
  -26.7089  -32.5574   23.1198 H   0  0  0  0  0  0
  -25.0079  -33.9812   25.0534 H   0  0  0  0  0  0
  -22.6842  -31.3062   21.4107 H   0  0  0  0  0  0
  -23.3749  -35.9654   23.3304 H   0  0  0  0  0  0
  -24.3597  -36.8920   22.2048 H   0  0  0  0  0  0
  -23.7236  -37.6532   23.6633 H   0  0  0  0  0  0
  -26.0230  -31.6115   20.5877 H   0  0  0  0  0  0
  -26.8123  -30.9102   21.9731 H   0  0  0  0  0  0
  -28.0996  -29.1540   21.1622 H   0  0  0  0  0  0
  -26.1155  -25.9850   19.0195 H   0  0  0  0  0  0
  -23.9955  -27.2781   19.0456 H   0  0  0  0  0  0
  -23.7141  -30.5918   19.4051 H   0  0  0  0  0  0
  -22.7342  -29.2351   19.8710 H   0  0  0  0  0  0
  -25.1274  -36.2003   25.0841 H   0  0  0  0  0  0
  -20.9947  -28.3202   24.1457 H   0  0  0  0  0  0
  -20.5654  -26.2250   23.3603 H   0  0  0  0  0  0
  -21.6631  -26.7436   22.1214 H   0  0  0  0  0  0
  -19.6894  -25.6304   21.1224 H   0  0  0  0  0  0
  -19.6680  -27.3217   20.6760 H   0  0  0  0  0  0
  -17.4188  -26.6685   21.4018 H   0  0  0  0  0  0
  -18.0305  -26.0062   22.9008 H   0  0  0  0  0  0
  -19.7921  -30.7246   24.2309 H   0  0  0  0  0  0
  -17.5000  -31.6263   24.5166 H   0  0  0  0  0  0
  -15.5339  -30.2994   23.7624 H   0  0  0  0  0  0
  -15.8659  -28.0833   22.7027 H   0  0  0  0  0  0
  -24.5938  -30.7001   25.7839 H   0  0  0  0  0  0
  -24.8901  -32.2827   26.4933 H   0  0  0  0  0  0
  -25.8117  -30.8880   27.0242 H   0  0  0  0  0  0
  -26.2803  -29.6835   24.1102 H   0  0  0  0  0  0
  -27.4068  -29.7260   25.4480 H   0  0  0  0  0  0
  -27.8628  -30.4396   23.9174 H   0  0  0  0  0  0
  -27.2715  -33.3588   26.2092 H   0  0  0  0  0  0
  -28.3848  -32.6852   25.0276 H   0  0  0  0  0  0
  -28.0749  -31.8380   26.5349 H   0  0  0  0  0  0
  -28.2606  -38.0111   24.7520 H   0  0  0  0  0  0
  -28.1082  -36.2646   24.6275 H   0  0  0  0  0  0
  -27.2311  -37.1446   25.8870 H   0  0  0  0  0  0
  -20.9276  -29.8777   21.7015 H   0  0  0  0  0  0
  -26.0194  -38.2885   24.1410 H   0  0  0  0  0  0
  -26.5610  -24.2128   20.7541 H   0  0  0  0  0  0
  -30.8651  -24.3842   20.5891 H   0  0  0  0  0  0
  -24.3762  -19.4901   21.9160 H   0  0  0  0  0  0
  -24.6083  -19.3968   20.1724 H   0  0  0  0  0  0
  -23.8101  -20.7998   20.8851 H   0  0  0  0  0  0
  -29.5891  -26.2182   21.6404 H   0  0  0  0  0  0
  -27.8790  -26.0448   21.9382 H   0  0  0  0  0  0
  -26.4501  -20.9633   19.0706 H   0  0  0  0  0  0
  -25.5212  -22.2939   19.6905 H   0  0  0  0  0  0
  -31.1487  -20.7394   19.9250 H   0  0  0  0  0  0
  -32.0022  -22.1805   20.3866 H   0  0  0  0  0  0
  -26.7530  -20.0397   21.3595 H   0  0  0  0  0  0
  -25.9422  -21.4253   22.0480 H   0  0  0  0  0  0
  -32.7403  -21.7241   18.1697 H   0  0  0  0  0  0
  -31.6665  -23.0904   18.0227 H   0  0  0  0  0  0
  -29.8232  -21.4135   17.4051 H   0  0  0  0  0  0
  -31.0414  -20.1635   17.3939 H   0  0  0  0  0  0
  -27.7452  -17.2284   17.1603 H   0  0  0  0  0  0
  -29.1643  -18.1340   16.7180 H   0  0  0  0  0  0
  -29.4349  -19.0316   18.9739 H   0  0  0  0  0  0
  -27.9001  -18.3596   19.4821 H   0  0  0  0  0  0
  -27.8222  -20.2666   17.3219 H   0  0  0  0  0  0
  -26.4425  -19.2388   17.5563 H   0  0  0  0  0  0
  -30.2670  -16.6857   18.5116 H   0  0  0  0  0  0
  -28.7131  -16.0850   19.0105 H   0  0  0  0  0  0
  -32.2828  -21.4732   15.5928 H   0  0  0  0  0  0
  -30.9804  -22.6298   15.5671 H   0  0  0  0  0  0
  -26.2985  -20.2649   15.3528 H   0  0  0  0  0  0
  -26.4482  -18.5454   15.1823 H   0  0  0  0  0  0
  -29.3015  -17.3505   21.3181 H   0  0  0  0  0  0
  -30.9491  -17.2121   20.7356 H   0  0  0  0  0  0
  -30.7705  -19.6485   14.9401 H   0  0  0  0  0  0
  -30.7337  -20.9173   13.7376 H   0  0  0  0  0  0
  -27.8570  -19.7525   13.5119 H   0  0  0  0  0  0
  -28.8077  -18.7264   14.5414 H   0  0  0  0  0  0
  -29.0728  -15.0814   21.5247 H   0  0  0  0  0  0
  -28.6609  -21.6297   14.4379 H   0  0  0  0  0  0
  -28.8249  -20.9545   15.9099 H   0  0  0  0  0  0
  1 25  1  0  0  0
  1 30  2  0  0  0
  1 93  1  0  0  0
  2  3  1  0  0  0
  2 25  1  0  0  0
  2 95  1  0  0  0
  2 96  1  0  0  0
  3  4  1  0  0  0
  3 97  1  0  0  0
  3 98  1  0  0  0
  4  5  1  0  0  0
  4 99  1  0  0  0
  4100  1  0  0  0
  5  6  1  0  0  0
  5 26  1  0  0  0
  5101  1  0  0  0
  6 25  1  0  0  0
  6102  1  0  0  0
  6103  1  0  0  0
  7  8  2  0  0  0
  7 26  1  0  0  0
  7 29  1  0  0  0
  8  9  1  0  0  0
  8 22  1  0  0  0
  9 10  1  0  0  0
  9 27  2  0  0  0
 10 11  2  0  0  0
 10 15  1  0  0  0
 11 12  1  0  0  0
 11104  1  0  0  0
 12 13  2  0  0  0
 12105  1  0  0  0
 13 14  1  0  0  0
 13 31  1  0  0  0
 14 15  2  0  0  0
 14106  1  0  0  0
 15107  1  0  0  0
 16 17  2  0  0  0
 16 21  1  0  0  0
 16 31  1  0  0  0
 17 18  1  0  0  0
 17108  1  0  0  0
 18 19  2  0  0  0
 18109  1  0  0  0
 19 20  1  0  0  0
 19 24  1  0  0  0
 20 21  2  0  0  0
 20110  1  0  0  0
 21 23  1  0  0  0
 22 28  1  0  0  0
 22 32  2  0  0  0
 26 27  1  0  0  0
 28111  1  0  0  0
 28112  1  0  0  0
 29113  1  0  0  0
 29114  1  0  0  0
 33 34  1  0  0  0
 33 66  1  0  0  0
 33 70  2  0  0  0
 34 36  1  0  0  0
 34 59  1  0  0  0
 34115  1  0  0  0
 35 44  2  0  0  0
 35 45  1  0  0  0
 35 68  1  0  0  0
 36 56  1  0  0  0
 36116  1  0  0  0
 37 39  1  0  0  0
 37 47  1  0  0  0
 37 66  1  0  0  0
 37117  1  0  0  0
 38 43  2  0  0  0
 38 46  1  0  0  0
 38 47  1  0  0  0
 39 64  1  0  0  0
 39 67  2  0  0  0
 40 52  1  0  0  0
 40 53  2  0  0  0
 40 58  1  0  0  0
 41118  1  0  0  0
 41119  1  0  0  0
 41120  1  0  0  0
 41 48  1  0  0  0
 42 43  1  0  0  0
 42 66  1  0  0  0
 42121  1  0  0  0
 42122  1  0  0  0
 43 44  1  0  0  0
 44123  1  0  0  0
 45 46  2  0  0  0
 45124  1  0  0  0
 46125  1  0  0  0
 47126  1  0  0  0
 47127  1  0  0  0
 48 56  1  0  0  0
 48 65  1  0  0  0
 48128  1  0  0  0
 49 50  1  0  0  0
 49 53  1  0  0  0
 49 64  1  0  0  0
 49129  1  0  0  0
 50 51  1  0  0  0
 50130  1  0  0  0
 50131  1  0  0  0
 51 52  1  0  0  0
 51132  1  0  0  0
 51133  1  0  0  0
 52134  1  0  0  0
 52135  1  0  0  0
 53 54  1  0  0  0
 54 55  2  0  0  0
 54136  1  0  0  0
 55 57  1  0  0  0
 55137  1  0  0  0
 56 69  2  0  0  0
 57 58  2  0  0  0
 57138  1  0  0  0
 58139  1  0  0  0
 59 60  1  0  0  0
 59 61  1  0  0  0
 59 62  1  0  0  0
 60140  1  0  0  0
 60141  1  0  0  0
 60142  1  0  0  0
 61143  1  0  0  0
 61144  1  0  0  0
 61145  1  0  0  0
 62146  1  0  0  0
 62147  1  0  0  0
 62148  1  0  0  0
 63 65  1  0  0  0
 63149  1  0  0  0
 63150  1  0  0  0
 63151  1  0  0  0
 64152  1  0  0  0
 65153  1  0  0  0
 68 77  1  0  0  0
 71 73  2  0  0  0
 71 74  1  0  0  0
 71154  1  0  0  0
 72 73  1  0  0  0
 72 75  2  0  0  0
 72155  1  0  0  0
 73 77  1  0  0  0
 74 78  1  0  0  0
 74 92  2  0  0  0
 75 79  1  0  0  0
 75 92  1  0  0  0
 76 80  1  0  0  0
 76156  1  0  0  0
 76157  1  0  0  0
 76158  1  0  0  0
 77159  1  0  0  0
 77160  1  0  0  0
 78 80  1  0  0  0
 78161  1  0  0  0
 78162  1  0  0  0
 79 81  1  0  0  0
 79163  1  0  0  0
 79164  1  0  0  0
 80165  1  0  0  0
 80166  1  0  0  0
 81 82  1  0  0  0
 81167  1  0  0  0
 81168  1  0  0  0
 82 87  1  0  0  0
 82169  1  0  0  0
 82170  1  0  0  0
 83 84  1  0  0  0
 83 85  1  0  0  0
 83171  1  0  0  0
 83172  1  0  0  0
 84 86  1  0  0  0
 84173  1  0  0  0
 84174  1  0  0  0
 85 88  1  0  0  0
 85175  1  0  0  0
 85176  1  0  0  0
 86 89  1  0  0  0
 86177  1  0  0  0
 86178  1  0  0  0
 87 90  1  0  0  0
 87179  1  0  0  0
 87180  1  0  0  0
 88 91  1  0  0  0
 88181  1  0  0  0
 88182  1  0  0  0
 89 93  1  0  0  0
 89183  1  0  0  0
 89184  1  0  0  0
 90 94  1  0  0  0
 90185  1  0  0  0
 90186  1  0  0  0
 91 94  1  0  0  0
 91187  1  0  0  0
 91188  1  0  0  0
 93189  1  0  0  0
 94190  1  0  0  0
 94191  1  0  0  0
M  CHG  1  94   1
M  ISO  4   1 100  68 101  77 101  93 100
M  END
> <chiral flag>
0

> <version>
0

> <s_m_source_file>
/data/baiqing/PycharmProjects/Reinvent-master-3.2/result/LINK_invent/BTK/process_docking_weight1_custom_sum_contain_oxygen_bond_distance_aromatic_linkinvent_7_9_3/rearranged_h_0036.sdf

> <i_m_source_file_index>
69

> <r_mmod_Potential_Energy-OPLS-2005>
-321.338562011719

> <r_mmod_Stretch_Energy-OPLS-2005>
31.9569473266602

> <r_mmod_Bend_Energy-OPLS-2005>
92.0402297973633

> <r_mmod_Torsional_Energy-OPLS-2005>
270.954559326172

> <r_mmod_Improper_Torsional_Energy-OPLS-2005>
6.90665483474731

> <r_mmod_Van_der_Waal_Energy-OPLS-2005>
124.663734436035

> <r_mmod_Electrostatic_Energy-OPLS-2005>
-420.636566162109

> <r_mmod_Solvation_Energy-OPLS-2005>
-435.259338378906

> <b_mmod_Minimization_Converged-OPLS-2005>
0

> <r_mmod_RMS_Derivative-OPLS-2005>
2.45873856544495

$$$$
70
                    3D
 Structure written by MMmdl.
151159  0  0  1  0            999 V2000
  -30.6835  -14.6072   20.5218 C   0  0  0  0  0  0
  -30.4313  -12.3796   19.4544 C   0  0  0  0  0  0
  -29.5024  -12.4803   18.2261 C   0  0  0  0  0  0
  -28.0337  -12.3074   18.6550 C   0  0  0  0  0  0
  -27.6532  -13.2132   19.8570 C   0  0  2  0  0  0
  -28.6984  -13.1036   20.9914 C   0  0  0  0  0  0
  -25.2566  -13.8175   20.5694 C   0  0  0  0  0  0
  -24.1827  -13.0450   20.9202 C   0  0  0  0  0  0
  -24.6392  -11.6917   20.8768 C   0  0  0  0  0  0
  -23.9063  -10.4301   21.0448 C   0  0  0  0  0  0
  -24.3625   -9.4201   21.9209 C   0  0  0  0  0  0
  -23.6295   -8.2234   22.0769 C   0  0  0  0  0  0
  -22.4273   -8.0289   21.3560 C   0  0  0  0  0  0
  -21.9898   -9.0273   20.4674 C   0  0  0  0  0  0
  -22.7233  -10.2153   20.3094 C   0  0  0  0  0  0
  -21.6845   -6.0745   22.5286 C   0  0  0  0  0  0
  -21.4008   -6.5644   23.8221 C   0  0  0  0  0  0
  -21.3657   -5.6793   24.9182 C   0  0  0  0  0  0
  -21.6043   -4.3053   24.7228 C   0  0  0  0  0  0
  -21.8816   -3.8154   23.4344 C   0  0  0  0  0  0
  -21.9178   -4.6977   22.3406 C   0  0  0  0  0  0
  -22.7849  -13.5267   21.1828 C   0  0  0  0  0  0
  -22.1651   -4.2164   21.0983 F   0  0  0  0  0  0
  -21.5625   -3.4536   25.7737 F   0  0  0  0  0  0
  -30.0127  -13.4205   20.4150 N   0  0  0  0  0  0
  -26.2991  -12.9349   20.3322 N   0  0  0  0  0  0
  -25.9323  -11.6508   20.5795 N   0  0  0  0  0  0
  -22.0456  -12.8321   22.0404 N   0  0  0  0  0  0
  -25.4299  -15.1883   20.4101 N   0  0  0  0  0  0
  -31.8486  -14.7187   20.1337 O   0  0  0  0  0  0
  -21.6629   -6.8893   21.4250 O   0  0  0  0  0  0
  -22.3561  -14.5569   20.6640 O   0  0  0  0  0  0
  -24.6263  -31.8612   23.2057 C   0  0  0  0  0  0
  -25.9108  -32.4793   23.8377 C   0  0  1  0  0  0
  -27.2158  -27.3177   20.1125 C   0  0  0  0  0  0
  -25.5913  -33.8590   24.2304 N   0  0  0  0  0  0
  -23.4199  -30.4892   21.5474 C   0  0  2  0  0  0
  -24.8659  -28.9528   20.1069 C   0  0  0  0  0  0
  -22.7487  -29.4633   22.4924 C   0  0  0  0  0  0
  -18.0299  -28.1378   22.8517 C   0  0  0  0  0  0
  -24.1482  -36.7299   23.2643 C   0  0  0  0  0  0
  -25.9640  -30.7906   21.3812 C   0  0  0  0  0  0
  -26.0344  -29.4194   20.7204 C   0  0  0  0  0  0
  -27.2107  -28.6121   20.7205 C   0  0  0  0  0  0
  -26.0281  -26.9221   19.4478 C   0  0  0  0  0  0
  -24.8649  -27.7102   19.4615 C   0  0  0  0  0  0
  -23.6336  -29.8320   20.1597 C   0  0  0  0  0  0
  -25.4103  -36.3087   24.0339 C   0  0  1  0  0  0
  -20.5897  -28.3681   23.1290 C   0  0  2  0  0  0
  -20.6774  -26.9401   22.5417 C   0  0  0  0  0  0
  -19.5729  -26.6378   21.5235 C   0  0  0  0  0  0
  -18.1919  -26.7924   22.1656 C   0  0  0  0  0  0
  -19.1549  -28.8847   23.2897 C   0  0  0  0  0  0
  -18.9465  -30.1456   23.8904 C   0  0  0  0  0  0
  -17.6459  -30.6587   24.0562 C   0  0  0  0  0  0
  -25.9038  -34.9465   23.5124 C   0  0  0  0  0  0
  -16.5355  -29.9083   23.6328 C   0  0  0  0  0  0
  -16.7284  -28.6496   23.0364 C   0  0  0  0  0  0
  -26.4493  -31.6599   25.0740 C   0  0  0  0  0  0
  -25.3739  -31.3751   26.1483 C   0  0  0  0  0  0
  -27.0322  -30.3014   24.6207 C   0  0  0  0  0  0
  -27.6055  -32.4350   25.7488 C   0  0  0  0  0  0
  -27.5585  -37.1796   24.8465 C   0  0  0  0  0  0
  -21.4196  -29.3045   22.3682 N   0  0  0  0  0  0
  -26.4278  -37.3789   23.9431 N   0  0  0  0  0  0
  -24.6891  -31.0641   22.1006 N   0  0  0  0  0  0
  -23.4218  -28.8156   23.2980 O   0  0  0  0  0  0
  -28.3142  -26.4419   20.1968 O   0  0  0  0  0  0
  -26.5621  -34.8926   22.4697 O   0  0  0  0  0  0
  -23.5424  -32.1402   23.7384 O   0  0  0  0  0  0
  -30.7798  -19.3779   20.1656 C   0  0  0  0  0  0
  -29.9888  -18.4396   20.8636 C   0  0  0  0  0  0
  -28.7596  -18.9781   21.2957 C   0  0  0  0  0  0
  -29.1876  -21.0532   20.3322 C   0  0  0  0  0  0
  -30.5704  -17.0454   21.3111 C   0  0  0  0  0  0
  -28.6212  -22.4171   19.8046 C   0  0  0  0  0  0
  -28.9797  -23.8256   20.4505 C   0  0  0  0  0  0
  -28.0788  -25.0092   19.8899 C   0  0  0  0  0  0
  -30.3832  -20.6539   19.9010 N   0  0  0  0  0  0
  -28.3714  -20.2555   21.0254 N   0  0  0  0  0  0
  -29.9829  -15.7100   20.9339 N   0  0  0  0  0  0
  -27.9301  -18.2051   22.0335 F   0  0  0  0  0  0
  -31.4737  -12.4829   19.1493 H   0  0  0  0  0  0
  -30.3550  -11.3937   19.9162 H   0  0  0  0  0  0
  -29.7708  -11.7179   17.4933 H   0  0  0  0  0  0
  -29.6334  -13.4427   17.7299 H   0  0  0  0  0  0
  -27.9065  -11.2614   18.9391 H   0  0  0  0  0  0
  -27.3617  -12.4756   17.8123 H   0  0  0  0  0  0
  -27.6675  -14.2399   19.4889 H   0  0  0  0  0  0
  -28.7059  -12.1002   21.4194 H   0  0  0  0  0  0
  -28.4476  -13.7758   21.8133 H   0  0  0  0  0  0
  -25.2784   -9.5663   22.4778 H   0  0  0  0  0  0
  -23.9999   -7.4627   22.7498 H   0  0  0  0  0  0
  -21.0800   -8.8818   19.9011 H   0  0  0  0  0  0
  -22.3697  -10.9705   19.6216 H   0  0  0  0  0  0
  -21.2011   -7.6156   23.9732 H   0  0  0  0  0  0
  -21.1478   -6.0525   25.9087 H   0  0  0  0  0  0
  -22.0592   -2.7615   23.2837 H   0  0  0  0  0  0
  -22.4039  -12.0024   22.4889 H   0  0  0  0  0  0
  -21.1111  -13.1452   22.2616 H   0  0  0  0  0  0
  -24.6634  -15.8425   20.5300 H   0  0  0  0  0  0
  -26.2793  -15.6267   20.0771 H   0  0  0  0  0  0
  -26.7174  -32.5460   23.1120 H   0  0  0  0  0  0
  -25.0021  -33.9737   25.0425 H   0  0  0  0  0  0
  -22.7131  -31.3111   21.4097 H   0  0  0  0  0  0
  -23.3742  -35.9629   23.3290 H   0  0  0  0  0  0
  -24.3584  -36.8934   22.2061 H   0  0  0  0  0  0
  -23.7230  -37.6498   23.6667 H   0  0  0  0  0  0
  -26.1032  -31.5545   20.6145 H   0  0  0  0  0  0
  -26.8417  -30.8329   22.0148 H   0  0  0  0  0  0
  -28.1027  -28.9601   21.2224 H   0  0  0  0  0  0
  -25.9548  -25.9860   18.9150 H   0  0  0  0  0  0
  -23.9732  -27.3539   18.9656 H   0  0  0  0  0  0
  -23.7540  -30.6127   19.4079 H   0  0  0  0  0  0
  -22.7527  -29.2636   19.8564 H   0  0  0  0  0  0
  -25.1272  -36.1942   25.0827 H   0  0  0  0  0  0
  -21.0014  -28.3257   24.1396 H   0  0  0  0  0  0
  -20.5700  -26.2283   23.3614 H   0  0  0  0  0  0
  -21.6633  -26.7439   22.1180 H   0  0  0  0  0  0
  -19.6868  -25.6291   21.1253 H   0  0  0  0  0  0
  -19.6646  -27.3204   20.6774 H   0  0  0  0  0  0
  -17.4186  -26.6711   21.4061 H   0  0  0  0  0  0
  -18.0293  -26.0059   22.9040 H   0  0  0  0  0  0
  -19.7933  -30.7282   24.2265 H   0  0  0  0  0  0
  -17.5007  -31.6267   24.5158 H   0  0  0  0  0  0
  -15.5348  -30.2975   23.7633 H   0  0  0  0  0  0
  -15.8692  -28.0807   22.7067 H   0  0  0  0  0  0
  -24.5812  -30.7230   25.7806 H   0  0  0  0  0  0
  -24.9040  -32.2927   26.5031 H   0  0  0  0  0  0
  -25.8037  -30.8801   27.0200 H   0  0  0  0  0  0
  -26.2891  -29.6776   24.1215 H   0  0  0  0  0  0
  -27.3994  -29.7272   25.4728 H   0  0  0  0  0  0
  -27.8788  -30.4303   23.9452 H   0  0  0  0  0  0
  -27.2640  -33.3602   26.2153 H   0  0  0  0  0  0
  -28.3778  -32.7020   25.0261 H   0  0  0  0  0  0
  -28.0825  -31.8442   26.5321 H   0  0  0  0  0  0
  -28.2584  -38.0109   24.7520 H   0  0  0  0  0  0
  -28.1081  -36.2639   24.6240 H   0  0  0  0  0  0
  -27.2315  -37.1411   25.8869 H   0  0  0  0  0  0
  -20.9355  -29.8788   21.6920 H   0  0  0  0  0  0
  -26.0152  -38.2855   24.1452 H   0  0  0  0  0  0
  -31.7719  -19.1093   19.8326 H   0  0  0  0  0  0
  -30.5576  -17.0623   22.4024 H   0  0  0  0  0  0
  -31.6320  -17.0502   21.0600 H   0  0  0  0  0  0
  -27.5360  -22.3167   19.8125 H   0  0  0  0  0  0
  -28.8813  -22.4666   18.7470 H   0  0  0  0  0  0
  -30.0339  -24.0403   20.2804 H   0  0  0  0  0  0
  -28.8461  -23.7619   21.5312 H   0  0  0  0  0  0
  -27.0802  -24.7361   20.2331 H   0  0  0  0  0  0
  -28.0652  -24.9280   18.8016 H   0  0  0  0  0  0
  -29.0229  -15.5366   21.1898 H   0  0  0  0  0  0
  1 25  1  0  0  0
  1 30  2  0  0  0
  1 81  1  0  0  0
  2  3  1  0  0  0
  2 25  1  0  0  0
  2 83  1  0  0  0
  2 84  1  0  0  0
  3  4  1  0  0  0
  3 85  1  0  0  0
  3 86  1  0  0  0
  4  5  1  0  0  0
  4 87  1  0  0  0
  4 88  1  0  0  0
  5  6  1  0  0  0
  5 26  1  0  0  0
  5 89  1  0  0  0
  6 25  1  0  0  0
  6 90  1  0  0  0
  6 91  1  0  0  0
  7  8  2  0  0  0
  7 26  1  0  0  0
  7 29  1  0  0  0
  8  9  1  0  0  0
  8 22  1  0  0  0
  9 10  1  0  0  0
  9 27  2  0  0  0
 10 11  2  0  0  0
 10 15  1  0  0  0
 11 12  1  0  0  0
 11 92  1  0  0  0
 12 13  2  0  0  0
 12 93  1  0  0  0
 13 14  1  0  0  0
 13 31  1  0  0  0
 14 15  2  0  0  0
 14 94  1  0  0  0
 15 95  1  0  0  0
 16 17  2  0  0  0
 16 21  1  0  0  0
 16 31  1  0  0  0
 17 18  1  0  0  0
 17 96  1  0  0  0
 18 19  2  0  0  0
 18 97  1  0  0  0
 19 20  1  0  0  0
 19 24  1  0  0  0
 20 21  2  0  0  0
 20 98  1  0  0  0
 21 23  1  0  0  0
 22 28  1  0  0  0
 22 32  2  0  0  0
 26 27  1  0  0  0
 28 99  1  0  0  0
 28100  1  0  0  0
 29101  1  0  0  0
 29102  1  0  0  0
 33 34  1  0  0  0
 33 66  1  0  0  0
 33 70  2  0  0  0
 34 36  1  0  0  0
 34 59  1  0  0  0
 34103  1  0  0  0
 35 44  2  0  0  0
 35 45  1  0  0  0
 35 68  1  0  0  0
 36 56  1  0  0  0
 36104  1  0  0  0
 37 39  1  0  0  0
 37 47  1  0  0  0
 37 66  1  0  0  0
 37105  1  0  0  0
 38 43  2  0  0  0
 38 46  1  0  0  0
 38 47  1  0  0  0
 39 64  1  0  0  0
 39 67  2  0  0  0
 40 52  1  0  0  0
 40 53  2  0  0  0
 40 58  1  0  0  0
 41106  1  0  0  0
 41107  1  0  0  0
 41108  1  0  0  0
 41 48  1  0  0  0
 42 43  1  0  0  0
 42 66  1  0  0  0
 42109  1  0  0  0
 42110  1  0  0  0
 43 44  1  0  0  0
 44111  1  0  0  0
 45 46  2  0  0  0
 45112  1  0  0  0
 46113  1  0  0  0
 47114  1  0  0  0
 47115  1  0  0  0
 48 56  1  0  0  0
 48 65  1  0  0  0
 48116  1  0  0  0
 49 50  1  0  0  0
 49 53  1  0  0  0
 49 64  1  0  0  0
 49117  1  0  0  0
 50 51  1  0  0  0
 50118  1  0  0  0
 50119  1  0  0  0
 51 52  1  0  0  0
 51120  1  0  0  0
 51121  1  0  0  0
 52122  1  0  0  0
 52123  1  0  0  0
 53 54  1  0  0  0
 54 55  2  0  0  0
 54124  1  0  0  0
 55 57  1  0  0  0
 55125  1  0  0  0
 56 69  2  0  0  0
 57 58  2  0  0  0
 57126  1  0  0  0
 58127  1  0  0  0
 59 60  1  0  0  0
 59 61  1  0  0  0
 59 62  1  0  0  0
 60128  1  0  0  0
 60129  1  0  0  0
 60130  1  0  0  0
 61131  1  0  0  0
 61132  1  0  0  0
 61133  1  0  0  0
 62134  1  0  0  0
 62135  1  0  0  0
 62136  1  0  0  0
 63 65  1  0  0  0
 63137  1  0  0  0
 63138  1  0  0  0
 63139  1  0  0  0
 64140  1  0  0  0
 65141  1  0  0  0
 68 78  1  0  0  0
 71 72  2  0  0  0
 71 79  1  0  0  0
 71142  1  0  0  0
 72 73  1  0  0  0
 72 75  1  0  0  0
 73 80  2  0  0  0
 73 82  1  0  0  0
 74 76  1  0  0  0
 74 79  2  0  0  0
 74 80  1  0  0  0
 75 81  1  0  0  0
 75143  1  0  0  0
 75144  1  0  0  0
 76 77  1  0  0  0
 76145  1  0  0  0
 76146  1  0  0  0
 77 78  1  0  0  0
 77147  1  0  0  0
 77148  1  0  0  0
 78149  1  0  0  0
 78150  1  0  0  0
 81151  1  0  0  0
M  ISO  4   1 100  68 101  78 101  81 100
M  END
> <chiral flag>
0

> <version>
0

> <s_m_source_file>
/data/baiqing/PycharmProjects/Reinvent-master-3.2/result/LINK_invent/BTK/process_docking_weight1_custom_sum_contain_oxygen_bond_distance_aromatic_linkinvent_7_9_3/rearranged_h_0036.sdf

> <i_m_source_file_index>
70

> <r_mmod_Potential_Energy-OPLS-2005>
-355.918579101562

> <r_mmod_Stretch_Energy-OPLS-2005>
73.5949249267578

> <r_mmod_Bend_Energy-OPLS-2005>
151.683898925781

> <r_mmod_Torsional_Energy-OPLS-2005>
192.716415405273

> <r_mmod_Improper_Torsional_Energy-OPLS-2005>
5.98825407028198

> <r_mmod_Van_der_Waal_Energy-OPLS-2005>
158.13362121582

> <r_mmod_Electrostatic_Energy-OPLS-2005>
-764.570434570312

> <r_mmod_Solvation_Energy-OPLS-2005>
-223.098480224609

> <b_mmod_Minimization_Converged-OPLS-2005>
0

> <r_mmod_RMS_Derivative-OPLS-2005>
2.6348819732666

$$$$
71
                    3D
 Structure written by MMmdl.
162170  0  0  1  0            999 V2000
  -30.7669  -14.3988   20.6728 C   0  0  0  0  0  0
  -30.4302  -12.2946   19.4258 C   0  0  0  0  0  0
  -29.5002  -12.5168   18.2190 C   0  0  0  0  0  0
  -28.0258  -12.3594   18.6336 C   0  0  0  0  0  0
  -27.6734  -13.1993   19.8904 C   0  0  2  0  0  0
  -28.7112  -12.9661   21.0124 C   0  0  0  0  0  0
  -25.2626  -13.8155   20.5649 C   0  0  0  0  0  0
  -24.1877  -13.0426   20.9138 C   0  0  0  0  0  0
  -24.6416  -11.6892   20.8700 C   0  0  0  0  0  0
  -23.9059  -10.4287   21.0360 C   0  0  0  0  0  0
  -24.3611   -9.4208   21.9153 C   0  0  0  0  0  0
  -23.6279   -8.2254   22.0743 C   0  0  0  0  0  0
  -22.4261   -8.0288   21.3547 C   0  0  0  0  0  0
  -21.9893   -9.0250   20.4641 C   0  0  0  0  0  0
  -22.7220  -10.2128   20.3029 C   0  0  0  0  0  0
  -21.6872   -6.0740   22.5279 C   0  0  0  0  0  0
  -21.4024   -6.5638   23.8216 C   0  0  0  0  0  0
  -21.3658   -5.6780   24.9173 C   0  0  0  0  0  0
  -21.6051   -4.3047   24.7229 C   0  0  0  0  0  0
  -21.8814   -3.8156   23.4344 C   0  0  0  0  0  0
  -21.9193   -4.6970   22.3399 C   0  0  0  0  0  0
  -22.7892  -13.5202   21.1820 C   0  0  0  0  0  0
  -22.1641   -4.2159   21.0975 F   0  0  0  0  0  0
  -21.5641   -3.4505   25.7737 F   0  0  0  0  0  0
  -30.0574  -13.2542   20.4770 N   0  0  0  0  0  0
  -26.3095  -12.9307   20.3419 N   0  0  0  0  0  0
  -25.9358  -11.6469   20.5793 N   0  0  0  0  0  0
  -22.0562  -12.8188   22.0399 N   0  0  0  0  0  0
  -25.4330  -15.1863   20.4025 N   0  0  0  0  0  0
  -31.7961  -14.6744   20.0500 O   0  0  0  0  0  0
  -21.6636   -6.8873   21.4248 O   0  0  0  0  0  0
  -22.3545  -14.5492   20.6661 O   0  0  0  0  0  0
  -24.6087  -31.8709   23.2108 C   0  0  0  0  0  0
  -25.8998  -32.4840   23.8400 C   0  0  1  0  0  0
  -27.2614  -27.4726   20.1158 C   0  0  0  0  0  0
  -25.5868  -33.8641   24.2334 N   0  0  0  0  0  0
  -23.3954  -30.4903   21.5494 C   0  0  2  0  0  0
  -24.8474  -28.9575   20.1145 C   0  0  0  0  0  0
  -22.7387  -29.4672   22.5021 C   0  0  0  0  0  0
  -18.0266  -28.1385   22.8495 C   0  0  0  0  0  0
  -24.1486  -36.7330   23.2637 C   0  0  0  0  0  0
  -25.9143  -30.8531   21.3541 C   0  0  0  0  0  0
  -25.9968  -29.4860   20.7130 C   0  0  0  0  0  0
  -27.1985  -28.7538   20.7155 C   0  0  0  0  0  0
  -26.0983  -26.9613   19.5001 C   0  0  0  0  0  0
  -24.8910  -27.6914   19.5022 C   0  0  0  0  0  0
  -23.6026  -29.8144   20.1649 C   0  0  0  0  0  0
  -25.4101  -36.3127   24.0339 C   0  0  1  0  0  0
  -20.5857  -28.3662   23.1339 C   0  0  2  0  0  0
  -20.6768  -26.9408   22.5430 C   0  0  0  0  0  0
  -19.5749  -26.6390   21.5228 C   0  0  0  0  0  0
  -18.1920  -26.7931   22.1621 C   0  0  0  0  0  0
  -19.1517  -28.8837   23.2920 C   0  0  0  0  0  0
  -18.9446  -30.1450   23.8928 C   0  0  0  0  0  0
  -17.6448  -30.6592   24.0576 C   0  0  0  0  0  0
  -25.9027  -34.9487   23.5138 C   0  0  0  0  0  0
  -16.5337  -29.9101   23.6325 C   0  0  0  0  0  0
  -16.7258  -28.6515   23.0343 C   0  0  0  0  0  0
  -26.4449  -31.6608   25.0707 C   0  0  0  0  0  0
  -25.3746  -31.3703   26.1477 C   0  0  0  0  0  0
  -27.0270  -30.3057   24.6036 C   0  0  0  0  0  0
  -27.6044  -32.4330   25.7453 C   0  0  0  0  0  0
  -27.5584  -37.1816   24.8463 C   0  0  0  0  0  0
  -21.4121  -29.3020   22.3742 N   0  0  0  0  0  0
  -26.4298  -37.3797   23.9402 N   0  0  0  0  0  0
  -24.6574  -31.0853   22.0978 N   0  0  0  0  0  0
  -23.4169  -28.8222   23.3064 O   0  0  0  0  0  0
  -28.4075  -26.7036   20.0889 O   0  0  0  0  0  0
  -26.5592  -34.8931   22.4699 O   0  0  0  0  0  0
  -23.5292  -32.1439   23.7533 O   0  0  0  0  0  0
  -29.5957  -23.7237   22.0539 C   0  0  0  0  0  0
  -30.5088  -22.2649   19.8445 C   0  0  0  0  0  0
  -29.3620  -22.3299   21.9924 C   0  0  0  0  0  0
  -30.2616  -24.4024   21.0089 C   0  0  0  0  0  0
  -29.8152  -21.5874   20.8713 C   0  0  0  0  0  0
  -30.7325  -23.6546   19.9028 C   0  0  0  0  0  0
  -28.6205  -21.6648   23.1400 C   0  0  0  0  0  0
  -30.5122  -25.9072   21.1335 C   0  0  0  0  0  0
  -29.5094  -20.1016   20.6797 C   0  0  0  0  0  0
  -30.4017  -19.1127   21.4607 C   0  0  0  0  0  0
  -30.0740  -17.6527   21.0730 C   0  0  0  0  0  0
  -30.7729  -16.5741   21.9264 C   0  0  0  0  0  0
  -29.2519  -26.7887   21.2426 C   0  0  0  0  0  0
  -30.2718  -15.2307   21.5995 N   0  0  0  0  0  0
  -31.5869  -24.3990   18.5955 Cl  0  0  0  0  0  0
  -31.4724  -12.3924   19.1190 H   0  0  0  0  0  0
  -30.3325  -11.2777   19.8102 H   0  0  0  0  0  0
  -29.7445  -11.8188   17.4183 H   0  0  0  0  0  0
  -29.6641  -13.5176   17.8158 H   0  0  0  0  0  0
  -27.8460  -11.3005   18.8295 H   0  0  0  0  0  0
  -27.3710  -12.6265   17.8046 H   0  0  0  0  0  0
  -27.7245  -14.2493   19.6047 H   0  0  0  0  0  0
  -28.6807  -11.9278   21.3456 H   0  0  0  0  0  0
  -28.4506  -13.5556   21.8932 H   0  0  0  0  0  0
  -25.2757   -9.5687   22.4715 H   0  0  0  0  0  0
  -23.9995   -7.4638   22.7437 H   0  0  0  0  0  0
  -21.0844   -8.8746   19.8927 H   0  0  0  0  0  0
  -22.3655  -10.9658   19.6132 H   0  0  0  0  0  0
  -21.2003   -7.6140   23.9706 H   0  0  0  0  0  0
  -21.1485   -6.0522   25.9068 H   0  0  0  0  0  0
  -22.0599   -2.7624   23.2835 H   0  0  0  0  0  0
  -22.4185  -11.9834   22.4742 H   0  0  0  0  0  0
  -21.1195  -13.1246   22.2633 H   0  0  0  0  0  0
  -24.6649  -15.8414   20.5127 H   0  0  0  0  0  0
  -26.2916  -15.6330   20.1048 H   0  0  0  0  0  0
  -26.7075  -32.5584   23.1186 H   0  0  0  0  0  0
  -25.0044  -33.9804   25.0492 H   0  0  0  0  0  0
  -22.6834  -31.3057   21.4089 H   0  0  0  0  0  0
  -23.3742  -35.9678   23.3322 H   0  0  0  0  0  0
  -24.3581  -36.8917   22.2051 H   0  0  0  0  0  0
  -23.7255  -37.6545   23.6634 H   0  0  0  0  0  0
  -26.0118  -31.6155   20.5793 H   0  0  0  0  0  0
  -26.8058  -30.9189   21.9656 H   0  0  0  0  0  0
  -28.0663  -29.2017   21.1732 H   0  0  0  0  0  0
  -26.1258  -25.9876   19.0330 H   0  0  0  0  0  0
  -24.0090  -27.2780   19.0316 H   0  0  0  0  0  0
  -23.6955  -30.5838   19.3987 H   0  0  0  0  0  0
  -22.7324  -29.2209   19.8804 H   0  0  0  0  0  0
  -25.1289  -36.1998   25.0835 H   0  0  0  0  0  0
  -20.9943  -28.3229   24.1463 H   0  0  0  0  0  0
  -20.5691  -26.2279   23.3618 H   0  0  0  0  0  0
  -21.6640  -26.7476   22.1213 H   0  0  0  0  0  0
  -19.6919  -25.6308   21.1248 H   0  0  0  0  0  0
  -19.6692  -27.3216   20.6769 H   0  0  0  0  0  0
  -17.4208  -26.6707   21.4003 H   0  0  0  0  0  0
  -18.0295  -26.0066   22.9001 H   0  0  0  0  0  0
  -19.7923  -30.7259   24.2314 H   0  0  0  0  0  0
  -17.5004  -31.6270   24.5173 H   0  0  0  0  0  0
  -15.5345  -30.3008   23.7630 H   0  0  0  0  0  0
  -15.8656  -28.0842   22.7034 H   0  0  0  0  0  0
  -24.5897  -30.7063   25.7818 H   0  0  0  0  0  0
  -24.8958  -32.2861   26.4956 H   0  0  0  0  0  0
  -25.8111  -30.8848   27.0213 H   0  0  0  0  0  0
  -26.2779  -29.6825   24.1122 H   0  0  0  0  0  0
  -27.4095  -29.7271   25.4454 H   0  0  0  0  0  0
  -27.8591  -30.4384   23.9118 H   0  0  0  0  0  0
  -27.2651  -33.3597   26.2084 H   0  0  0  0  0  0
  -28.3797  -32.6943   25.0245 H   0  0  0  0  0  0
  -28.0772  -31.8438   26.5314 H   0  0  0  0  0  0
  -28.2624  -38.0097   24.7494 H   0  0  0  0  0  0
  -28.1063  -36.2627   24.6305 H   0  0  0  0  0  0
  -27.2309  -37.1490   25.8872 H   0  0  0  0  0  0
  -20.9295  -29.8705   21.6924 H   0  0  0  0  0  0
  -26.0200  -38.2886   24.1387 H   0  0  0  0  0  0
  -29.2588  -24.2881   22.9142 H   0  0  0  0  0  0
  -30.8637  -21.7195   18.9815 H   0  0  0  0  0  0
  -28.2093  -22.4063   23.8247 H   0  0  0  0  0  0
  -29.2960  -21.0316   23.7137 H   0  0  0  0  0  0
  -27.7888  -21.0578   22.7843 H   0  0  0  0  0  0
  -31.1206  -26.2854   20.3145 H   0  0  0  0  0  0
  -31.1217  -26.0583   22.0257 H   0  0  0  0  0  0
  -29.5959  -19.8804   19.6142 H   0  0  0  0  0  0
  -28.4605  -19.9182   20.9189 H   0  0  0  0  0  0
  -30.2603  -19.2539   22.5313 H   0  0  0  0  0  0
  -31.4542  -19.3175   21.2612 H   0  0  0  0  0  0
  -30.3340  -17.5044   20.0253 H   0  0  0  0  0  0
  -28.9941  -17.5086   21.1389 H   0  0  0  0  0  0
  -30.5819  -16.7610   22.9834 H   0  0  0  0  0  0
  -31.8560  -16.6324   21.7999 H   0  0  0  0  0  0
  -29.6047  -27.8089   21.3858 H   0  0  0  0  0  0
  -28.6797  -26.5277   22.1342 H   0  0  0  0  0  0
  -29.4610  -14.9013   22.1016 H   0  0  0  0  0  0
  1 25  1  0  0  0
  1 30  2  0  0  0
  1 84  1  0  0  0
  2  3  1  0  0  0
  2 25  1  0  0  0
  2 86  1  0  0  0
  2 87  1  0  0  0
  3  4  1  0  0  0
  3 88  1  0  0  0
  3 89  1  0  0  0
  4  5  1  0  0  0
  4 90  1  0  0  0
  4 91  1  0  0  0
  5  6  1  0  0  0
  5 26  1  0  0  0
  5 92  1  0  0  0
  6 25  1  0  0  0
  6 93  1  0  0  0
  6 94  1  0  0  0
  7  8  2  0  0  0
  7 26  1  0  0  0
  7 29  1  0  0  0
  8  9  1  0  0  0
  8 22  1  0  0  0
  9 10  1  0  0  0
  9 27  2  0  0  0
 10 11  2  0  0  0
 10 15  1  0  0  0
 11 12  1  0  0  0
 11 95  1  0  0  0
 12 13  2  0  0  0
 12 96  1  0  0  0
 13 14  1  0  0  0
 13 31  1  0  0  0
 14 15  2  0  0  0
 14 97  1  0  0  0
 15 98  1  0  0  0
 16 17  2  0  0  0
 16 21  1  0  0  0
 16 31  1  0  0  0
 17 18  1  0  0  0
 17 99  1  0  0  0
 18 19  2  0  0  0
 18100  1  0  0  0
 19 20  1  0  0  0
 19 24  1  0  0  0
 20 21  2  0  0  0
 20101  1  0  0  0
 21 23  1  0  0  0
 22 28  1  0  0  0
 22 32  2  0  0  0
 26 27  1  0  0  0
 28102  1  0  0  0
 28103  1  0  0  0
 29104  1  0  0  0
 29105  1  0  0  0
 33 34  1  0  0  0
 33 66  1  0  0  0
 33 70  2  0  0  0
 34 36  1  0  0  0
 34 59  1  0  0  0
 34106  1  0  0  0
 35 44  2  0  0  0
 35 45  1  0  0  0
 35 68  1  0  0  0
 36 56  1  0  0  0
 36107  1  0  0  0
 37 39  1  0  0  0
 37 47  1  0  0  0
 37 66  1  0  0  0
 37108  1  0  0  0
 38 43  2  0  0  0
 38 46  1  0  0  0
 38 47  1  0  0  0
 39 64  1  0  0  0
 39 67  2  0  0  0
 40 52  1  0  0  0
 40 53  2  0  0  0
 40 58  1  0  0  0
 41109  1  0  0  0
 41110  1  0  0  0
 41111  1  0  0  0
 41 48  1  0  0  0
 42 43  1  0  0  0
 42 66  1  0  0  0
 42112  1  0  0  0
 42113  1  0  0  0
 43 44  1  0  0  0
 44114  1  0  0  0
 45 46  2  0  0  0
 45115  1  0  0  0
 46116  1  0  0  0
 47117  1  0  0  0
 47118  1  0  0  0
 48 56  1  0  0  0
 48 65  1  0  0  0
 48119  1  0  0  0
 49 50  1  0  0  0
 49 53  1  0  0  0
 49 64  1  0  0  0
 49120  1  0  0  0
 50 51  1  0  0  0
 50121  1  0  0  0
 50122  1  0  0  0
 51 52  1  0  0  0
 51123  1  0  0  0
 51124  1  0  0  0
 52125  1  0  0  0
 52126  1  0  0  0
 53 54  1  0  0  0
 54 55  2  0  0  0
 54127  1  0  0  0
 55 57  1  0  0  0
 55128  1  0  0  0
 56 69  2  0  0  0
 57 58  2  0  0  0
 57129  1  0  0  0
 58130  1  0  0  0
 59 60  1  0  0  0
 59 61  1  0  0  0
 59 62  1  0  0  0
 60131  1  0  0  0
 60132  1  0  0  0
 60133  1  0  0  0
 61134  1  0  0  0
 61135  1  0  0  0
 61136  1  0  0  0
 62137  1  0  0  0
 62138  1  0  0  0
 62139  1  0  0  0
 63 65  1  0  0  0
 63140  1  0  0  0
 63141  1  0  0  0
 63142  1  0  0  0
 64143  1  0  0  0
 65144  1  0  0  0
 68 83  1  0  0  0
 71 73  2  0  0  0
 71 74  1  0  0  0
 71145  1  0  0  0
 72 75  2  0  0  0
 72 76  1  0  0  0
 72146  1  0  0  0
 73 75  1  0  0  0
 73 77  1  0  0  0
 74 76  2  0  0  0
 74 78  1  0  0  0
 75 79  1  0  0  0
 76 85  1  0  0  0
 77147  1  0  0  0
 77148  1  0  0  0
 77149  1  0  0  0
 78 83  1  0  0  0
 78150  1  0  0  0
 78151  1  0  0  0
 79 80  1  0  0  0
 79152  1  0  0  0
 79153  1  0  0  0
 80 81  1  0  0  0
 80154  1  0  0  0
 80155  1  0  0  0
 81 82  1  0  0  0
 81156  1  0  0  0
 81157  1  0  0  0
 82 84  1  0  0  0
 82158  1  0  0  0
 82159  1  0  0  0
 83160  1  0  0  0
 83161  1  0  0  0
 84162  1  0  0  0
M  ISO  4   1 100  68 101  83 101  84 100
M  END
> <chiral flag>
0

> <version>
0

> <s_m_source_file>
/data/baiqing/PycharmProjects/Reinvent-master-3.2/result/LINK_invent/BTK/process_docking_weight1_custom_sum_contain_oxygen_bond_distance_aromatic_linkinvent_7_9_3/rearranged_h_0036.sdf

> <i_m_source_file_index>
71

> <r_mmod_Potential_Energy-OPLS-2005>
-101.770385742188

> <r_mmod_Stretch_Energy-OPLS-2005>
35.5529327392578

> <r_mmod_Bend_Energy-OPLS-2005>
94.5299377441406

> <r_mmod_Torsional_Energy-OPLS-2005>
189.345825195312

> <r_mmod_Improper_Torsional_Energy-OPLS-2005>
1.99444150924683

> <r_mmod_Van_der_Waal_Energy-OPLS-2005>
153.380798339844

> <r_mmod_Electrostatic_Energy-OPLS-2005>
-375.907928466797

> <r_mmod_Solvation_Energy-OPLS-2005>
-207.812301635742

> <b_mmod_Minimization_Converged-OPLS-2005>
0

> <r_mmod_RMS_Derivative-OPLS-2005>
2.87478590011597

$$$$
72
                    3D
 Structure written by MMmdl.
159167  0  0  1  0            999 V2000
  -30.6777  -14.5034   20.5525 C   0  0  0  0  0  0
  -30.4283  -12.3236   19.4232 C   0  0  0  0  0  0
  -29.4935  -12.5005   18.2076 C   0  0  0  0  0  0
  -28.0156  -12.3580   18.6236 C   0  0  0  0  0  0
  -27.6589  -13.2065   19.8736 C   0  0  2  0  0  0
  -28.7031  -13.0001   20.9944 C   0  0  0  0  0  0
  -25.2580  -13.8158   20.5695 C   0  0  0  0  0  0
  -24.1833  -13.0433   20.9189 C   0  0  0  0  0  0
  -24.6393  -11.6903   20.8753 C   0  0  0  0  0  0
  -23.9065  -10.4290   21.0422 C   0  0  0  0  0  0
  -24.3615   -9.4203   21.9192 C   0  0  0  0  0  0
  -23.6291   -8.2238   22.0758 C   0  0  0  0  0  0
  -22.4271   -8.0284   21.3551 C   0  0  0  0  0  0
  -21.9914   -9.0258   20.4652 C   0  0  0  0  0  0
  -22.7245  -10.2134   20.3065 C   0  0  0  0  0  0
  -21.6851   -6.0743   22.5288 C   0  0  0  0  0  0
  -21.4015   -6.5643   23.8226 C   0  0  0  0  0  0
  -21.3653   -5.6790   24.9184 C   0  0  0  0  0  0
  -21.6040   -4.3054   24.7230 C   0  0  0  0  0  0
  -21.8818   -3.8152   23.4350 C   0  0  0  0  0  0
  -21.9192   -4.6974   22.3409 C   0  0  0  0  0  0
  -22.7853  -13.5230   21.1843 C   0  0  0  0  0  0
  -22.1658   -4.2162   21.0985 F   0  0  0  0  0  0
  -21.5625   -3.4534   25.7740 F   0  0  0  0  0  0
  -30.0291  -13.3125   20.4368 N   0  0  0  0  0  0
  -26.3015  -12.9327   20.3380 N   0  0  0  0  0  0
  -25.9322  -11.6490   20.5795 N   0  0  0  0  0  0
  -22.0486  -12.8234   22.0406 N   0  0  0  0  0  0
  -25.4304  -15.1876   20.4094 N   0  0  0  0  0  0
  -31.8189  -14.6881   20.1214 O   0  0  0  0  0  0
  -21.6631   -6.8887   21.4253 O   0  0  0  0  0  0
  -22.3543  -14.5538   20.6692 O   0  0  0  0  0  0
  -24.6166  -31.8659   23.2070 C   0  0  0  0  0  0
  -25.9058  -32.4803   23.8374 C   0  0  1  0  0  0
  -27.2374  -27.4087   20.0954 C   0  0  0  0  0  0
  -25.5915  -33.8606   24.2314 N   0  0  0  0  0  0
  -23.4057  -30.4887   21.5482 C   0  0  2  0  0  0
  -24.8496  -28.9471   20.1170 C   0  0  0  0  0  0
  -22.7423  -29.4651   22.4980 C   0  0  0  0  0  0
  -18.0288  -28.1375   22.8495 C   0  0  0  0  0  0
  -24.1494  -36.7307   23.2639 C   0  0  0  0  0  0
  -25.9362  -30.8212   21.3647 C   0  0  0  0  0  0
  -26.0103  -29.4536   20.7123 C   0  0  0  0  0  0
  -27.2029  -28.6919   20.6966 C   0  0  0  0  0  0
  -26.0489  -26.9139   19.5100 C   0  0  0  0  0  0
  -24.8647  -27.6770   19.5150 C   0  0  0  0  0  0
  -23.6137  -29.8180   20.1640 C   0  0  0  0  0  0
  -25.4116  -36.3106   24.0338 C   0  0  1  0  0  0
  -20.5873  -28.3669   23.1314 C   0  0  2  0  0  0
  -20.6779  -26.9405   22.5416 C   0  0  0  0  0  0
  -19.5753  -26.6390   21.5215 C   0  0  0  0  0  0
  -18.1931  -26.7928   22.1620 C   0  0  0  0  0  0
  -19.1534  -28.8839   23.2898 C   0  0  0  0  0  0
  -18.9458  -30.1446   23.8904 C   0  0  0  0  0  0
  -17.6459  -30.6581   24.0567 C   0  0  0  0  0  0
  -25.9045  -34.9471   23.5125 C   0  0  0  0  0  0
  -16.5350  -29.9081   23.6331 C   0  0  0  0  0  0
  -16.7275  -28.6497   23.0352 C   0  0  0  0  0  0
  -26.4480  -31.6588   25.0709 C   0  0  0  0  0  0
  -25.3739  -31.3693   26.1452 C   0  0  0  0  0  0
  -27.0324  -30.3033   24.6095 C   0  0  0  0  0  0
  -27.6056  -32.4309   25.7466 C   0  0  0  0  0  0
  -27.5588  -37.1810   24.8467 C   0  0  0  0  0  0
  -21.4149  -29.3025   22.3707 N   0  0  0  0  0  0
  -26.4307  -37.3790   23.9406 N   0  0  0  0  0  0
  -24.6710  -31.0743   22.0978 N   0  0  0  0  0  0
  -23.4184  -28.8213   23.3051 O   0  0  0  0  0  0
  -28.4348  -26.7101   20.0999 O   0  0  0  0  0  0
  -26.5601  -34.8927   22.4683 O   0  0  0  0  0  0
  -23.5355  -32.1429   23.7449 O   0  0  0  0  0  0
  -28.0700  -24.4979   21.9289 C   0  0  0  0  0  0
  -27.8851  -23.4467   22.8453 C   0  0  0  0  0  0
  -28.3804  -22.8629   20.1524 C   0  0  0  0  0  0
  -28.3129  -24.2220   20.5692 C   0  0  0  0  0  0
  -27.9337  -22.0986   22.4275 C   0  0  0  0  0  0
  -28.1919  -21.7875   21.0660 C   0  0  0  0  0  0
  -27.6660  -21.0148   23.4607 C   0  0  0  0  0  0
  -28.1549  -20.3277   20.5634 C   0  0  0  0  0  0
  -28.5434  -25.3688   19.5704 C   0  0  0  0  0  0
  -29.3894  -19.4271   20.8717 C   0  0  0  0  0  0
  -29.0899  -17.9013   20.7529 C   0  0  0  0  0  0
  -30.2942  -16.9584   21.0400 C   0  0  0  0  0  0
  -29.9269  -15.5279   21.0111 N   0  0  0  0  0  0
  -31.4698  -12.4373   19.1169 H   0  0  0  0  0  0
  -30.3465  -11.3149   19.8298 H   0  0  0  0  0  0
  -29.7365  -11.7686   17.4368 H   0  0  0  0  0  0
  -29.6529  -13.4818   17.7574 H   0  0  0  0  0  0
  -27.8303  -11.3033   18.8288 H   0  0  0  0  0  0
  -27.3626  -12.6222   17.7914 H   0  0  0  0  0  0
  -27.6971  -14.2512   19.5665 H   0  0  0  0  0  0
  -28.6875  -11.9662   21.3422 H   0  0  0  0  0  0
  -28.4667  -13.6076   21.8692 H   0  0  0  0  0  0
  -25.2762   -9.5671   22.4767 H   0  0  0  0  0  0
  -24.0004   -7.4623   22.7466 H   0  0  0  0  0  0
  -21.0849   -8.8776   19.8951 H   0  0  0  0  0  0
  -22.3713  -10.9671   19.6168 H   0  0  0  0  0  0
  -21.2011   -7.6152   23.9739 H   0  0  0  0  0  0
  -21.1474   -6.0518   25.9087 H   0  0  0  0  0  0
  -22.0607   -2.7619   23.2847 H   0  0  0  0  0  0
  -22.4080  -11.9883   22.4790 H   0  0  0  0  0  0
  -21.1117  -13.1294   22.2623 H   0  0  0  0  0  0
  -24.6630  -15.8426   20.5149 H   0  0  0  0  0  0
  -26.2831  -15.6266   20.0859 H   0  0  0  0  0  0
  -26.7118  -32.5503   23.1123 H   0  0  0  0  0  0
  -25.0109  -33.9765   25.0490 H   0  0  0  0  0  0
  -22.6958  -31.3058   21.4067 H   0  0  0  0  0  0
  -23.3758  -35.9636   23.3313 H   0  0  0  0  0  0
  -24.3590  -36.8912   22.2052 H   0  0  0  0  0  0
  -23.7245  -37.6517   23.6642 H   0  0  0  0  0  0
  -26.0579  -31.5865   20.5971 H   0  0  0  0  0  0
  -26.8203  -30.8694   21.9885 H   0  0  0  0  0  0
  -28.1016  -29.0858   21.1498 H   0  0  0  0  0  0
  -26.0068  -25.9395   19.0478 H   0  0  0  0  0  0
  -23.9701  -27.2775   19.0576 H   0  0  0  0  0  0
  -23.7238  -30.5904   19.4021 H   0  0  0  0  0  0
  -22.7366  -29.2385   19.8693 H   0  0  0  0  0  0
  -25.1293  -36.1975   25.0831 H   0  0  0  0  0  0
  -20.9963  -28.3233   24.1435 H   0  0  0  0  0  0
  -20.5705  -26.2266   23.3599 H   0  0  0  0  0  0
  -21.6648  -26.7466   22.1185 H   0  0  0  0  0  0
  -19.6917  -25.6307   21.1230 H   0  0  0  0  0  0
  -19.6695  -27.3210   20.6750 H   0  0  0  0  0  0
  -17.4210  -26.6696   21.4009 H   0  0  0  0  0  0
  -18.0315  -26.0058   22.8998 H   0  0  0  0  0  0
  -19.7931  -30.7264   24.2264 H   0  0  0  0  0  0
  -17.5014  -31.6258   24.5170 H   0  0  0  0  0  0
  -15.5349  -30.2980   23.7653 H   0  0  0  0  0  0
  -15.8676  -28.0817   22.7059 H   0  0  0  0  0  0
  -24.5911  -30.7043   25.7781 H   0  0  0  0  0  0
  -24.8928  -32.2846   26.4906 H   0  0  0  0  0  0
  -25.8088  -30.8854   27.0205 H   0  0  0  0  0  0
  -26.2867  -29.6766   24.1186 H   0  0  0  0  0  0
  -27.4146  -29.7294   25.4549 H   0  0  0  0  0  0
  -27.8678  -30.4363   23.9215 H   0  0  0  0  0  0
  -27.2683  -33.3602   26.2066 H   0  0  0  0  0  0
  -28.3850  -32.6880   25.0280 H   0  0  0  0  0  0
  -28.0739  -31.8419   26.5361 H   0  0  0  0  0  0
  -28.2613  -38.0100   24.7519 H   0  0  0  0  0  0
  -28.1082  -36.2639   24.6294 H   0  0  0  0  0  0
  -27.2306  -37.1460   25.8870 H   0  0  0  0  0  0
  -20.9313  -29.8721   21.6900 H   0  0  0  0  0  0
  -26.0201  -38.2874   24.1391 H   0  0  0  0  0  0
  -28.0238  -25.5204   22.2775 H   0  0  0  0  0  0
  -27.6886  -23.6882   23.8811 H   0  0  0  0  0  0
  -28.5641  -22.6462   19.1089 H   0  0  0  0  0  0
  -27.5016  -21.4411   24.4509 H   0  0  0  0  0  0
  -28.5060  -20.3283   23.5466 H   0  0  0  0  0  0
  -26.7746  -20.4431   23.2012 H   0  0  0  0  0  0
  -27.9802  -20.3278   19.4869 H   0  0  0  0  0  0
  -27.2629  -19.8625   20.9850 H   0  0  0  0  0  0
  -27.9534  -25.2205   18.6671 H   0  0  0  0  0  0
  -29.5766  -25.2698   19.2362 H   0  0  0  0  0  0
  -29.7490  -19.6215   21.8805 H   0  0  0  0  0  0
  -30.2108  -19.7043   20.2106 H   0  0  0  0  0  0
  -28.7087  -17.6949   19.7521 H   0  0  0  0  0  0
  -28.2781  -17.6562   21.4397 H   0  0  0  0  0  0
  -30.7117  -17.1782   22.0233 H   0  0  0  0  0  0
  -31.0858  -17.1606   20.3159 H   0  0  0  0  0  0
  -28.9990  -15.2850   21.3236 H   0  0  0  0  0  0
  1 25  1  0  0  0
  1 30  2  0  0  0
  1 83  1  0  0  0
  2  3  1  0  0  0
  2 25  1  0  0  0
  2 84  1  0  0  0
  2 85  1  0  0  0
  3  4  1  0  0  0
  3 86  1  0  0  0
  3 87  1  0  0  0
  4  5  1  0  0  0
  4 88  1  0  0  0
  4 89  1  0  0  0
  5  6  1  0  0  0
  5 26  1  0  0  0
  5 90  1  0  0  0
  6 25  1  0  0  0
  6 91  1  0  0  0
  6 92  1  0  0  0
  7  8  2  0  0  0
  7 26  1  0  0  0
  7 29  1  0  0  0
  8  9  1  0  0  0
  8 22  1  0  0  0
  9 10  1  0  0  0
  9 27  2  0  0  0
 10 11  2  0  0  0
 10 15  1  0  0  0
 11 12  1  0  0  0
 11 93  1  0  0  0
 12 13  2  0  0  0
 12 94  1  0  0  0
 13 14  1  0  0  0
 13 31  1  0  0  0
 14 15  2  0  0  0
 14 95  1  0  0  0
 15 96  1  0  0  0
 16 17  2  0  0  0
 16 21  1  0  0  0
 16 31  1  0  0  0
 17 18  1  0  0  0
 17 97  1  0  0  0
 18 19  2  0  0  0
 18 98  1  0  0  0
 19 20  1  0  0  0
 19 24  1  0  0  0
 20 21  2  0  0  0
 20 99  1  0  0  0
 21 23  1  0  0  0
 22 28  1  0  0  0
 22 32  2  0  0  0
 26 27  1  0  0  0
 28100  1  0  0  0
 28101  1  0  0  0
 29102  1  0  0  0
 29103  1  0  0  0
 33 34  1  0  0  0
 33 66  1  0  0  0
 33 70  2  0  0  0
 34 36  1  0  0  0
 34 59  1  0  0  0
 34104  1  0  0  0
 35 44  2  0  0  0
 35 45  1  0  0  0
 35 68  1  0  0  0
 36 56  1  0  0  0
 36105  1  0  0  0
 37 39  1  0  0  0
 37 47  1  0  0  0
 37 66  1  0  0  0
 37106  1  0  0  0
 38 43  2  0  0  0
 38 46  1  0  0  0
 38 47  1  0  0  0
 39 64  1  0  0  0
 39 67  2  0  0  0
 40 52  1  0  0  0
 40 53  2  0  0  0
 40 58  1  0  0  0
 41107  1  0  0  0
 41108  1  0  0  0
 41109  1  0  0  0
 41 48  1  0  0  0
 42 43  1  0  0  0
 42 66  1  0  0  0
 42110  1  0  0  0
 42111  1  0  0  0
 43 44  1  0  0  0
 44112  1  0  0  0
 45 46  2  0  0  0
 45113  1  0  0  0
 46114  1  0  0  0
 47115  1  0  0  0
 47116  1  0  0  0
 48 56  1  0  0  0
 48 65  1  0  0  0
 48117  1  0  0  0
 49 50  1  0  0  0
 49 53  1  0  0  0
 49 64  1  0  0  0
 49118  1  0  0  0
 50 51  1  0  0  0
 50119  1  0  0  0
 50120  1  0  0  0
 51 52  1  0  0  0
 51121  1  0  0  0
 51122  1  0  0  0
 52123  1  0  0  0
 52124  1  0  0  0
 53 54  1  0  0  0
 54 55  2  0  0  0
 54125  1  0  0  0
 55 57  1  0  0  0
 55126  1  0  0  0
 56 69  2  0  0  0
 57 58  2  0  0  0
 57127  1  0  0  0
 58128  1  0  0  0
 59 60  1  0  0  0
 59 61  1  0  0  0
 59 62  1  0  0  0
 60129  1  0  0  0
 60130  1  0  0  0
 60131  1  0  0  0
 61132  1  0  0  0
 61133  1  0  0  0
 61134  1  0  0  0
 62135  1  0  0  0
 62136  1  0  0  0
 62137  1  0  0  0
 63 65  1  0  0  0
 63138  1  0  0  0
 63139  1  0  0  0
 63140  1  0  0  0
 64141  1  0  0  0
 65142  1  0  0  0
 68 79  1  0  0  0
 71 72  2  0  0  0
 71 74  1  0  0  0
 71143  1  0  0  0
 72 75  1  0  0  0
 72144  1  0  0  0
 73 74  2  0  0  0
 73 76  1  0  0  0
 73145  1  0  0  0
 74 79  1  0  0  0
 75 76  2  0  0  0
 75 77  1  0  0  0
 76 78  1  0  0  0
 77146  1  0  0  0
 77147  1  0  0  0
 77148  1  0  0  0
 78 80  1  0  0  0
 78149  1  0  0  0
 78150  1  0  0  0
 79151  1  0  0  0
 79152  1  0  0  0
 80 81  1  0  0  0
 80153  1  0  0  0
 80154  1  0  0  0
 81 82  1  0  0  0
 81155  1  0  0  0
 81156  1  0  0  0
 82 83  1  0  0  0
 82157  1  0  0  0
 82158  1  0  0  0
 83159  1  0  0  0
M  ISO  4   1 100  68 101  79 101  83 100
M  END
> <chiral flag>
0

> <version>
0

> <s_m_source_file>
/data/baiqing/PycharmProjects/Reinvent-master-3.2/result/LINK_invent/BTK/process_docking_weight1_custom_sum_contain_oxygen_bond_distance_aromatic_linkinvent_7_9_3/rearranged_h_0036.sdf

> <i_m_source_file_index>
72

> <r_mmod_Potential_Energy-OPLS-2005>
-60.5079154968262

> <r_mmod_Stretch_Energy-OPLS-2005>
43.1011009216309

> <r_mmod_Bend_Energy-OPLS-2005>
105.042938232422

> <r_mmod_Torsional_Energy-OPLS-2005>
196.895935058594

> <r_mmod_Improper_Torsional_Energy-OPLS-2005>
4.14455938339233

> <r_mmod_Van_der_Waal_Energy-OPLS-2005>
147.33024597168

> <r_mmod_Electrostatic_Energy-OPLS-2005>
-370.230560302734

> <r_mmod_Solvation_Energy-OPLS-2005>
-203.150573730469

> <b_mmod_Minimization_Converged-OPLS-2005>
0

> <r_mmod_RMS_Derivative-OPLS-2005>
1.12549781799316

$$$$
73
                    3D
 Structure written by MMmdl.
160168  0  0  1  0            999 V2000
  -30.6722  -14.4366   20.6017 C   0  0  0  0  0  0
  -30.4307  -12.2928   19.3969 C   0  0  0  0  0  0
  -29.4880  -12.5028   18.1930 C   0  0  0  0  0  0
  -28.0081  -12.3661   18.6082 C   0  0  0  0  0  0
  -27.6648  -13.1862   19.8799 C   0  0  2  0  0  0
  -28.7090  -12.9191   20.9873 C   0  0  0  0  0  0
  -25.2614  -13.8109   20.5685 C   0  0  0  0  0  0
  -24.1844  -13.0412   20.9165 C   0  0  0  0  0  0
  -24.6360  -11.6870   20.8729 C   0  0  0  0  0  0
  -23.9028  -10.4271   21.0398 C   0  0  0  0  0  0
  -24.3588   -9.4194   21.9181 C   0  0  0  0  0  0
  -23.6268   -8.2223   22.0751 C   0  0  0  0  0  0
  -22.4256   -8.0263   21.3533 C   0  0  0  0  0  0
  -21.9882   -9.0235   20.4637 C   0  0  0  0  0  0
  -22.7201  -10.2116   20.3051 C   0  0  0  0  0  0
  -21.6849   -6.0721   22.5273 C   0  0  0  0  0  0
  -21.4003   -6.5627   23.8206 C   0  0  0  0  0  0
  -21.3659   -5.6783   24.9170 C   0  0  0  0  0  0
  -21.6050   -4.3052   24.7223 C   0  0  0  0  0  0
  -21.8826   -3.8142   23.4345 C   0  0  0  0  0  0
  -21.9185   -4.6950   22.3396 C   0  0  0  0  0  0
  -22.7871  -13.5227   21.1841 C   0  0  0  0  0  0
  -22.1664   -4.2139   21.0975 F   0  0  0  0  0  0
  -21.5630   -3.4539   25.7738 F   0  0  0  0  0  0
  -30.0349  -13.2466   20.4414 N   0  0  0  0  0  0
  -26.3039  -12.9233   20.3395 N   0  0  0  0  0  0
  -25.9288  -11.6420   20.5766 N   0  0  0  0  0  0
  -22.0511  -12.8215   22.0401 N   0  0  0  0  0  0
  -25.4370  -15.1818   20.4092 N   0  0  0  0  0  0
  -31.7816  -14.6604   20.1043 O   0  0  0  0  0  0
  -21.6626   -6.8859   21.4234 O   0  0  0  0  0  0
  -22.3564  -14.5549   20.6705 O   0  0  0  0  0  0
  -24.6122  -31.8670   23.2078 C   0  0  0  0  0  0
  -25.9036  -32.4807   23.8377 C   0  0  1  0  0  0
  -27.2532  -27.4524   20.0885 C   0  0  0  0  0  0
  -25.5911  -33.8593   24.2320 N   0  0  0  0  0  0
  -23.4008  -30.4854   21.5479 C   0  0  2  0  0  0
  -24.8502  -28.9466   20.1152 C   0  0  0  0  0  0
  -22.7416  -29.4622   22.4995 C   0  0  0  0  0  0
  -18.0271  -28.1341   22.8466 C   0  0  0  0  0  0
  -24.1490  -36.7302   23.2637 C   0  0  0  0  0  0
  -25.9250  -30.8360   21.3584 C   0  0  0  0  0  0
  -26.0038  -29.4688   20.7104 C   0  0  0  0  0  0
  -27.2001  -28.7234   20.7024 C   0  0  0  0  0  0
  -26.0764  -26.9290   19.5050 C   0  0  0  0  0  0
  -24.8801  -27.6738   19.5142 C   0  0  0  0  0  0
  -23.6092  -29.8086   20.1643 C   0  0  0  0  0  0
  -25.4105  -36.3095   24.0350 C   0  0  1  0  0  0
  -20.5859  -28.3623   23.1300 C   0  0  2  0  0  0
  -20.6765  -26.9357   22.5402 C   0  0  0  0  0  0
  -19.5741  -26.6365   21.5178 C   0  0  0  0  0  0
  -18.1912  -26.7878   22.1600 C   0  0  0  0  0  0
  -19.1527  -28.8795   23.2864 C   0  0  0  0  0  0
  -18.9463  -30.1406   23.8890 C   0  0  0  0  0  0
  -17.6469  -30.6555   24.0530 C   0  0  0  0  0  0
  -25.9036  -34.9454   23.5128 C   0  0  0  0  0  0
  -16.5348  -29.9060   23.6303 C   0  0  0  0  0  0
  -16.7262  -28.6467   23.0331 C   0  0  0  0  0  0
  -26.4475  -31.6591   25.0699 C   0  0  0  0  0  0
  -25.3735  -31.3708   26.1451 C   0  0  0  0  0  0
  -27.0314  -30.3047   24.6051 C   0  0  0  0  0  0
  -27.6050  -32.4309   25.7467 C   0  0  0  0  0  0
  -27.5584  -37.1807   24.8458 C   0  0  0  0  0  0
  -21.4154  -29.2995   22.3734 N   0  0  0  0  0  0
  -26.4288  -37.3791   23.9426 N   0  0  0  0  0  0
  -24.6642  -31.0775   22.0971 N   0  0  0  0  0  0
  -23.4196  -28.8156   23.3021 O   0  0  0  0  0  0
  -28.4658  -26.7983   20.1178 O   0  0  0  0  0  0
  -26.5581  -34.8921   22.4682 O   0  0  0  0  0  0
  -23.5321  -32.1413   23.7490 O   0  0  0  0  0  0
  -29.9783  -18.8894   19.3286 C   0  0  0  0  0  0
  -31.0609  -17.8182   21.6803 C   0  0  0  0  0  0
  -29.7308  -17.5383   19.6525 C   0  0  0  0  0  0
  -30.7433  -19.7187   20.1750 C   0  0  0  0  0  0
  -30.2685  -16.9946   20.8508 C   0  0  0  0  0  0
  -31.2940  -19.1699   21.3573 C   0  0  0  0  0  0
  -28.8645  -16.7242   18.7043 C   0  0  0  0  0  0
  -29.9323  -15.5789   21.3385 C   0  0  0  0  0  0
  -30.9632  -21.1761   19.7753 C   0  0  0  0  0  0
  -28.8082  -24.3641   20.0868 C   0  0  0  0  0  0
  -29.8244  -23.3634   19.4857 C   0  0  0  0  0  0
  -28.7412  -25.6777   19.2786 C   0  0  0  0  0  0
  -29.8243  -22.0417   20.1574 N   0  3  0  0  0  0
  -32.2422  -20.1263   22.4399 Cl  0  0  0  0  0  0
  -31.4701  -12.4166   19.0880 H   0  0  0  0  0  0
  -30.3535  -11.2711   19.7720 H   0  0  0  0  0  0
  -29.7188  -11.7823   17.4071 H   0  0  0  0  0  0
  -29.6597  -13.4898   17.7611 H   0  0  0  0  0  0
  -27.8108  -11.3087   18.7883 H   0  0  0  0  0  0
  -27.3568  -12.6604   17.7841 H   0  0  0  0  0  0
  -27.7168  -14.2365   19.6035 H   0  0  0  0  0  0
  -28.6846  -11.8668   21.2756 H   0  0  0  0  0  0
  -28.4762  -13.4616   21.9034 H   0  0  0  0  0  0
  -25.2728   -9.5671   22.4756 H   0  0  0  0  0  0
  -23.9982   -7.4616   22.7466 H   0  0  0  0  0  0
  -21.0820   -8.8739   19.8943 H   0  0  0  0  0  0
  -22.3654  -10.9651   19.6161 H   0  0  0  0  0  0
  -21.1998   -7.6133   23.9700 H   0  0  0  0  0  0
  -21.1479   -6.0518   25.9070 H   0  0  0  0  0  0
  -22.0608   -2.7606   23.2847 H   0  0  0  0  0  0
  -22.4118  -11.9855   22.4755 H   0  0  0  0  0  0
  -21.1136  -13.1257   22.2632 H   0  0  0  0  0  0
  -24.6744  -15.8408   20.5180 H   0  0  0  0  0  0
  -26.3000  -15.6195   20.1152 H   0  0  0  0  0  0
  -26.7113  -32.5534   23.1149 H   0  0  0  0  0  0
  -25.0125  -33.9746   25.0508 H   0  0  0  0  0  0
  -22.6874  -31.2990   21.4024 H   0  0  0  0  0  0
  -23.3754  -35.9629   23.3291 H   0  0  0  0  0  0
  -24.3602  -36.8918   22.2053 H   0  0  0  0  0  0
  -23.7214  -37.6503   23.6643 H   0  0  0  0  0  0
  -26.0303  -31.6001   20.5874 H   0  0  0  0  0  0
  -26.8175  -30.8952   21.9717 H   0  0  0  0  0  0
  -28.0942  -29.1204   21.1623 H   0  0  0  0  0  0
  -26.0600  -25.9480   19.0533 H   0  0  0  0  0  0
  -23.9912  -27.2565   19.0612 H   0  0  0  0  0  0
  -23.7117  -30.5771   19.3969 H   0  0  0  0  0  0
  -22.7375  -29.2209   19.8744 H   0  0  0  0  0  0
  -25.1262  -36.1980   25.0843 H   0  0  0  0  0  0
  -20.9932  -28.3198   24.1427 H   0  0  0  0  0  0
  -20.5639  -26.2240   23.3599 H   0  0  0  0  0  0
  -21.6649  -26.7404   22.1209 H   0  0  0  0  0  0
  -19.6919  -25.6283   21.1198 H   0  0  0  0  0  0
  -19.6691  -27.3187   20.6699 H   0  0  0  0  0  0
  -17.4197  -26.6613   21.3990 H   0  0  0  0  0  0
  -18.0312  -26.0001   22.8982 H   0  0  0  0  0  0
  -19.7946  -30.7175   24.2312 H   0  0  0  0  0  0
  -17.5031  -31.6244   24.5118 H   0  0  0  0  0  0
  -15.5347  -30.2950   23.7640 H   0  0  0  0  0  0
  -15.8656  -28.0780   22.7059 H   0  0  0  0  0  0
  -24.5900  -30.7066   25.7793 H   0  0  0  0  0  0
  -24.8930  -32.2872   26.4891 H   0  0  0  0  0  0
  -25.8070  -30.8886   27.0217 H   0  0  0  0  0  0
  -26.2853  -29.6814   24.1117 H   0  0  0  0  0  0
  -27.4127  -29.7272   25.4481 H   0  0  0  0  0  0
  -27.8661  -30.4391   23.9158 H   0  0  0  0  0  0
  -27.2685  -33.3607   26.2060 H   0  0  0  0  0  0
  -28.3867  -32.6892   25.0309 H   0  0  0  0  0  0
  -28.0716  -31.8423   26.5380 H   0  0  0  0  0  0
  -28.2575  -38.0126   24.7572 H   0  0  0  0  0  0
  -28.1112  -36.2687   24.6210 H   0  0  0  0  0  0
  -27.2323  -37.1344   25.8854 H   0  0  0  0  0  0
  -20.9327  -29.8763   21.6989 H   0  0  0  0  0  0
  -26.0183  -38.2865   24.1462 H   0  0  0  0  0  0
  -29.5630  -19.3015   18.4190 H   0  0  0  0  0  0
  -31.4736  -17.4202   22.5971 H   0  0  0  0  0  0
  -28.7625  -17.2222   17.7392 H   0  0  0  0  0  0
  -27.8632  -16.5953   19.1132 H   0  0  0  0  0  0
  -29.2939  -15.7449   18.5052 H   0  0  0  0  0  0
  -28.8526  -15.4875   21.2440 H   0  0  0  0  0  0
  -30.1489  -15.4839   22.4027 H   0  0  0  0  0  0
  -31.1040  -21.2092   18.6939 H   0  0  0  0  0  0
  -31.8854  -21.5686   20.2063 H   0  0  0  0  0  0
  -29.1102  -24.5884   21.1122 H   0  0  0  0  0  0
  -27.8125  -23.9249   20.1450 H   0  0  0  0  0  0
  -30.8249  -23.7946   19.5586 H   0  0  0  0  0  0
  -29.6265  -23.2203   18.4219 H   0  0  0  0  0  0
  -28.0888  -25.5949   18.4097 H   0  0  0  0  0  0
  -29.7305  -25.8801   18.8696 H   0  0  0  0  0  0
  -29.8412  -22.1668   21.1568 H   0  0  0  0  0  0
  -28.9716  -21.5633   19.9213 H   0  0  0  0  0  0
  1 25  1  0  0  0
  1 30  2  0  0  0
  1 78  1  0  0  0
  2  3  1  0  0  0
  2 25  1  0  0  0
  2 85  1  0  0  0
  2 86  1  0  0  0
  3  4  1  0  0  0
  3 87  1  0  0  0
  3 88  1  0  0  0
  4  5  1  0  0  0
  4 89  1  0  0  0
  4 90  1  0  0  0
  5  6  1  0  0  0
  5 26  1  0  0  0
  5 91  1  0  0  0
  6 25  1  0  0  0
  6 92  1  0  0  0
  6 93  1  0  0  0
  7  8  2  0  0  0
  7 26  1  0  0  0
  7 29  1  0  0  0
  8  9  1  0  0  0
  8 22  1  0  0  0
  9 10  1  0  0  0
  9 27  2  0  0  0
 10 11  2  0  0  0
 10 15  1  0  0  0
 11 12  1  0  0  0
 11 94  1  0  0  0
 12 13  2  0  0  0
 12 95  1  0  0  0
 13 14  1  0  0  0
 13 31  1  0  0  0
 14 15  2  0  0  0
 14 96  1  0  0  0
 15 97  1  0  0  0
 16 17  2  0  0  0
 16 21  1  0  0  0
 16 31  1  0  0  0
 17 18  1  0  0  0
 17 98  1  0  0  0
 18 19  2  0  0  0
 18 99  1  0  0  0
 19 20  1  0  0  0
 19 24  1  0  0  0
 20 21  2  0  0  0
 20100  1  0  0  0
 21 23  1  0  0  0
 22 28  1  0  0  0
 22 32  2  0  0  0
 26 27  1  0  0  0
 28101  1  0  0  0
 28102  1  0  0  0
 29103  1  0  0  0
 29104  1  0  0  0
 33 34  1  0  0  0
 33 66  1  0  0  0
 33 70  2  0  0  0
 34 36  1  0  0  0
 34 59  1  0  0  0
 34105  1  0  0  0
 35 44  2  0  0  0
 35 45  1  0  0  0
 35 68  1  0  0  0
 36 56  1  0  0  0
 36106  1  0  0  0
 37 39  1  0  0  0
 37 47  1  0  0  0
 37 66  1  0  0  0
 37107  1  0  0  0
 38 43  2  0  0  0
 38 46  1  0  0  0
 38 47  1  0  0  0
 39 64  1  0  0  0
 39 67  2  0  0  0
 40 52  1  0  0  0
 40 53  2  0  0  0
 40 58  1  0  0  0
 41108  1  0  0  0
 41109  1  0  0  0
 41110  1  0  0  0
 41 48  1  0  0  0
 42 43  1  0  0  0
 42 66  1  0  0  0
 42111  1  0  0  0
 42112  1  0  0  0
 43 44  1  0  0  0
 44113  1  0  0  0
 45 46  2  0  0  0
 45114  1  0  0  0
 46115  1  0  0  0
 47116  1  0  0  0
 47117  1  0  0  0
 48 56  1  0  0  0
 48 65  1  0  0  0
 48118  1  0  0  0
 49 50  1  0  0  0
 49 53  1  0  0  0
 49 64  1  0  0  0
 49119  1  0  0  0
 50 51  1  0  0  0
 50120  1  0  0  0
 50121  1  0  0  0
 51 52  1  0  0  0
 51122  1  0  0  0
 51123  1  0  0  0
 52124  1  0  0  0
 52125  1  0  0  0
 53 54  1  0  0  0
 54 55  2  0  0  0
 54126  1  0  0  0
 55 57  1  0  0  0
 55127  1  0  0  0
 56 69  2  0  0  0
 57 58  2  0  0  0
 57128  1  0  0  0
 58129  1  0  0  0
 59 60  1  0  0  0
 59 61  1  0  0  0
 59 62  1  0  0  0
 60130  1  0  0  0
 60131  1  0  0  0
 60132  1  0  0  0
 61133  1  0  0  0
 61134  1  0  0  0
 61135  1  0  0  0
 62136  1  0  0  0
 62137  1  0  0  0
 62138  1  0  0  0
 63 65  1  0  0  0
 63139  1  0  0  0
 63140  1  0  0  0
 63141  1  0  0  0
 64142  1  0  0  0
 65143  1  0  0  0
 68 82  1  0  0  0
 71 73  2  0  0  0
 71 74  1  0  0  0
 71144  1  0  0  0
 72 75  2  0  0  0
 72 76  1  0  0  0
 72145  1  0  0  0
 73 75  1  0  0  0
 73 77  1  0  0  0
 74 76  2  0  0  0
 74 79  1  0  0  0
 75 78  1  0  0  0
 76 84  1  0  0  0
 77146  1  0  0  0
 77147  1  0  0  0
 77148  1  0  0  0
 78149  1  0  0  0
 78150  1  0  0  0
 79 83  1  0  0  0
 79151  1  0  0  0
 79152  1  0  0  0
 80 81  1  0  0  0
 80 82  1  0  0  0
 80153  1  0  0  0
 80154  1  0  0  0
 81 83  1  0  0  0
 81155  1  0  0  0
 81156  1  0  0  0
 82157  1  0  0  0
 82158  1  0  0  0
 83159  1  0  0  0
 83160  1  0  0  0
M  CHG  1  83   1
M  ISO  4   1 100  68 101  78 100  82 101
M  END
> <chiral flag>
0

> <version>
0

> <s_m_source_file>
/data/baiqing/PycharmProjects/Reinvent-master-3.2/result/LINK_invent/BTK/process_docking_weight1_custom_sum_contain_oxygen_bond_distance_aromatic_linkinvent_7_9_3/rearranged_h_0036.sdf

> <i_m_source_file_index>
73

> <r_mmod_Potential_Energy-OPLS-2005>
-237.639862060547

> <r_mmod_Stretch_Energy-OPLS-2005>
34.9577751159668

> <r_mmod_Bend_Energy-OPLS-2005>
103.468612670898

> <r_mmod_Torsional_Energy-OPLS-2005>
163.490219116211

> <r_mmod_Improper_Torsional_Energy-OPLS-2005>
2.75226235389709

> <r_mmod_Van_der_Waal_Energy-OPLS-2005>
146.01708984375

> <r_mmod_Electrostatic_Energy-OPLS-2005>
-242.220748901367

> <r_mmod_Solvation_Energy-OPLS-2005>
-457.427856445312

> <b_mmod_Minimization_Converged-OPLS-2005>
0

> <r_mmod_RMS_Derivative-OPLS-2005>
2.59455132484436

$$$$
74
                    3D
 Structure written by MMmdl.
176184  0  0  1  0            999 V2000
  -30.7256  -14.3853   20.6052 C   0  0  0  0  0  0
  -30.4185  -12.2581   19.4179 C   0  0  0  0  0  0
  -29.4916  -12.5146   18.2100 C   0  0  0  0  0  0
  -28.0110  -12.3765   18.6123 C   0  0  0  0  0  0
  -27.6678  -13.1952   19.8836 C   0  0  2  0  0  0
  -28.7059  -12.9346   21.0019 C   0  0  0  0  0  0
  -25.2644  -13.8155   20.5661 C   0  0  0  0  0  0
  -24.1877  -13.0485   20.9127 C   0  0  0  0  0  0
  -24.6383  -11.6911   20.8716 C   0  0  0  0  0  0
  -23.9051  -10.4300   21.0398 C   0  0  0  0  0  0
  -24.3617   -9.4227   21.9173 C   0  0  0  0  0  0
  -23.6288   -8.2266   22.0761 C   0  0  0  0  0  0
  -22.4259   -8.0301   21.3568 C   0  0  0  0  0  0
  -21.9901   -9.0272   20.4669 C   0  0  0  0  0  0
  -22.7228  -10.2148   20.3059 C   0  0  0  0  0  0
  -21.6859   -6.0778   22.5283 C   0  0  0  0  0  0
  -21.4027   -6.5690   23.8219 C   0  0  0  0  0  0
  -21.3638   -5.6827   24.9172 C   0  0  0  0  0  0
  -21.5999   -4.3080   24.7211 C   0  0  0  0  0  0
  -21.8832   -3.8198   23.4325 C   0  0  0  0  0  0
  -21.9202   -4.7016   22.3395 C   0  0  0  0  0  0
  -22.7921  -13.5315   21.1769 C   0  0  0  0  0  0
  -22.1691   -4.2218   21.0971 F   0  0  0  0  0  0
  -21.5543   -3.4552   25.7713 F   0  0  0  0  0  0
  -30.0537  -13.2142   20.4697 N   0  0  0  0  0  0
  -26.3063  -12.9292   20.3378 N   0  0  0  0  0  0
  -25.9322  -11.6458   20.5766 N   0  0  0  0  0  0
  -22.0561  -12.8325   22.0315 N   0  0  0  0  0  0
  -25.4406  -15.1877   20.4088 N   0  0  0  0  0  0
  -31.7997  -14.6285   20.0471 O   0  0  0  0  0  0
  -21.6621   -6.8916   21.4253 O   0  0  0  0  0  0
  -22.3619  -14.5623   20.6594 O   0  0  0  0  0  0
  -24.6121  -31.8708   23.2149 C   0  0  0  0  0  0
  -25.9044  -32.4813   23.8412 C   0  0  1  0  0  0
  -27.2395  -27.4905   20.0535 C   0  0  0  0  0  0
  -25.5926  -33.8612   24.2344 N   0  0  0  0  0  0
  -23.3945  -30.4910   21.5633 C   0  0  2  0  0  0
  -24.8368  -28.9687   20.1134 C   0  0  0  0  0  0
  -22.7426  -29.4612   22.5116 C   0  0  0  0  0  0
  -18.0264  -28.1235   22.8499 C   0  0  0  0  0  0
  -24.1490  -36.7332   23.2628 C   0  0  0  0  0  0
  -25.9191  -30.8487   21.3602 C   0  0  0  0  0  0
  -25.9981  -29.4928   20.6946 C   0  0  0  0  0  0
  -27.2036  -28.7655   20.6543 C   0  0  0  0  0  0
  -26.0631  -26.9731   19.4664 C   0  0  0  0  0  0
  -24.8616  -27.7055   19.4994 C   0  0  0  0  0  0
  -23.5975  -29.8310   20.1728 C   0  0  0  0  0  0
  -25.4113  -36.3120   24.0334 C   0  0  1  0  0  0
  -20.5864  -28.3508   23.1347 C   0  0  2  0  0  0
  -20.6848  -26.9387   22.5127 C   0  0  0  0  0  0
  -19.5718  -26.6334   21.5077 C   0  0  0  0  0  0
  -18.1874  -26.7890   22.1406 C   0  0  0  0  0  0
  -19.1520  -28.8654   23.2957 C   0  0  0  0  0  0
  -18.9465  -30.1241   23.9020 C   0  0  0  0  0  0
  -17.6491  -30.6424   24.0592 C   0  0  0  0  0  0
  -25.9051  -34.9469   23.5136 C   0  0  0  0  0  0
  -16.5368  -29.8985   23.6315 C   0  0  0  0  0  0
  -16.7266  -28.6387   23.0353 C   0  0  0  0  0  0
  -26.4494  -31.6557   25.0703 C   0  0  0  0  0  0
  -25.3761  -31.3643   26.1448 C   0  0  0  0  0  0
  -27.0296  -30.2997   24.6021 C   0  0  0  0  0  0
  -27.6085  -32.4261   25.7447 C   0  0  0  0  0  0
  -27.5584  -37.1821   24.8464 C   0  0  0  0  0  0
  -21.4137  -29.3050   22.3983 N   0  0  0  0  0  0
  -26.4304  -37.3809   23.9396 N   0  0  0  0  0  0
  -24.6612  -31.0833   22.1042 N   0  0  0  0  0  0
  -23.4260  -28.8084   23.3036 O   0  0  0  0  0  0
  -28.4250  -26.7885   20.0653 O   0  0  0  0  0  0
  -26.5621  -34.8927   22.4685 O   0  0  0  0  0  0
  -23.5348  -32.1500   23.7562 O   0  0  0  0  0  0
  -27.1343  -25.5641   23.9711 C   0  0  0  0  0  0
  -27.9459  -25.7124   22.8309 C   0  0  0  0  0  0
  -27.5472  -25.0964   21.6143 C   0  0  0  0  0  0
  -25.9645  -24.7978   23.8729 C   0  0  0  0  0  0
  -26.3719  -24.2950   21.6367 C   0  0  0  0  0  0
  -29.2102  -26.5456   22.9409 C   0  0  0  0  0  0
  -25.0399  -24.5966   25.0486 C   0  0  0  0  0  0
  -28.3380  -25.3880   20.3291 C   0  0  0  0  0  0
  -25.8176  -23.5058   20.4515 C   0  0  0  0  0  0
  -25.8037  -21.9875   20.7225 C   0  0  0  0  0  0
  -25.1012  -21.1574   19.6320 C   0  0  0  0  0  0
  -25.9078  -20.9253   18.3380 C   0  0  0  0  0  0
  -27.2987  -20.2892   18.5334 C   0  0  0  0  0  0
  -27.2862  -18.9573   19.3042 C   0  0  0  0  0  0
  -28.6939  -18.5206   19.7294 C   0  0  0  0  0  0
  -28.6854  -17.1905   20.4846 C   0  0  0  0  0  0
  -30.0921  -16.7460   20.9266 C   0  0  0  0  0  0
  -25.6030  -24.1737   22.7415 N   0  0  0  0  0  0
  -30.0476  -15.3296   21.2629 N   0  0  0  0  0  0
  -31.4663  -12.3430   19.1190 H   0  0  0  0  0  0
  -30.3017  -11.2372   19.7861 H   0  0  0  0  0  0
  -29.7172  -11.8212   17.4001 H   0  0  0  0  0  0
  -29.6777  -13.5169   17.8174 H   0  0  0  0  0  0
  -27.8088  -11.3188   18.7863 H   0  0  0  0  0  0
  -27.3681  -12.6752   17.7833 H   0  0  0  0  0  0
  -27.7219  -14.2438   19.5985 H   0  0  0  0  0  0
  -28.6597  -11.8934   21.3199 H   0  0  0  0  0  0
  -28.4679  -13.5092   21.8969 H   0  0  0  0  0  0
  -25.2790   -9.5692   22.4707 H   0  0  0  0  0  0
  -23.9991   -7.4682   22.7507 H   0  0  0  0  0  0
  -21.0814   -8.8826   19.8993 H   0  0  0  0  0  0
  -22.3707  -10.9693   19.6146 H   0  0  0  0  0  0
  -21.2052   -7.6201   23.9766 H   0  0  0  0  0  0
  -21.1422   -6.0527   25.9071 H   0  0  0  0  0  0
  -22.0617   -2.7667   23.2794 H   0  0  0  0  0  0
  -22.4191  -11.9969   22.4641 H   0  0  0  0  0  0
  -21.1219  -13.1437   22.2616 H   0  0  0  0  0  0
  -24.6736  -15.8421   20.5138 H   0  0  0  0  0  0
  -26.2947  -15.6295   20.1035 H   0  0  0  0  0  0
  -26.7090  -32.5555   23.1161 H   0  0  0  0  0  0
  -25.0063  -33.9789   25.0485 H   0  0  0  0  0  0
  -22.6784  -31.3044   21.4330 H   0  0  0  0  0  0
  -23.3747  -35.9676   23.3313 H   0  0  0  0  0  0
  -24.3584  -36.8934   22.2041 H   0  0  0  0  0  0
  -23.7265  -37.6543   23.6641 H   0  0  0  0  0  0
  -26.0299  -31.6270   20.6029 H   0  0  0  0  0  0
  -26.8037  -30.8904   21.9841 H   0  0  0  0  0  0
  -28.0996  -29.1794   21.0927 H   0  0  0  0  0  0
  -26.0664  -26.0135   18.9737 H   0  0  0  0  0  0
  -23.9701  -27.2977   19.0431 H   0  0  0  0  0  0
  -23.6920  -30.6165   19.4203 H   0  0  0  0  0  0
  -22.7203  -29.2538   19.8772 H   0  0  0  0  0  0
  -25.1276  -36.1994   25.0838 H   0  0  0  0  0  0
  -20.9927  -28.2806   24.1459 H   0  0  0  0  0  0
  -20.6103  -26.2008   23.3133 H   0  0  0  0  0  0
  -21.6616  -26.7771   22.0551 H   0  0  0  0  0  0
  -19.6891  -25.6243   21.1091 H   0  0  0  0  0  0
  -19.6659  -27.3085   20.6563 H   0  0  0  0  0  0
  -17.4267  -26.7035   21.3644 H   0  0  0  0  0  0
  -18.0021  -25.9782   22.8468 H   0  0  0  0  0  0
  -19.7967  -30.6923   24.2540 H   0  0  0  0  0  0
  -17.5074  -31.6079   24.5238 H   0  0  0  0  0  0
  -15.5381  -30.2915   23.7565 H   0  0  0  0  0  0
  -15.8642  -28.0759   22.7016 H   0  0  0  0  0  0
  -24.5956  -30.6972   25.7765 H   0  0  0  0  0  0
  -24.8948  -32.2801   26.4894 H   0  0  0  0  0  0
  -25.8136  -30.8804   27.0191 H   0  0  0  0  0  0
  -26.2810  -29.6767   24.1117 H   0  0  0  0  0  0
  -27.4119  -29.7195   25.4429 H   0  0  0  0  0  0
  -27.8632  -30.4294   23.9109 H   0  0  0  0  0  0
  -27.2696  -33.3543   26.2054 H   0  0  0  0  0  0
  -28.3864  -32.6836   25.0243 H   0  0  0  0  0  0
  -28.0778  -31.8359   26.5330 H   0  0  0  0  0  0
  -28.2613  -38.0105   24.7501 H   0  0  0  0  0  0
  -28.1057  -36.2638   24.6292 H   0  0  0  0  0  0
  -27.2297  -37.1486   25.8865 H   0  0  0  0  0  0
  -20.9233  -29.9128   21.7595 H   0  0  0  0  0  0
  -26.0192  -38.2886   24.1394 H   0  0  0  0  0  0
  -27.3974  -26.0498   24.9023 H   0  0  0  0  0  0
  -29.4913  -26.7014   23.9832 H   0  0  0  0  0  0
  -29.0667  -27.5281   22.4927 H   0  0  0  0  0  0
  -30.0434  -26.0504   22.4412 H   0  0  0  0  0  0
  -25.0865  -23.5554   25.3722 H   0  0  0  0  0  0
  -24.0124  -24.8205   24.7561 H   0  0  0  0  0  0
  -25.3061  -25.2378   25.8888 H   0  0  0  0  0  0
  -27.9813  -24.8882   19.4350 H   0  0  0  0  0  0
  -29.3526  -25.0135   20.4586 H   0  0  0  0  0  0
  -26.3454  -23.6888   19.5241 H   0  0  0  0  0  0
  -24.8016  -23.8562   20.2690 H   0  0  0  0  0  0
  -25.2680  -21.8087   21.6547 H   0  0  0  0  0  0
  -26.8151  -21.6270   20.9079 H   0  0  0  0  0  0
  -24.1470  -21.6192   19.3787 H   0  0  0  0  0  0
  -24.8258  -20.1931   20.0574 H   0  0  0  0  0  0
  -25.3177  -20.2808   17.6820 H   0  0  0  0  0  0
  -26.0253  -21.8679   17.8026 H   0  0  0  0  0  0
  -27.9615  -21.0036   19.0266 H   0  0  0  0  0  0
  -27.7421  -20.1160   17.5521 H   0  0  0  0  0  0
  -26.8037  -18.1897   18.6943 H   0  0  0  0  0  0
  -26.6906  -19.0369   20.2093 H   0  0  0  0  0  0
  -29.1451  -19.2812   20.3665 H   0  0  0  0  0  0
  -29.3280  -18.4352   18.8462 H   0  0  0  0  0  0
  -28.0271  -17.2471   21.3545 H   0  0  0  0  0  0
  -28.2507  -16.4437   19.8195 H   0  0  0  0  0  0
  -30.4437  -17.3278   21.7826 H   0  0  0  0  0  0
  -30.7939  -16.9313   20.1116 H   0  0  0  0  0  0
  -29.2301  -15.0127   21.7615 H   0  0  0  0  0  0
  1 25  1  0  0  0
  1 30  2  0  0  0
  1 89  1  0  0  0
  2  3  1  0  0  0
  2 25  1  0  0  0
  2 90  1  0  0  0
  2 91  1  0  0  0
  3  4  1  0  0  0
  3 92  1  0  0  0
  3 93  1  0  0  0
  4  5  1  0  0  0
  4 94  1  0  0  0
  4 95  1  0  0  0
  5  6  1  0  0  0
  5 26  1  0  0  0
  5 96  1  0  0  0
  6 25  1  0  0  0
  6 97  1  0  0  0
  6 98  1  0  0  0
  7  8  2  0  0  0
  7 26  1  0  0  0
  7 29  1  0  0  0
  8  9  1  0  0  0
  8 22  1  0  0  0
  9 10  1  0  0  0
  9 27  2  0  0  0
 10 11  2  0  0  0
 10 15  1  0  0  0
 11 12  1  0  0  0
 11 99  1  0  0  0
 12 13  2  0  0  0
 12100  1  0  0  0
 13 14  1  0  0  0
 13 31  1  0  0  0
 14 15  2  0  0  0
 14101  1  0  0  0
 15102  1  0  0  0
 16 17  2  0  0  0
 16 21  1  0  0  0
 16 31  1  0  0  0
 17 18  1  0  0  0
 17103  1  0  0  0
 18 19  2  0  0  0
 18104  1  0  0  0
 19 20  1  0  0  0
 19 24  1  0  0  0
 20 21  2  0  0  0
 20105  1  0  0  0
 21 23  1  0  0  0
 22 28  1  0  0  0
 22 32  2  0  0  0
 26 27  1  0  0  0
 28106  1  0  0  0
 28107  1  0  0  0
 29108  1  0  0  0
 29109  1  0  0  0
 33 34  1  0  0  0
 33 66  1  0  0  0
 33 70  2  0  0  0
 34 36  1  0  0  0
 34 59  1  0  0  0
 34110  1  0  0  0
 35 44  2  0  0  0
 35 45  1  0  0  0
 35 68  1  0  0  0
 36 56  1  0  0  0
 36111  1  0  0  0
 37 39  1  0  0  0
 37 47  1  0  0  0
 37 66  1  0  0  0
 37112  1  0  0  0
 38 43  2  0  0  0
 38 46  1  0  0  0
 38 47  1  0  0  0
 39 64  1  0  0  0
 39 67  2  0  0  0
 40 52  1  0  0  0
 40 53  2  0  0  0
 40 58  1  0  0  0
 41113  1  0  0  0
 41114  1  0  0  0
 41115  1  0  0  0
 41 48  1  0  0  0
 42 43  1  0  0  0
 42 66  1  0  0  0
 42116  1  0  0  0
 42117  1  0  0  0
 43 44  1  0  0  0
 44118  1  0  0  0
 45 46  2  0  0  0
 45119  1  0  0  0
 46120  1  0  0  0
 47121  1  0  0  0
 47122  1  0  0  0
 48 56  1  0  0  0
 48 65  1  0  0  0
 48123  1  0  0  0
 49 50  1  0  0  0
 49 53  1  0  0  0
 49 64  1  0  0  0
 49124  1  0  0  0
 50 51  1  0  0  0
 50125  1  0  0  0
 50126  1  0  0  0
 51 52  1  0  0  0
 51127  1  0  0  0
 51128  1  0  0  0
 52129  1  0  0  0
 52130  1  0  0  0
 53 54  1  0  0  0
 54 55  2  0  0  0
 54131  1  0  0  0
 55 57  1  0  0  0
 55132  1  0  0  0
 56 69  2  0  0  0
 57 58  2  0  0  0
 57133  1  0  0  0
 58134  1  0  0  0
 59 60  1  0  0  0
 59 61  1  0  0  0
 59 62  1  0  0  0
 60135  1  0  0  0
 60136  1  0  0  0
 60137  1  0  0  0
 61138  1  0  0  0
 61139  1  0  0  0
 61140  1  0  0  0
 62141  1  0  0  0
 62142  1  0  0  0
 62143  1  0  0  0
 63 65  1  0  0  0
 63144  1  0  0  0
 63145  1  0  0  0
 63146  1  0  0  0
 64147  1  0  0  0
 65148  1  0  0  0
 68 78  1  0  0  0
 71 72  2  0  0  0
 71 74  1  0  0  0
 71149  1  0  0  0
 72 73  1  0  0  0
 72 76  1  0  0  0
 73 75  2  0  0  0
 73 78  1  0  0  0
 74 77  1  0  0  0
 74 88  2  0  0  0
 75 79  1  0  0  0
 75 88  1  0  0  0
 76150  1  0  0  0
 76151  1  0  0  0
 76152  1  0  0  0
 77153  1  0  0  0
 77154  1  0  0  0
 77155  1  0  0  0
 78156  1  0  0  0
 78157  1  0  0  0
 79 80  1  0  0  0
 79158  1  0  0  0
 79159  1  0  0  0
 80 81  1  0  0  0
 80160  1  0  0  0
 80161  1  0  0  0
 81 82  1  0  0  0
 81162  1  0  0  0
 81163  1  0  0  0
 82 83  1  0  0  0
 82164  1  0  0  0
 82165  1  0  0  0
 83 84  1  0  0  0
 83166  1  0  0  0
 83167  1  0  0  0
 84 85  1  0  0  0
 84168  1  0  0  0
 84169  1  0  0  0
 85 86  1  0  0  0
 85170  1  0  0  0
 85171  1  0  0  0
 86 87  1  0  0  0
 86172  1  0  0  0
 86173  1  0  0  0
 87 89  1  0  0  0
 87174  1  0  0  0
 87175  1  0  0  0
 89176  1  0  0  0
M  ISO  4   1 100  68 101  78 101  89 100
M  END
> <chiral flag>
0

> <version>
0

> <s_m_source_file>
/data/baiqing/PycharmProjects/Reinvent-master-3.2/result/LINK_invent/BTK/process_docking_weight1_custom_sum_contain_oxygen_bond_distance_aromatic_linkinvent_7_9_3/rearranged_h_0036.sdf

> <i_m_source_file_index>
74

> <r_mmod_Potential_Energy-OPLS-2005>
-178.688110351562

> <r_mmod_Stretch_Energy-OPLS-2005>
33.6671752929688

> <r_mmod_Bend_Energy-OPLS-2005>
100.084869384766

> <r_mmod_Torsional_Energy-OPLS-2005>
225.346237182617

> <r_mmod_Improper_Torsional_Energy-OPLS-2005>
5.32406139373779

> <r_mmod_Van_der_Waal_Energy-OPLS-2005>
151.842147827148

> <r_mmod_Electrostatic_Energy-OPLS-2005>
-491.519195556641

> <r_mmod_Solvation_Energy-OPLS-2005>
-212.265502929688

> <b_mmod_Minimization_Converged-OPLS-2005>
0

> <r_mmod_RMS_Derivative-OPLS-2005>
4.85756826400757

$$$$
75
                    3D
 Structure written by MMmdl.
211219  0  0  1  0            999 V2000
  -30.7400  -14.3784   20.6644 C   0  0  0  0  0  0
  -30.4285  -12.2823   19.3861 C   0  0  0  0  0  0
  -29.4904  -12.5197   18.1865 C   0  0  0  0  0  0
  -28.0128  -12.3751   18.6058 C   0  0  0  0  0  0
  -27.6708  -13.1923   19.8797 C   0  0  2  0  0  0
  -28.7136  -12.9215   20.9863 C   0  0  0  0  0  0
  -25.2654  -13.8122   20.5659 C   0  0  0  0  0  0
  -24.1847  -13.0437   20.9158 C   0  0  0  0  0  0
  -24.6396  -11.6902   20.8750 C   0  0  0  0  0  0
  -23.9057  -10.4284   21.0429 C   0  0  0  0  0  0
  -24.3611   -9.4197   21.9207 C   0  0  0  0  0  0
  -23.6271   -8.2247   22.0771 C   0  0  0  0  0  0
  -22.4254   -8.0295   21.3558 C   0  0  0  0  0  0
  -21.9902   -9.0278   20.4664 C   0  0  0  0  0  0
  -22.7247  -10.2144   20.3072 C   0  0  0  0  0  0
  -21.6849   -6.0744   22.5285 C   0  0  0  0  0  0
  -21.4010   -6.5631   23.8226 C   0  0  0  0  0  0
  -21.3666   -5.6784   24.9170 C   0  0  0  0  0  0
  -21.6050   -4.3051   24.7215 C   0  0  0  0  0  0
  -21.8817   -3.8151   23.4334 C   0  0  0  0  0  0
  -21.9190   -4.6970   22.3400 C   0  0  0  0  0  0
  -22.7895  -13.5296   21.1815 C   0  0  0  0  0  0
  -22.1656   -4.2167   21.0965 F   0  0  0  0  0  0
  -21.5641   -3.4518   25.7724 F   0  0  0  0  0  0
  -30.0510  -13.2272   20.4432 N   0  0  0  0  0  0
  -26.3080  -12.9269   20.3369 N   0  0  0  0  0  0
  -25.9301  -11.6455   20.5765 N   0  0  0  0  0  0
  -22.0489  -12.8304   22.0354 N   0  0  0  0  0  0
  -25.4387  -15.1833   20.4067 N   0  0  0  0  0  0
  -31.8007  -14.6492   20.0922 O   0  0  0  0  0  0
  -21.6631   -6.8880   21.4253 O   0  0  0  0  0  0
  -22.3612  -14.5624   20.6685 O   0  0  0  0  0  0
  -24.6164  -31.8702   23.2190 C   0  0  0  0  0  0
  -25.9073  -32.4833   23.8424 C   0  0  1  0  0  0
  -27.2236  -27.4786   20.0191 C   0  0  0  0  0  0
  -25.5938  -33.8617   24.2331 N   0  0  0  0  0  0
  -23.3969  -30.5040   21.5610 C   0  0  2  0  0  0
  -24.8391  -28.9933   20.1051 C   0  0  0  0  0  0
  -22.7467  -29.4647   22.4997 C   0  0  0  0  0  0
  -18.0301  -28.1281   22.8537 C   0  0  0  0  0  0
  -24.1494  -36.7324   23.2626 C   0  0  0  0  0  0
  -25.9324  -30.8433   21.3762 C   0  0  0  0  0  0
  -26.0073  -29.4875   20.7004 C   0  0  0  0  0  0
  -27.2066  -28.7343   20.6712 C   0  0  0  0  0  0
  -26.0460  -27.0335   19.3680 C   0  0  0  0  0  0
  -24.8474  -27.7576   19.4479 C   0  0  0  0  0  0
  -23.6064  -29.8637   20.1641 C   0  0  0  0  0  0
  -25.4103  -36.3108   24.0327 C   0  0  1  0  0  0
  -20.5909  -28.3682   23.1391 C   0  0  2  0  0  0
  -20.6866  -26.9384   22.5664 C   0  0  0  0  0  0
  -19.5883  -26.6258   21.5427 C   0  0  0  0  0  0
  -18.2002  -26.7752   22.1760 C   0  0  0  0  0  0
  -19.1534  -28.8782   23.2918 C   0  0  0  0  0  0
  -18.9418  -30.1401   23.8886 C   0  0  0  0  0  0
  -17.6406  -30.6508   24.0523 C   0  0  0  0  0  0
  -25.9050  -34.9475   23.5119 C   0  0  0  0  0  0
  -16.5324  -29.9013   23.6301 C   0  0  0  0  0  0
  -16.7273  -28.6408   23.0362 C   0  0  0  0  0  0
  -26.4534  -31.6577   25.0724 C   0  0  0  0  0  0
  -25.3838  -31.3670   26.1501 C   0  0  0  0  0  0
  -27.0332  -30.2998   24.6079 C   0  0  0  0  0  0
  -27.6106  -32.4296   25.7476 C   0  0  0  0  0  0
  -27.5567  -37.1798   24.8439 C   0  0  0  0  0  0
  -21.4186  -29.3061   22.3774 N   0  0  0  0  0  0
  -26.4279  -37.3798   23.9394 N   0  0  0  0  0  0
  -24.6670  -31.0848   22.1080 N   0  0  0  0  0  0
  -23.4317  -28.8098   23.2911 O   0  0  0  0  0  0
  -28.3301  -26.6515   20.0729 O   0  0  0  0  0  0
  -26.5591  -34.8913   22.4678 O   0  0  0  0  0  0
  -23.5379  -32.1431   23.7633 O   0  0  0  0  0  0
  -26.8930  -23.1583   21.7935 C   0  0  0  0  0  0
  -28.5438  -25.0689   21.9874 C   0  0  0  0  0  0
  -27.5497  -22.8588   20.4039 C   0  0  2  0  0  0
  -28.1613  -24.1121   19.6847 C   0  0  1  0  0  0
  -27.9975  -25.3471   20.5948 C   0  0  2  0  0  0
  -24.3826  -21.1695   18.6197 C   0  0  0  0  0  0
  -30.6704  -20.7242   19.0438 C   0  0  0  0  0  0
  -30.1273  -15.3918   21.6405 C   0  0  0  0  0  0
  -26.6563  -22.0189   19.4268 C   0  0  0  0  0  0
  -29.6174  -23.8157   19.2411 C   0  0  0  0  0  0
  -25.1536  -21.8813   19.7451 C   0  0  0  0  0  0
  -30.8845  -21.8900   18.0683 C   0  0  0  0  0  0
  -30.8459  -16.7475   21.8023 C   0  0  0  0  0  0
  -29.7006  -22.8661   18.0241 C   0  0  0  0  0  0
  -29.9373  -17.6588   22.6435 C   0  0  0  0  0  0
  -30.4871  -19.0332   23.0563 C   0  0  0  0  0  0
  -29.4673  -19.6944   24.0027 C   0  0  0  0  0  0
  -29.8199  -21.0857   24.5544 C   0  0  0  0  0  0
  -28.7675  -21.5044   25.6021 C   0  0  0  0  0  0
  -28.8764  -22.9425   26.1345 C   0  0  0  0  0  0
  -27.7270  -23.2691   27.1130 C   0  0  0  0  0  0
  -27.4666  -24.7798   27.2851 C   0  0  0  0  0  0
  -25.9778  -25.1431   27.4819 C   0  0  0  0  0  0
  -25.2821  -25.7933   26.2648 C   0  0  0  0  0  0
  -24.6774  -24.8510   25.2051 C   0  0  0  0  0  0
  -25.6448  -24.0460   24.3214 C   0  0  0  0  0  0
  -26.6919  -24.8980   23.5765 C   0  0  0  0  0  0
  -27.6199  -24.1284   22.6926 N   0  3  1  0  0  0
  -31.4702  -12.3900   19.0807 H   0  0  0  0  0  0
  -30.3290  -11.2567   19.7505 H   0  0  0  0  0  0
  -29.7136  -11.8141   17.3854 H   0  0  0  0  0  0
  -29.6578  -13.5164   17.7767 H   0  0  0  0  0  0
  -27.8254  -11.3150   18.7852 H   0  0  0  0  0  0
  -27.3568  -12.6643   17.7824 H   0  0  0  0  0  0
  -27.7322  -14.2455   19.6129 H   0  0  0  0  0  0
  -28.6796  -11.8733   21.2904 H   0  0  0  0  0  0
  -28.4645  -13.4793   21.8869 H   0  0  0  0  0  0
  -25.2764   -9.5673   22.4758 H   0  0  0  0  0  0
  -24.0004   -7.4633   22.7475 H   0  0  0  0  0  0
  -21.0849   -8.8804   19.8942 H   0  0  0  0  0  0
  -22.3744  -10.9682   19.6165 H   0  0  0  0  0  0
  -21.1989   -7.6134   23.9725 H   0  0  0  0  0  0
  -21.1496   -6.0497   25.9074 H   0  0  0  0  0  0
  -22.0588   -2.7611   23.2813 H   0  0  0  0  0  0
  -22.4080  -11.9962   22.4756 H   0  0  0  0  0  0
  -21.1130  -13.1378   22.2537 H   0  0  0  0  0  0
  -24.6770  -15.8428   20.5208 H   0  0  0  0  0  0
  -26.3006  -15.6194   20.1030 H   0  0  0  0  0  0
  -26.7134  -32.5570   23.1168 H   0  0  0  0  0  0
  -25.0206  -33.9753   25.0564 H   0  0  0  0  0  0
  -22.6828  -31.3210   21.4357 H   0  0  0  0  0  0
  -23.3764  -35.9654   23.3297 H   0  0  0  0  0  0
  -24.3632  -36.8949   22.2043 H   0  0  0  0  0  0
  -23.7218  -37.6505   23.6671 H   0  0  0  0  0  0
  -26.0506  -31.6262   20.6240 H   0  0  0  0  0  0
  -26.8163  -30.8840   21.9983 H   0  0  0  0  0  0
  -28.1049  -29.0909   21.1568 H   0  0  0  0  0  0
  -26.0340  -26.1032   18.8218 H   0  0  0  0  0  0
  -23.9504  -27.3774   18.9789 H   0  0  0  0  0  0
  -23.7231  -30.6589   19.4276 H   0  0  0  0  0  0
  -22.7274  -29.2990   19.8442 H   0  0  0  0  0  0
  -25.1260  -36.1993   25.0819 H   0  0  0  0  0  0
  -21.0034  -28.3369   24.1495 H   0  0  0  0  0  0
  -20.5649  -26.2432   23.3997 H   0  0  0  0  0  0
  -21.6810  -26.7353   22.1674 H   0  0  0  0  0  0
  -19.7233  -25.6160   21.1510 H   0  0  0  0  0  0
  -19.6906  -27.3052   20.6958 H   0  0  0  0  0  0
  -17.4318  -26.6366   21.4125 H   0  0  0  0  0  0
  -18.0391  -25.9904   22.9172 H   0  0  0  0  0  0
  -19.7875  -30.7227   24.2297 H   0  0  0  0  0  0
  -17.4943  -31.6174   24.5141 H   0  0  0  0  0  0
  -15.5312  -30.2892   23.7556 H   0  0  0  0  0  0
  -15.8687  -28.0707   22.7097 H   0  0  0  0  0  0
  -24.6032  -30.6966   25.7877 H   0  0  0  0  0  0
  -24.9031  -32.2830   26.4944 H   0  0  0  0  0  0
  -25.8261  -30.8870   27.0249 H   0  0  0  0  0  0
  -26.2834  -29.6735   24.1219 H   0  0  0  0  0  0
  -27.4187  -29.7216   25.4492 H   0  0  0  0  0  0
  -27.8663  -30.4248   23.9146 H   0  0  0  0  0  0
  -27.2706  -33.3589   26.2045 H   0  0  0  0  0  0
  -28.3923  -32.6866   25.0315 H   0  0  0  0  0  0
  -28.0772  -31.8442   26.5398 H   0  0  0  0  0  0
  -28.2556  -38.0119   24.7513 H   0  0  0  0  0  0
  -28.1081  -36.2647   24.6236 H   0  0  0  0  0  0
  -27.2306  -37.1386   25.8846 H   0  0  0  0  0  0
  -20.9381  -29.8904   21.7070 H   0  0  0  0  0  0
  -26.0194  -38.2883   24.1451 H   0  0  0  0  0  0
  -26.7396  -22.2292   22.3393 H   0  0  0  0  0  0
  -25.8996  -23.5680   21.6085 H   0  0  0  0  0  0
  -29.5519  -24.6590   21.9340 H   0  0  0  0  0  0
  -28.6416  -26.0140   22.5288 H   0  0  0  0  0  0
  -28.3815  -22.2019   20.6651 H   0  0  0  0  0  0
  -27.5922  -24.3493   18.7867 H   0  0  0  0  0  0
  -26.9274  -25.3612   20.7817 H   0  0  0  0  0  0
  -23.3717  -20.9048   18.9370 H   0  0  0  0  0  0
  -24.8753  -20.2504   18.2967 H   0  0  0  0  0  0
  -24.2817  -21.8168   17.7455 H   0  0  0  0  0  0
  -31.5309  -20.0541   19.0394 H   0  0  0  0  0  0
  -29.7931  -20.1360   18.7698 H   0  0  0  0  0  0
  -30.5256  -21.0702   20.0655 H   0  0  0  0  0  0
  -29.1159  -15.5909   21.2845 H   0  0  0  0  0  0
  -30.0490  -14.9182   22.6195 H   0  0  0  0  0  0
  -27.0910  -21.0209   19.3351 H   0  0  0  0  0  0
  -26.7089  -22.4244   18.4156 H   0  0  0  0  0  0
  -30.1787  -23.4036   20.0815 H   0  0  0  0  0  0
  -30.1312  -24.7456   18.9928 H   0  0  0  0  0  0
  -25.0269  -21.3276   20.6743 H   0  0  0  0  0  0
  -24.6883  -22.8582   19.8905 H   0  0  0  0  0  0
  -31.0292  -21.4730   17.0703 H   0  0  0  0  0  0
  -31.8079  -22.4178   18.3062 H   0  0  0  0  0  0
  -31.0512  -17.2034   20.8327 H   0  0  0  0  0  0
  -31.8065  -16.6070   22.2949 H   0  0  0  0  0  0
  -29.7512  -23.4726   17.1200 H   0  0  0  0  0  0
  -28.7937  -22.2793   17.8992 H   0  0  0  0  0  0
  -29.6622  -17.1131   23.5479 H   0  0  0  0  0  0
  -29.0085  -17.8136   22.0940 H   0  0  0  0  0  0
  -30.6500  -19.6532   22.1743 H   0  0  0  0  0  0
  -31.4520  -18.9242   23.5547 H   0  0  0  0  0  0
  -29.3110  -19.0228   24.8473 H   0  0  0  0  0  0
  -28.5060  -19.7581   23.4917 H   0  0  0  0  0  0
  -29.8587  -21.8043   23.7364 H   0  0  0  0  0  0
  -30.8130  -21.0666   25.0054 H   0  0  0  0  0  0
  -28.8220  -20.8217   26.4503 H   0  0  0  0  0  0
  -27.7741  -21.3725   25.1715 H   0  0  0  0  0  0
  -28.8503  -23.6371   25.2994 H   0  0  0  0  0  0
  -29.8350  -23.0990   26.6294 H   0  0  0  0  0  0
  -27.9309  -22.8095   28.0822 H   0  0  0  0  0  0
  -26.8146  -22.7801   26.7850 H   0  0  0  0  0  0
  -27.8749  -25.3523   26.4534 H   0  0  0  0  0  0
  -28.0364  -25.1199   28.1484 H   0  0  0  0  0  0
  -25.9289  -25.8826   28.2828 H   0  0  0  0  0  0
  -25.4041  -24.2937   27.8543 H   0  0  0  0  0  0
  -25.9199  -26.5476   25.8017 H   0  0  0  0  0  0
  -24.4394  -26.3662   26.6561 H   0  0  0  0  0  0
  -24.0680  -25.4721   24.5447 H   0  0  0  0  0  0
  -23.9738  -24.1682   25.6854 H   0  0  0  0  0  0
  -25.0011  -23.5409   23.6030 H   0  0  0  0  0  0
  -26.1266  -23.2508   24.8789 H   0  0  0  0  0  0
  -27.2969  -25.4449   24.2967 H   0  0  0  0  0  0
  -26.1657  -25.6617   23.0002 H   0  0  0  0  0  0
  -28.2076  -23.5712   23.2967 H   0  0  0  0  0  0
  1 25  1  0  0  0
  1 30  2  0  0  0
  1 78  1  0  0  0
  2  3  1  0  0  0
  2 25  1  0  0  0
  2 99  1  0  0  0
  2100  1  0  0  0
  3  4  1  0  0  0
  3101  1  0  0  0
  3102  1  0  0  0
  4  5  1  0  0  0
  4103  1  0  0  0
  4104  1  0  0  0
  5  6  1  0  0  0
  5 26  1  0  0  0
  5105  1  0  0  0
  6 25  1  0  0  0
  6106  1  0  0  0
  6107  1  0  0  0
  7  8  2  0  0  0
  7 26  1  0  0  0
  7 29  1  0  0  0
  8  9  1  0  0  0
  8 22  1  0  0  0
  9 10  1  0  0  0
  9 27  2  0  0  0
 10 11  2  0  0  0
 10 15  1  0  0  0
 11 12  1  0  0  0
 11108  1  0  0  0
 12 13  2  0  0  0
 12109  1  0  0  0
 13 14  1  0  0  0
 13 31  1  0  0  0
 14 15  2  0  0  0
 14110  1  0  0  0
 15111  1  0  0  0
 16 17  2  0  0  0
 16 21  1  0  0  0
 16 31  1  0  0  0
 17 18  1  0  0  0
 17112  1  0  0  0
 18 19  2  0  0  0
 18113  1  0  0  0
 19 20  1  0  0  0
 19 24  1  0  0  0
 20 21  2  0  0  0
 20114  1  0  0  0
 21 23  1  0  0  0
 22 28  1  0  0  0
 22 32  2  0  0  0
 26 27  1  0  0  0
 28115  1  0  0  0
 28116  1  0  0  0
 29117  1  0  0  0
 29118  1  0  0  0
 33 34  1  0  0  0
 33 66  1  0  0  0
 33 70  2  0  0  0
 34 36  1  0  0  0
 34 59  1  0  0  0
 34119  1  0  0  0
 35 44  2  0  0  0
 35 45  1  0  0  0
 35 68  1  0  0  0
 36 56  1  0  0  0
 36120  1  0  0  0
 37 39  1  0  0  0
 37 47  1  0  0  0
 37 66  1  0  0  0
 37121  1  0  0  0
 38 43  2  0  0  0
 38 46  1  0  0  0
 38 47  1  0  0  0
 39 64  1  0  0  0
 39 67  2  0  0  0
 40 52  1  0  0  0
 40 53  2  0  0  0
 40 58  1  0  0  0
 41122  1  0  0  0
 41123  1  0  0  0
 41124  1  0  0  0
 41 48  1  0  0  0
 42 43  1  0  0  0
 42 66  1  0  0  0
 42125  1  0  0  0
 42126  1  0  0  0
 43 44  1  0  0  0
 44127  1  0  0  0
 45 46  2  0  0  0
 45128  1  0  0  0
 46129  1  0  0  0
 47130  1  0  0  0
 47131  1  0  0  0
 48 56  1  0  0  0
 48 65  1  0  0  0
 48132  1  0  0  0
 49 50  1  0  0  0
 49 53  1  0  0  0
 49 64  1  0  0  0
 49133  1  0  0  0
 50 51  1  0  0  0
 50134  1  0  0  0
 50135  1  0  0  0
 51 52  1  0  0  0
 51136  1  0  0  0
 51137  1  0  0  0
 52138  1  0  0  0
 52139  1  0  0  0
 53 54  1  0  0  0
 54 55  2  0  0  0
 54140  1  0  0  0
 55 57  1  0  0  0
 55141  1  0  0  0
 56 69  2  0  0  0
 57 58  2  0  0  0
 57142  1  0  0  0
 58143  1  0  0  0
 59 60  1  0  0  0
 59 61  1  0  0  0
 59 62  1  0  0  0
 60144  1  0  0  0
 60145  1  0  0  0
 60146  1  0  0  0
 61147  1  0  0  0
 61148  1  0  0  0
 61149  1  0  0  0
 62150  1  0  0  0
 62151  1  0  0  0
 62152  1  0  0  0
 63 65  1  0  0  0
 63153  1  0  0  0
 63154  1  0  0  0
 63155  1  0  0  0
 64156  1  0  0  0
 65157  1  0  0  0
 68 75  1  0  0  0
 71 73  1  0  0  0
 71 98  1  0  0  0
 71158  1  0  0  0
 71159  1  0  0  0
 72 75  1  0  0  0
 72 98  1  0  0  0
 72160  1  0  0  0
 72161  1  0  0  0
 73 74  1  0  0  0
 73 79  1  0  0  0
 73162  1  0  0  0
 74 75  1  0  0  0
 74 80  1  0  0  0
 74163  1  0  0  0
 75164  1  0  0  0
 76 81  1  0  0  0
 76165  1  0  0  0
 76166  1  0  0  0
 76167  1  0  0  0
 77 82  1  0  0  0
 77168  1  0  0  0
 77169  1  0  0  0
 77170  1  0  0  0
 78 83  1  0  0  0
 78171  1  0  0  0
 78172  1  0  0  0
 79 81  1  0  0  0
 79173  1  0  0  0
 79174  1  0  0  0
 80 84  1  0  0  0
 80175  1  0  0  0
 80176  1  0  0  0
 81177  1  0  0  0
 81178  1  0  0  0
 82 84  1  0  0  0
 82179  1  0  0  0
 82180  1  0  0  0
 83 85  1  0  0  0
 83181  1  0  0  0
 83182  1  0  0  0
 84183  1  0  0  0
 84184  1  0  0  0
 85 86  1  0  0  0
 85185  1  0  0  0
 85186  1  0  0  0
 86 87  1  0  0  0
 86187  1  0  0  0
 86188  1  0  0  0
 87 88  1  0  0  0
 87189  1  0  0  0
 87190  1  0  0  0
 88 89  1  0  0  0
 88191  1  0  0  0
 88192  1  0  0  0
 89 90  1  0  0  0
 89193  1  0  0  0
 89194  1  0  0  0
 90 91  1  0  0  0
 90195  1  0  0  0
 90196  1  0  0  0
 91 92  1  0  0  0
 91197  1  0  0  0
 91198  1  0  0  0
 92 93  1  0  0  0
 92199  1  0  0  0
 92200  1  0  0  0
 93 94  1  0  0  0
 93201  1  0  0  0
 93202  1  0  0  0
 94 95  1  0  0  0
 94203  1  0  0  0
 94204  1  0  0  0
 95 96  1  0  0  0
 95205  1  0  0  0
 95206  1  0  0  0
 96 97  1  0  0  0
 96207  1  0  0  0
 96208  1  0  0  0
 97209  1  0  0  0
 97210  1  0  0  0
 97 98  1  0  0  0
 98211  1  0  0  0
M  CHG  1  98   1
M  ISO  4   1 100  68 101  75 101  78 100
M  END
> <chiral flag>
0

> <version>
0

> <s_m_source_file>
/data/baiqing/PycharmProjects/Reinvent-master-3.2/result/LINK_invent/BTK/process_docking_weight1_custom_sum_contain_oxygen_bond_distance_aromatic_linkinvent_7_9_3/rearranged_h_0036.sdf

> <i_m_source_file_index>
75

> <r_mmod_Potential_Energy-OPLS-2005>
178.734527587891

> <r_mmod_Stretch_Energy-OPLS-2005>
44.3691673278809

> <r_mmod_Bend_Energy-OPLS-2005>
152.08805847168

> <r_mmod_Torsional_Energy-OPLS-2005>
318.185424804688

> <r_mmod_Improper_Torsional_Energy-OPLS-2005>
1.93303561210632

> <r_mmod_Van_der_Waal_Energy-OPLS-2005>
150.274810791016

> <r_mmod_Electrostatic_Energy-OPLS-2005>
-147.703247070312

> <r_mmod_Solvation_Energy-OPLS-2005>
-354.535278320312

> <b_mmod_Minimization_Converged-OPLS-2005>
0

> <r_mmod_RMS_Derivative-OPLS-2005>
5.75134515762329

$$$$
76
                    3D
 Structure written by MMmdl.
155163  0  0  1  0            999 V2000
  -30.6588  -14.6798   20.4491 C   0  0  0  0  0  0
  -30.4292  -12.4140   19.4418 C   0  0  0  0  0  0
  -29.4974  -12.5003   18.2168 C   0  0  0  0  0  0
  -28.0192  -12.3522   18.6270 C   0  0  0  0  0  0
  -27.6423  -13.2424   19.8412 C   0  0  2  0  0  0
  -28.6955  -13.1485   20.9661 C   0  0  0  0  0  0
  -25.2475  -13.8208   20.5661 C   0  0  0  0  0  0
  -24.1816  -13.0450   20.9203 C   0  0  0  0  0  0
  -24.6416  -11.6915   20.8691 C   0  0  0  0  0  0
  -23.9104  -10.4311   21.0372 C   0  0  0  0  0  0
  -24.3638   -9.4220   21.9153 C   0  0  0  0  0  0
  -23.6310   -8.2274   22.0717 C   0  0  0  0  0  0
  -22.4300   -8.0287   21.3519 C   0  0  0  0  0  0
  -21.9933   -9.0271   20.4652 C   0  0  0  0  0  0
  -22.7255  -10.2142   20.3058 C   0  0  0  0  0  0
  -21.6827   -6.0747   22.5289 C   0  0  0  0  0  0
  -21.3997   -6.5635   23.8223 C   0  0  0  0  0  0
  -21.3682   -5.6797   24.9192 C   0  0  0  0  0  0
  -21.6082   -4.3072   24.7235 C   0  0  0  0  0  0
  -21.8829   -3.8155   23.4363 C   0  0  0  0  0  0
  -21.9181   -4.6982   22.3415 C   0  0  0  0  0  0
  -22.7818  -13.5164   21.1895 C   0  0  0  0  0  0
  -22.1668   -4.2189   21.0990 F   0  0  0  0  0  0
  -21.5638   -3.4541   25.7754 F   0  0  0  0  0  0
  -30.0030  -13.4748   20.3800 N   0  0  0  0  0  0
  -26.2965  -12.9478   20.3270 N   0  0  0  0  0  0
  -25.9354  -11.6603   20.5761 N   0  0  0  0  0  0
  -22.0526  -12.8180   22.0502 N   0  0  0  0  0  0
  -25.4056  -15.1974   20.3930 N   0  0  0  0  0  0
  -31.8574  -14.7544   20.1779 O   0  0  0  0  0  0
  -21.6632   -6.8895   21.4241 O   0  0  0  0  0  0
  -22.3468  -14.5431   20.6705 O   0  0  0  0  0  0
  -24.6304  -31.8496   23.2034 C   0  0  0  0  0  0
  -25.9135  -32.4747   23.8344 C   0  0  1  0  0  0
  -27.2230  -27.2750   20.1546 C   0  0  0  0  0  0
  -25.5925  -33.8560   24.2246 N   0  0  0  0  0  0
  -23.4279  -30.4743   21.5400 C   0  0  2  0  0  0
  -24.8790  -28.9202   20.1055 C   0  0  0  0  0  0
  -22.7506  -29.4571   22.4918 C   0  0  0  0  0  0
  -18.0289  -28.1395   22.8466 C   0  0  0  0  0  0
  -24.1478  -36.7321   23.2631 C   0  0  0  0  0  0
  -25.9740  -30.7673   21.3800 C   0  0  0  0  0  0
  -26.0429  -29.3891   20.7306 C   0  0  0  0  0  0
  -27.2196  -28.5802   20.7418 C   0  0  0  0  0  0
  -26.0449  -26.8686   19.4931 C   0  0  0  0  0  0
  -24.8878  -27.6708   19.4642 C   0  0  0  0  0  0
  -23.6474  -29.8071   20.1530 C   0  0  0  0  0  0
  -25.4084  -36.3082   24.0323 C   0  0  1  0  0  0
  -20.5887  -28.3701   23.1250 C   0  0  2  0  0  0
  -20.6773  -26.9408   22.5408 C   0  0  0  0  0  0
  -19.5750  -26.6366   21.5213 C   0  0  0  0  0  0
  -18.1924  -26.7922   22.1627 C   0  0  0  0  0  0
  -19.1545  -28.8868   23.2851 C   0  0  0  0  0  0
  -18.9474  -30.1466   23.8868 C   0  0  0  0  0  0
  -17.6466  -30.6573   24.0560 C   0  0  0  0  0  0
  -25.9061  -34.9445   23.5110 C   0  0  0  0  0  0
  -16.5352  -29.9072   23.6327 C   0  0  0  0  0  0
  -16.7277  -28.6514   23.0302 C   0  0  0  0  0  0
  -26.4460  -31.6622   25.0786 C   0  0  0  0  0  0
  -25.3700  -31.3787   26.1541 C   0  0  0  0  0  0
  -27.0276  -30.3002   24.6345 C   0  0  0  0  0  0
  -27.6033  -32.4341   25.7552 C   0  0  0  0  0  0
  -27.5571  -37.1788   24.8414 C   0  0  0  0  0  0
  -21.4205  -29.3033   22.3644 N   0  0  0  0  0  0
  -26.4235  -37.3790   23.9414 N   0  0  0  0  0  0
  -24.6968  -31.0483   22.0980 N   0  0  0  0  0  0
  -23.4233  -28.8080   23.2992 O   0  0  0  0  0  0
  -28.3188  -26.3941   20.2015 O   0  0  0  0  0  0
  -26.5635  -34.8896   22.4691 O   0  0  0  0  0  0
  -23.5448  -32.1343   23.7313 O   0  0  0  0  0  0
  -29.5374  -19.7487   20.7475 C   0  0  0  0  0  0
  -29.1173  -20.8781   18.6695 C   0  0  0  0  0  0
  -29.1606  -20.9683   20.0717 C   0  0  0  0  0  0
  -29.8627  -18.5279   20.0404 C   0  0  0  0  0  0
  -29.8007  -18.6137   18.6178 C   0  0  0  0  0  0
  -28.7155  -22.3044   20.8083 C   0  0  0  0  0  0
  -30.4170  -17.2501   20.8125 C   0  0  0  0  0  0
  -28.9329  -23.7633   20.1467 C   0  0  0  0  0  0
  -28.0978  -25.0128   20.7381 C   0  0  0  0  0  0
  -30.1969  -17.4488   17.6834 C   0  0  0  0  0  0
  -29.4322  -19.7610   17.9830 N   0  0  0  0  0  0
  -29.9130  -15.8297   20.6173 N   0  0  0  0  0  0
  -29.3801  -16.4071   17.8357 F   0  0  0  0  0  0
  -30.1389  -17.8086   16.3957 F   0  0  0  0  0  0
  -31.4487  -17.0560   17.9265 F   0  0  0  0  0  0
  -31.4644  -12.5399   19.1235 H   0  0  0  0  0  0
  -30.3846  -11.4339   19.9166 H   0  0  0  0  0  0
  -29.7572  -11.7421   17.4769 H   0  0  0  0  0  0
  -29.6482  -13.4648   17.7322 H   0  0  0  0  0  0
  -27.8357  -11.3025   18.8502 H   0  0  0  0  0  0
  -27.3804  -12.5935   17.7797 H   0  0  0  0  0  0
  -27.6498  -14.2659   19.4670 H   0  0  0  0  0  0
  -28.7138  -12.1439   21.3893 H   0  0  0  0  0  0
  -28.4479  -13.8272   21.7814 H   0  0  0  0  0  0
  -25.2786   -9.5709   22.4708 H   0  0  0  0  0  0
  -24.0077   -7.4634   22.7371 H   0  0  0  0  0  0
  -21.0883   -8.8724   19.8917 H   0  0  0  0  0  0
  -22.3664  -10.9658   19.6175 H   0  0  0  0  0  0
  -21.1964   -7.6154   23.9756 H   0  0  0  0  0  0
  -21.1484   -6.0517   25.9097 H   0  0  0  0  0  0
  -22.0574   -2.7635   23.2832 H   0  0  0  0  0  0
  -22.4158  -11.9841   22.4935 H   0  0  0  0  0  0
  -21.1128  -13.1146   22.2696 H   0  0  0  0  0  0
  -24.6157  -15.8307   20.4697 H   0  0  0  0  0  0
  -26.2343  -15.6406   20.0132 H   0  0  0  0  0  0
  -26.7235  -32.5328   23.1102 H   0  0  0  0  0  0
  -24.9991  -33.9674   25.0331 H   0  0  0  0  0  0
  -22.7268  -31.3004   21.3941 H   0  0  0  0  0  0
  -23.3737  -35.9659   23.3213 H   0  0  0  0  0  0
  -24.3570  -36.9040   22.2064 H   0  0  0  0  0  0
  -23.7236  -37.6496   23.6713 H   0  0  0  0  0  0
  -26.1117  -31.5168   20.5975 H   0  0  0  0  0  0
  -26.8526  -30.8131   22.0141 H   0  0  0  0  0  0
  -28.1080  -28.9381   21.2401 H   0  0  0  0  0  0
  -26.0066  -25.9118   18.9951 H   0  0  0  0  0  0
  -24.0079  -27.3189   18.9403 H   0  0  0  0  0  0
  -23.7767  -30.5843   19.3973 H   0  0  0  0  0  0
  -22.7636  -29.2444   19.8452 H   0  0  0  0  0  0
  -25.1265  -36.1913   25.0809 H   0  0  0  0  0  0
  -20.9997  -28.3282   24.1364 H   0  0  0  0  0  0
  -20.5609  -26.2337   23.3626 H   0  0  0  0  0  0
  -21.6637  -26.7338   22.1232 H   0  0  0  0  0  0
  -19.6870  -25.6267   21.1249 H   0  0  0  0  0  0
  -19.6664  -27.3169   20.6732 H   0  0  0  0  0  0
  -17.4181  -26.6656   21.4038 H   0  0  0  0  0  0
  -18.0293  -26.0069   22.9027 H   0  0  0  0  0  0
  -19.7951  -30.7295   24.2209 H   0  0  0  0  0  0
  -17.5006  -31.6232   24.5195 H   0  0  0  0  0  0
  -15.5344  -30.2959   23.7644 H   0  0  0  0  0  0
  -15.8686  -28.0825   22.6987 H   0  0  0  0  0  0
  -24.5872  -30.7109   25.7905 H   0  0  0  0  0  0
  -24.8899  -32.2969   26.4946 H   0  0  0  0  0  0
  -25.8039  -30.8999   27.0345 H   0  0  0  0  0  0
  -26.2881  -29.6791   24.1274 H   0  0  0  0  0  0
  -27.3770  -29.7215   25.4914 H   0  0  0  0  0  0
  -27.8843  -30.4180   23.9708 H   0  0  0  0  0  0
  -27.2645  -33.3590   26.2197 H   0  0  0  0  0  0
  -28.3815  -32.6977   25.0399 H   0  0  0  0  0  0
  -28.0756  -31.8461   26.5424 H   0  0  0  0  0  0
  -28.2527  -38.0166   24.7569 H   0  0  0  0  0  0
  -28.1155  -36.2695   24.6077 H   0  0  0  0  0  0
  -27.2320  -37.1245   25.8833 H   0  0  0  0  0  0
  -20.9431  -29.8840   21.6876 H   0  0  0  0  0  0
  -26.0117  -38.2835   24.1544 H   0  0  0  0  0  0
  -29.6072  -19.7504   21.8279 H   0  0  0  0  0  0
  -28.8204  -21.7217   18.0621 H   0  0  0  0  0  0
  -29.1969  -22.3074   21.7866 H   0  0  0  0  0  0
  -27.6535  -22.1807   21.0323 H   0  0  0  0  0  0
  -30.2965  -17.4495   21.8785 H   0  0  0  0  0  0
  -31.4988  -17.2616   20.6769 H   0  0  0  0  0  0
  -28.7098  -23.7223   19.0767 H   0  0  0  0  0  0
  -29.9990  -23.9997   20.2154 H   0  0  0  0  0  0
  -28.3184  -25.0767   21.8082 H   0  0  0  0  0  0
  -27.0367  -24.7503   20.7026 H   0  0  0  0  0  0
  -28.9261  -15.6905   20.7687 H   0  0  0  0  0  0
  1 25  1  0  0  0
  1 30  2  0  0  0
  1 82  1  0  0  0
  2  3  1  0  0  0
  2 25  1  0  0  0
  2 86  1  0  0  0
  2 87  1  0  0  0
  3  4  1  0  0  0
  3 88  1  0  0  0
  3 89  1  0  0  0
  4  5  1  0  0  0
  4 90  1  0  0  0
  4 91  1  0  0  0
  5  6  1  0  0  0
  5 26  1  0  0  0
  5 92  1  0  0  0
  6 25  1  0  0  0
  6 93  1  0  0  0
  6 94  1  0  0  0
  7  8  2  0  0  0
  7 26  1  0  0  0
  7 29  1  0  0  0
  8  9  1  0  0  0
  8 22  1  0  0  0
  9 10  1  0  0  0
  9 27  2  0  0  0
 10 11  2  0  0  0
 10 15  1  0  0  0
 11 12  1  0  0  0
 11 95  1  0  0  0
 12 13  2  0  0  0
 12 96  1  0  0  0
 13 14  1  0  0  0
 13 31  1  0  0  0
 14 15  2  0  0  0
 14 97  1  0  0  0
 15 98  1  0  0  0
 16 17  2  0  0  0
 16 21  1  0  0  0
 16 31  1  0  0  0
 17 18  1  0  0  0
 17 99  1  0  0  0
 18 19  2  0  0  0
 18100  1  0  0  0
 19 20  1  0  0  0
 19 24  1  0  0  0
 20 21  2  0  0  0
 20101  1  0  0  0
 21 23  1  0  0  0
 22 28  1  0  0  0
 22 32  2  0  0  0
 26 27  1  0  0  0
 28102  1  0  0  0
 28103  1  0  0  0
 29104  1  0  0  0
 29105  1  0  0  0
 33 34  1  0  0  0
 33 66  1  0  0  0
 33 70  2  0  0  0
 34 36  1  0  0  0
 34 59  1  0  0  0
 34106  1  0  0  0
 35 44  2  0  0  0
 35 45  1  0  0  0
 35 68  1  0  0  0
 36 56  1  0  0  0
 36107  1  0  0  0
 37 39  1  0  0  0
 37 47  1  0  0  0
 37 66  1  0  0  0
 37108  1  0  0  0
 38 43  2  0  0  0
 38 46  1  0  0  0
 38 47  1  0  0  0
 39 64  1  0  0  0
 39 67  2  0  0  0
 40 52  1  0  0  0
 40 53  2  0  0  0
 40 58  1  0  0  0
 41109  1  0  0  0
 41110  1  0  0  0
 41111  1  0  0  0
 41 48  1  0  0  0
 42 43  1  0  0  0
 42 66  1  0  0  0
 42112  1  0  0  0
 42113  1  0  0  0
 43 44  1  0  0  0
 44114  1  0  0  0
 45 46  2  0  0  0
 45115  1  0  0  0
 46116  1  0  0  0
 47117  1  0  0  0
 47118  1  0  0  0
 48 56  1  0  0  0
 48 65  1  0  0  0
 48119  1  0  0  0
 49 50  1  0  0  0
 49 53  1  0  0  0
 49 64  1  0  0  0
 49120  1  0  0  0
 50 51  1  0  0  0
 50121  1  0  0  0
 50122  1  0  0  0
 51 52  1  0  0  0
 51123  1  0  0  0
 51124  1  0  0  0
 52125  1  0  0  0
 52126  1  0  0  0
 53 54  1  0  0  0
 54 55  2  0  0  0
 54127  1  0  0  0
 55 57  1  0  0  0
 55128  1  0  0  0
 56 69  2  0  0  0
 57 58  2  0  0  0
 57129  1  0  0  0
 58130  1  0  0  0
 59 60  1  0  0  0
 59 61  1  0  0  0
 59 62  1  0  0  0
 60131  1  0  0  0
 60132  1  0  0  0
 60133  1  0  0  0
 61134  1  0  0  0
 61135  1  0  0  0
 61136  1  0  0  0
 62137  1  0  0  0
 62138  1  0  0  0
 62139  1  0  0  0
 63 65  1  0  0  0
 63140  1  0  0  0
 63141  1  0  0  0
 63142  1  0  0  0
 64143  1  0  0  0
 65144  1  0  0  0
 68 79  1  0  0  0
 71 73  2  0  0  0
 71 74  1  0  0  0
 71145  1  0  0  0
 72 73  1  0  0  0
 72 81  2  0  0  0
 72146  1  0  0  0
 73 76  1  0  0  0
 74 75  2  0  0  0
 74 77  1  0  0  0
 75 80  1  0  0  0
 75 81  1  0  0  0
 76 78  1  0  0  0
 76147  1  0  0  0
 76148  1  0  0  0
 77 82  1  0  0  0
 77149  1  0  0  0
 77150  1  0  0  0
 78 79  1  0  0  0
 78151  1  0  0  0
 78152  1  0  0  0
 79153  1  0  0  0
 79154  1  0  0  0
 80 83  1  0  0  0
 80 84  1  0  0  0
 80 85  1  0  0  0
 82155  1  0  0  0
M  ISO  4   1 100  68 101  79 101  82 100
M  END
> <chiral flag>
0

> <version>
0

> <s_m_source_file>
/data/baiqing/PycharmProjects/Reinvent-master-3.2/result/LINK_invent/BTK/process_docking_weight1_custom_sum_contain_oxygen_bond_distance_aromatic_linkinvent_7_9_3/rearranged_h_0036.sdf

> <i_m_source_file_index>
76

> <r_mmod_Potential_Energy-OPLS-2005>
87.200325012207

> <r_mmod_Stretch_Energy-OPLS-2005>
108.919418334961

> <r_mmod_Bend_Energy-OPLS-2005>
150.423629760742

> <r_mmod_Torsional_Energy-OPLS-2005>
229.626449584961

> <r_mmod_Improper_Torsional_Energy-OPLS-2005>
5.90363788604736

> <r_mmod_Van_der_Waal_Energy-OPLS-2005>
133.947082519531

> <r_mmod_Electrostatic_Energy-OPLS-2005>
-401.028015136719

> <r_mmod_Solvation_Energy-OPLS-2005>
-212.388854980469

> <b_mmod_Minimization_Converged-OPLS-2005>
0

> <r_mmod_RMS_Derivative-OPLS-2005>
8.78682613372803

$$$$
77
                    3D
 Structure written by MMmdl.
158166  0  0  1  0            999 V2000
  -30.6302  -14.6049   20.4883 C   0  0  0  0  0  0
  -30.4298  -12.3596   19.4414 C   0  0  0  0  0  0
  -29.5000  -12.4923   18.2154 C   0  0  0  0  0  0
  -28.0217  -12.3482   18.6275 C   0  0  0  0  0  0
  -27.6574  -13.2104   19.8648 C   0  0  2  0  0  0
  -28.7023  -13.0463   20.9926 C   0  0  0  0  0  0
  -25.2565  -13.8152   20.5663 C   0  0  0  0  0  0
  -24.1810  -13.0438   20.9204 C   0  0  0  0  0  0
  -24.6376  -11.6919   20.8737 C   0  0  0  0  0  0
  -23.9038  -10.4312   21.0422 C   0  0  0  0  0  0
  -24.3599   -9.4215   21.9192 C   0  0  0  0  0  0
  -23.6276   -8.2252   22.0763 C   0  0  0  0  0  0
  -22.4255   -8.0283   21.3561 C   0  0  0  0  0  0
  -21.9884   -9.0252   20.4655 C   0  0  0  0  0  0
  -22.7209  -10.2143   20.3060 C   0  0  0  0  0  0
  -21.6866   -6.0713   22.5262 C   0  0  0  0  0  0
  -21.4018   -6.5629   23.8197 C   0  0  0  0  0  0
  -21.3649   -5.6780   24.9163 C   0  0  0  0  0  0
  -21.6058   -4.3053   24.7222 C   0  0  0  0  0  0
  -21.8802   -3.8139   23.4358 C   0  0  0  0  0  0
  -21.9191   -4.6940   22.3404 C   0  0  0  0  0  0
  -22.7838  -13.5259   21.1815 C   0  0  0  0  0  0
  -22.1662   -4.2144   21.0981 F   0  0  0  0  0  0
  -21.5627   -3.4525   25.7736 F   0  0  0  0  0  0
  -30.0228  -13.3771   20.4338 N   0  0  0  0  0  0
  -26.3000  -12.9322   20.3330 N   0  0  0  0  0  0
  -25.9306  -11.6520   20.5771 N   0  0  0  0  0  0
  -22.0449  -12.8311   22.0395 N   0  0  0  0  0  0
  -25.4319  -15.1848   20.4022 N   0  0  0  0  0  0
  -31.7780  -14.7823   20.0746 O   0  0  0  0  0  0
  -21.6634   -6.8864   21.4248 O   0  0  0  0  0  0
  -22.3580  -14.5574   20.6651 O   0  0  0  0  0  0
  -24.6273  -31.8586   23.2000 C   0  0  0  0  0  0
  -25.9123  -32.4772   23.8335 C   0  0  1  0  0  0
  -27.2330  -27.3107   20.1192 C   0  0  0  0  0  0
  -25.5939  -33.8574   24.2269 N   0  0  0  0  0  0
  -23.4194  -30.4795   21.5427 C   0  0  2  0  0  0
  -24.8670  -28.9258   20.1098 C   0  0  0  0  0  0
  -22.7470  -29.4600   22.4910 C   0  0  0  0  0  0
  -18.0283  -28.1397   22.8503 C   0  0  0  0  0  0
  -24.1478  -36.7284   23.2633 C   0  0  0  0  0  0
  -25.9587  -30.7897   21.3643 C   0  0  0  0  0  0
  -26.0338  -29.4116   20.7132 C   0  0  0  0  0  0
  -27.2140  -28.6152   20.7060 C   0  0  0  0  0  0
  -26.0400  -26.8663   19.5081 C   0  0  0  0  0  0
  -24.8710  -27.6593   19.4999 C   0  0  0  0  0  0
  -23.6340  -29.8089   20.1588 C   0  0  0  0  0  0
  -25.4109  -36.3082   24.0331 C   0  0  1  0  0  0
  -20.5893  -28.3698   23.1282 C   0  0  2  0  0  0
  -20.6772  -26.9412   22.5407 C   0  0  0  0  0  0
  -19.5736  -26.6399   21.5215 C   0  0  0  0  0  0
  -18.1922  -26.7943   22.1634 C   0  0  0  0  0  0
  -19.1546  -28.8861   23.2894 C   0  0  0  0  0  0
  -18.9459  -30.1471   23.8910 C   0  0  0  0  0  0
  -17.6454  -30.6598   24.0569 C   0  0  0  0  0  0
  -25.9065  -34.9455   23.5098 C   0  0  0  0  0  0
  -16.5350  -29.9096   23.6323 C   0  0  0  0  0  0
  -16.7278  -28.6519   23.0349 C   0  0  0  0  0  0
  -26.4497  -31.6594   25.0709 C   0  0  0  0  0  0
  -25.3733  -31.3724   26.1429 C   0  0  0  0  0  0
  -27.0317  -30.3023   24.6140 C   0  0  0  0  0  0
  -27.6069  -32.4301   25.7487 C   0  0  0  0  0  0
  -27.5575  -37.1795   24.8468 C   0  0  0  0  0  0
  -21.4179  -29.3063   22.3689 N   0  0  0  0  0  0
  -26.4291  -37.3780   23.9413 N   0  0  0  0  0  0
  -24.6882  -31.0598   22.0940 N   0  0  0  0  0  0
  -23.4174  -28.8171   23.3018 O   0  0  0  0  0  0
  -28.3895  -26.5202   20.1737 O   0  0  0  0  0  0
  -26.5619  -34.8927   22.4651 O   0  0  0  0  0  0
  -23.5442  -32.1386   23.7334 O   0  0  0  0  0  0
  -28.5310  -20.0796   19.9552 C   0  0  0  0  0  0
  -30.3319  -20.8329   21.3086 C   0  0  0  0  0  0
  -29.6669  -19.7305   20.7229 C   0  0  0  0  0  0
  -28.0667  -21.4326   19.9017 C   0  0  0  0  0  0
  -28.7857  -22.4699   20.5674 C   0  0  0  0  0  0
  -25.5635  -21.0968   19.9775 C   0  0  0  0  0  0
  -30.1234  -18.2616   21.0693 C   0  0  0  0  0  0
  -26.7425  -21.6910   19.1968 C   0  0  0  0  0  0
  -28.2510  -23.9422   20.8103 C   0  0  0  0  0  0
  -29.7405  -17.0244   20.1641 C   0  0  0  0  0  0
  -28.4670  -25.0994   19.7399 C   0  0  0  0  0  0
  -29.9292  -22.1345   21.2208 N   0  0  0  0  0  0
  -29.8070  -15.6518   20.7790 N   0  0  0  0  0  0
  -31.4703  -12.4767   19.1343 H   0  0  0  0  0  0
  -30.3543  -11.3582   19.8674 H   0  0  0  0  0  0
  -29.7490  -11.7323   17.4742 H   0  0  0  0  0  0
  -29.6560  -13.4581   17.7273 H   0  0  0  0  0  0
  -27.8385  -11.2934   18.8435 H   0  0  0  0  0  0
  -27.3678  -12.6024   17.7916 H   0  0  0  0  0  0
  -27.6822  -14.2484   19.5364 H   0  0  0  0  0  0
  -28.6997  -12.0201   21.3647 H   0  0  0  0  0  0
  -28.4587  -13.6731   21.8492 H   0  0  0  0  0  0
  -25.2735   -9.5707   22.4781 H   0  0  0  0  0  0
  -23.9970   -7.4654   22.7495 H   0  0  0  0  0  0
  -21.0797   -8.8786   19.8987 H   0  0  0  0  0  0
  -22.3643  -10.9698   19.6185 H   0  0  0  0  0  0
  -21.2014   -7.6142   23.9711 H   0  0  0  0  0  0
  -21.1490   -6.0511   25.9069 H   0  0  0  0  0  0
  -22.0596   -2.7607   23.2849 H   0  0  0  0  0  0
  -22.4003  -11.9955   22.4819 H   0  0  0  0  0  0
  -21.1085  -13.1425   22.2563 H   0  0  0  0  0  0
  -24.6659  -15.8415   20.4948 H   0  0  0  0  0  0
  -26.2655  -15.6157   20.0287 H   0  0  0  0  0  0
  -26.7192  -32.5434   23.1083 H   0  0  0  0  0  0
  -25.0107  -33.9721   25.0433 H   0  0  0  0  0  0
  -22.7162  -31.3012   21.3971 H   0  0  0  0  0  0
  -23.3748  -35.9606   23.3305 H   0  0  0  0  0  0
  -24.3564  -36.8899   22.2046 H   0  0  0  0  0  0
  -23.7239  -37.6492   23.6650 H   0  0  0  0  0  0
  -26.0790  -31.5477   20.5894 H   0  0  0  0  0  0
  -26.8440  -30.8471   21.9884 H   0  0  0  0  0  0
  -28.1120  -28.9918   21.1736 H   0  0  0  0  0  0
  -25.9803  -25.8938   19.0464 H   0  0  0  0  0  0
  -23.9747  -27.2768   19.0303 H   0  0  0  0  0  0
  -23.7560  -30.5829   19.4009 H   0  0  0  0  0  0
  -22.7534  -29.2392   19.8542 H   0  0  0  0  0  0
  -25.1283  -36.1923   25.0830 H   0  0  0  0  0  0
  -20.9991  -28.3278   24.1401 H   0  0  0  0  0  0
  -20.5679  -26.2309   23.3607 H   0  0  0  0  0  0
  -21.6640  -26.7457   22.1201 H   0  0  0  0  0  0
  -19.6911  -25.6319   21.1238 H   0  0  0  0  0  0
  -19.6682  -27.3210   20.6744 H   0  0  0  0  0  0
  -17.4195  -26.6703   21.4032 H   0  0  0  0  0  0
  -18.0334  -26.0072   22.9025 H   0  0  0  0  0  0
  -19.7928  -30.7291   24.2278 H   0  0  0  0  0  0
  -17.5006  -31.6274   24.5166 H   0  0  0  0  0  0
  -15.5349  -30.3001   23.7641 H   0  0  0  0  0  0
  -15.8676  -28.0839   22.7043 H   0  0  0  0  0  0
  -24.5940  -30.7029   25.7764 H   0  0  0  0  0  0
  -24.8878  -32.2884   26.4816 H   0  0  0  0  0  0
  -25.8072  -30.8947   27.0229 H   0  0  0  0  0  0
  -26.2879  -29.6802   24.1140 H   0  0  0  0  0  0
  -27.4002  -29.7242   25.4631 H   0  0  0  0  0  0
  -27.8760  -30.4308   23.9354 H   0  0  0  0  0  0
  -27.2705  -33.3613   26.2050 H   0  0  0  0  0  0
  -28.3902  -32.6831   25.0330 H   0  0  0  0  0  0
  -28.0702  -31.8420   26.5419 H   0  0  0  0  0  0
  -28.2589  -38.0092   24.7502 H   0  0  0  0  0  0
  -28.1067  -36.2621   24.6298 H   0  0  0  0  0  0
  -27.2285  -37.1456   25.8870 H   0  0  0  0  0  0
  -20.9367  -29.8766   21.6884 H   0  0  0  0  0  0
  -26.0159  -38.2849   24.1432 H   0  0  0  0  0  0
  -27.9570  -19.3057   19.4667 H   0  0  0  0  0  0
  -31.1988  -20.6611   21.9279 H   0  0  0  0  0  0
  -24.6408  -21.1506   19.3996 H   0  0  0  0  0  0
  -25.4064  -21.6367   20.9102 H   0  0  0  0  0  0
  -25.7269  -20.0477   20.2281 H   0  0  0  0  0  0
  -29.7490  -18.0667   22.0757 H   0  0  0  0  0  0
  -31.2092  -18.2707   21.1589 H   0  0  0  0  0  0
  -26.7834  -21.2532   18.1979 H   0  0  0  0  0  0
  -26.5733  -22.7578   19.0442 H   0  0  0  0  0  0
  -28.7272  -24.2830   21.7303 H   0  0  0  0  0  0
  -27.1913  -23.8752   21.0593 H   0  0  0  0  0  0
  -28.6992  -17.1237   19.8687 H   0  0  0  0  0  0
  -30.3065  -17.0478   19.2326 H   0  0  0  0  0  0
  -27.8663  -24.9123   18.8493 H   0  0  0  0  0  0
  -29.4951  -24.9875   19.3930 H   0  0  0  0  0  0
  -28.9421  -15.3535   21.2011 H   0  0  0  0  0  0
  1 25  1  0  0  0
  1 30  2  0  0  0
  1 83  1  0  0  0
  2  3  1  0  0  0
  2 25  1  0  0  0
  2 84  1  0  0  0
  2 85  1  0  0  0
  3  4  1  0  0  0
  3 86  1  0  0  0
  3 87  1  0  0  0
  4  5  1  0  0  0
  4 88  1  0  0  0
  4 89  1  0  0  0
  5  6  1  0  0  0
  5 26  1  0  0  0
  5 90  1  0  0  0
  6 25  1  0  0  0
  6 91  1  0  0  0
  6 92  1  0  0  0
  7  8  2  0  0  0
  7 26  1  0  0  0
  7 29  1  0  0  0
  8  9  1  0  0  0
  8 22  1  0  0  0
  9 10  1  0  0  0
  9 27  2  0  0  0
 10 11  2  0  0  0
 10 15  1  0  0  0
 11 12  1  0  0  0
 11 93  1  0  0  0
 12 13  2  0  0  0
 12 94  1  0  0  0
 13 14  1  0  0  0
 13 31  1  0  0  0
 14 15  2  0  0  0
 14 95  1  0  0  0
 15 96  1  0  0  0
 16 17  2  0  0  0
 16 21  1  0  0  0
 16 31  1  0  0  0
 17 18  1  0  0  0
 17 97  1  0  0  0
 18 19  2  0  0  0
 18 98  1  0  0  0
 19 20  1  0  0  0
 19 24  1  0  0  0
 20 21  2  0  0  0
 20 99  1  0  0  0
 21 23  1  0  0  0
 22 28  1  0  0  0
 22 32  2  0  0  0
 26 27  1  0  0  0
 28100  1  0  0  0
 28101  1  0  0  0
 29102  1  0  0  0
 29103  1  0  0  0
 33 34  1  0  0  0
 33 66  1  0  0  0
 33 70  2  0  0  0
 34 36  1  0  0  0
 34 59  1  0  0  0
 34104  1  0  0  0
 35 44  2  0  0  0
 35 45  1  0  0  0
 35 68  1  0  0  0
 36 56  1  0  0  0
 36105  1  0  0  0
 37 39  1  0  0  0
 37 47  1  0  0  0
 37 66  1  0  0  0
 37106  1  0  0  0
 38 43  2  0  0  0
 38 46  1  0  0  0
 38 47  1  0  0  0
 39 64  1  0  0  0
 39 67  2  0  0  0
 40 52  1  0  0  0
 40 53  2  0  0  0
 40 58  1  0  0  0
 41107  1  0  0  0
 41108  1  0  0  0
 41109  1  0  0  0
 41 48  1  0  0  0
 42 43  1  0  0  0
 42 66  1  0  0  0
 42110  1  0  0  0
 42111  1  0  0  0
 43 44  1  0  0  0
 44112  1  0  0  0
 45 46  2  0  0  0
 45113  1  0  0  0
 46114  1  0  0  0
 47115  1  0  0  0
 47116  1  0  0  0
 48 56  1  0  0  0
 48 65  1  0  0  0
 48117  1  0  0  0
 49 50  1  0  0  0
 49 53  1  0  0  0
 49 64  1  0  0  0
 49118  1  0  0  0
 50 51  1  0  0  0
 50119  1  0  0  0
 50120  1  0  0  0
 51 52  1  0  0  0
 51121  1  0  0  0
 51122  1  0  0  0
 52123  1  0  0  0
 52124  1  0  0  0
 53 54  1  0  0  0
 54 55  2  0  0  0
 54125  1  0  0  0
 55 57  1  0  0  0
 55126  1  0  0  0
 56 69  2  0  0  0
 57 58  2  0  0  0
 57127  1  0  0  0
 58128  1  0  0  0
 59 60  1  0  0  0
 59 61  1  0  0  0
 59 62  1  0  0  0
 60129  1  0  0  0
 60130  1  0  0  0
 60131  1  0  0  0
 61132  1  0  0  0
 61133  1  0  0  0
 61134  1  0  0  0
 62135  1  0  0  0
 62136  1  0  0  0
 62137  1  0  0  0
 63 65  1  0  0  0
 63138  1  0  0  0
 63139  1  0  0  0
 63140  1  0  0  0
 64141  1  0  0  0
 65142  1  0  0  0
 68 81  1  0  0  0
 71 73  2  0  0  0
 71 74  1  0  0  0
 71143  1  0  0  0
 72 73  1  0  0  0
 72 82  2  0  0  0
 72144  1  0  0  0
 73 77  1  0  0  0
 74 75  2  0  0  0
 74 78  1  0  0  0
 75 79  1  0  0  0
 75 82  1  0  0  0
 76 78  1  0  0  0
 76145  1  0  0  0
 76146  1  0  0  0
 76147  1  0  0  0
 77 80  1  0  0  0
 77148  1  0  0  0
 77149  1  0  0  0
 78150  1  0  0  0
 78151  1  0  0  0
 79 81  1  0  0  0
 79152  1  0  0  0
 79153  1  0  0  0
 80 83  1  0  0  0
 80154  1  0  0  0
 80155  1  0  0  0
 81156  1  0  0  0
 81157  1  0  0  0
 83158  1  0  0  0
M  ISO  4   1 100  68 101  81 101  83 100
M  END
> <chiral flag>
0

> <version>
0

> <s_m_source_file>
/data/baiqing/PycharmProjects/Reinvent-master-3.2/result/LINK_invent/BTK/process_docking_weight1_custom_sum_contain_oxygen_bond_distance_aromatic_linkinvent_7_9_3/rearranged_h_0036.sdf

> <i_m_source_file_index>
77

> <r_mmod_Potential_Energy-OPLS-2005>
-117.65258026123

> <r_mmod_Stretch_Energy-OPLS-2005>
79.1845092773438

> <r_mmod_Bend_Energy-OPLS-2005>
156.749725341797

> <r_mmod_Torsional_Energy-OPLS-2005>
211.991149902344

> <r_mmod_Improper_Torsional_Energy-OPLS-2005>
9.50694370269775

> <r_mmod_Van_der_Waal_Energy-OPLS-2005>
136.432891845703

> <r_mmod_Electrostatic_Energy-OPLS-2005>
-522.968994140625

> <r_mmod_Solvation_Energy-OPLS-2005>
-230.161529541016

> <b_mmod_Minimization_Converged-OPLS-2005>
0

> <r_mmod_RMS_Derivative-OPLS-2005>
5.30937385559082

$$$$
78
                    3D
 Structure written by MMmdl.
168176  0  0  1  0            999 V2000
  -30.7527  -14.3651   20.6256 C   0  0  0  0  0  0
  -30.4223  -12.2701   19.3936 C   0  0  0  0  0  0
  -29.4873  -12.5324   18.1961 C   0  0  0  0  0  0
  -28.0083  -12.3966   18.6110 C   0  0  0  0  0  0
  -27.6716  -13.2073   19.8886 C   0  0  2  0  0  0
  -28.7133  -12.9360   21.0027 C   0  0  0  0  0  0
  -25.2624  -13.8222   20.5771 C   0  0  0  0  0  0
  -24.1841  -13.0441   20.9182 C   0  0  0  0  0  0
  -24.6401  -11.6928   20.8698 C   0  0  0  0  0  0
  -23.9068  -10.4309   21.0402 C   0  0  0  0  0  0
  -24.3620   -9.4255   21.9185 C   0  0  0  0  0  0
  -23.6352   -8.2246   22.0753 C   0  0  0  0  0  0
  -22.4342   -8.0260   21.3535 C   0  0  0  0  0  0
  -21.9986   -9.0264   20.4662 C   0  0  0  0  0  0
  -22.7248  -10.2171   20.3099 C   0  0  0  0  0  0
  -21.6843   -6.0753   22.5299 C   0  0  0  0  0  0
  -21.3989   -6.5657   23.8232 C   0  0  0  0  0  0
  -21.3703   -5.6794   24.9192 C   0  0  0  0  0  0
  -21.6105   -4.3070   24.7219 C   0  0  0  0  0  0
  -21.8839   -3.8179   23.4333 C   0  0  0  0  0  0
  -21.9179   -4.6993   22.3402 C   0  0  0  0  0  0
  -22.7863  -13.5251   21.1836 C   0  0  0  0  0  0
  -22.1630   -4.2213   21.0971 F   0  0  0  0  0  0
  -21.5673   -3.4540   25.7710 F   0  0  0  0  0  0
  -30.0619  -13.2113   20.4662 N   0  0  0  0  0  0
  -26.3082  -12.9369   20.3474 N   0  0  0  0  0  0
  -25.9329  -11.6514   20.5721 N   0  0  0  0  0  0
  -22.0476  -12.8270   22.0436 N   0  0  0  0  0  0
  -25.4359  -15.1925   20.4305 N   0  0  0  0  0  0
  -31.8310  -14.6034   20.0670 O   0  0  0  0  0  0
  -21.6663   -6.8886   21.4242 O   0  0  0  0  0  0
  -22.3514  -14.5497   20.6660 O   0  0  0  0  0  0
  -24.6144  -31.8715   23.2188 C   0  0  0  0  0  0
  -25.9047  -32.4858   23.8449 C   0  0  1  0  0  0
  -27.2388  -27.4739   20.0620 C   0  0  0  0  0  0
  -25.5932  -33.8664   24.2352 N   0  0  0  0  0  0
  -23.3977  -30.4997   21.5614 C   0  0  2  0  0  0
  -24.8410  -28.9716   20.1283 C   0  0  0  0  0  0
  -22.7370  -29.4638   22.5023 C   0  0  0  0  0  0
  -18.0236  -28.1392   22.8498 C   0  0  0  0  0  0
  -24.1478  -36.7332   23.2641 C   0  0  0  0  0  0
  -25.9296  -30.8394   21.3719 C   0  0  0  0  0  0
  -26.0042  -29.4764   20.7209 C   0  0  0  0  0  0
  -27.2029  -28.7308   20.7007 C   0  0  0  0  0  0
  -26.0420  -26.9602   19.5113 C   0  0  0  0  0  0
  -24.8498  -27.6996   19.5362 C   0  0  0  0  0  0
  -23.6097  -29.8443   20.1739 C   0  0  0  0  0  0
  -25.4094  -36.3133   24.0323 C   0  0  1  0  0  0
  -20.5824  -28.3614   23.1337 C   0  0  2  0  0  0
  -20.6704  -26.9296   22.5556 C   0  0  0  0  0  0
  -19.5700  -26.6245   21.5339 C   0  0  0  0  0  0
  -18.1891  -26.7887   22.1736 C   0  0  0  0  0  0
  -19.1484  -28.8823   23.2920 C   0  0  0  0  0  0
  -18.9465  -30.1460   23.8862 C   0  0  0  0  0  0
  -17.6449  -30.6610   24.0534 C   0  0  0  0  0  0
  -25.9023  -34.9484   23.5106 C   0  0  0  0  0  0
  -16.5324  -29.9091   23.6342 C   0  0  0  0  0  0
  -16.7230  -28.6530   23.0327 C   0  0  0  0  0  0
  -26.4443  -31.6678   25.0788 C   0  0  0  0  0  0
  -25.3700  -31.3806   26.1537 C   0  0  0  0  0  0
  -27.0302  -30.3117   24.6209 C   0  0  0  0  0  0
  -27.6018  -32.4417   25.7522 C   0  0  0  0  0  0
  -27.5574  -37.1813   24.8458 C   0  0  0  0  0  0
  -21.4124  -29.2949   22.3704 N   0  0  0  0  0  0
  -26.4291  -37.3803   23.9393 N   0  0  0  0  0  0
  -24.6659  -31.0857   22.1082 N   0  0  0  0  0  0
  -23.4152  -28.8164   23.3043 O   0  0  0  0  0  0
  -28.4309  -26.7846   20.0065 O   0  0  0  0  0  0
  -26.5528  -34.8924   22.4642 O   0  0  0  0  0  0
  -23.5341  -32.1419   23.7609 O   0  0  0  0  0  0
  -27.6087  -25.0590   16.8961 C   0  0  0  0  0  0
  -27.8391  -24.0734   19.1033 C   0  0  0  0  0  0
  -28.1152  -25.1170   18.2083 C   0  0  0  0  0  0
  -26.7804  -23.9894   16.4938 C   0  0  0  0  0  0
  -26.9688  -23.0251   18.7435 C   0  0  0  0  0  0
  -26.4144  -22.9854   17.4336 C   0  0  0  0  0  0
  -26.3108  -23.9511   15.0488 C   0  0  0  0  0  0
  -25.4297  -21.8809   17.0524 C   0  0  0  0  0  0
  -26.6827  -21.9659   19.7998 C   0  0  0  0  0  0
  -28.8650  -26.3413   18.7128 C   0  0  0  0  0  0
  -28.9018  -17.5722   21.1906 C   0  0  0  0  0  0
  -28.4492  -18.6063   20.1502 C   0  0  0  0  0  0
  -29.8181  -16.5706   20.4720 C   0  0  0  0  0  0
  -27.6018  -19.7911   20.6446 C   0  0  0  0  0  0
  -30.0768  -15.3503   21.2221 N   0  0  0  0  0  0
  -27.5628  -20.8108   19.5680 N   0  3  0  0  0  0
  -31.4609  -12.3708   19.0762 H   0  0  0  0  0  0
  -30.3219  -11.2477   19.7573 H   0  0  0  0  0  0
  -29.7099  -11.8448   17.3761 H   0  0  0  0  0  0
  -29.6625  -13.5412   17.8142 H   0  0  0  0  0  0
  -27.7964  -11.3402   18.7657 H   0  0  0  0  0  0
  -27.3694  -12.7206   17.7896 H   0  0  0  0  0  0
  -27.7287  -14.2633   19.6249 H   0  0  0  0  0  0
  -28.6674  -11.8962   21.3273 H   0  0  0  0  0  0
  -28.4843  -13.5197   21.8942 H   0  0  0  0  0  0
  -25.2783   -9.5724   22.4735 H   0  0  0  0  0  0
  -24.0134   -7.4651   22.7449 H   0  0  0  0  0  0
  -21.0979   -8.8817   19.8904 H   0  0  0  0  0  0
  -22.3778  -10.9747   19.6218 H   0  0  0  0  0  0
  -21.1913   -7.6158   23.9771 H   0  0  0  0  0  0
  -21.1489   -6.0480   25.9089 H   0  0  0  0  0  0
  -22.0582   -2.7664   23.2804 H   0  0  0  0  0  0
  -22.4122  -11.9982   22.4865 H   0  0  0  0  0  0
  -21.1047  -13.1196   22.2546 H   0  0  0  0  0  0
  -24.6642  -15.8440   20.5368 H   0  0  0  0  0  0
  -26.2991  -15.6372   20.1430 H   0  0  0  0  0  0
  -26.7123  -32.5545   23.1226 H   0  0  0  0  0  0
  -25.0133  -33.9867   25.0520 H   0  0  0  0  0  0
  -22.6851  -31.3170   21.4294 H   0  0  0  0  0  0
  -23.3762  -35.9676   23.3327 H   0  0  0  0  0  0
  -24.3566  -36.8892   22.2061 H   0  0  0  0  0  0
  -23.7199  -37.6522   23.6621 H   0  0  0  0  0  0
  -26.0525  -31.6028   20.6032 H   0  0  0  0  0  0
  -26.8175  -30.8886   21.9927 H   0  0  0  0  0  0
  -28.1068  -29.1235   21.1457 H   0  0  0  0  0  0
  -25.9919  -25.9890   19.0502 H   0  0  0  0  0  0
  -23.9521  -27.2870   19.0988 H   0  0  0  0  0  0
  -23.7338  -30.6217   19.4188 H   0  0  0  0  0  0
  -22.7314  -29.2704   19.8751 H   0  0  0  0  0  0
  -25.1305  -36.2013   25.0816 H   0  0  0  0  0  0
  -20.9924  -28.3212   24.1482 H   0  0  0  0  0  0
  -20.5555  -26.2204   23.3776 H   0  0  0  0  0  0
  -21.6555  -26.7295   22.1395 H   0  0  0  0  0  0
  -19.6704  -27.2977   20.6826 H   0  0  0  0  0  0
  -19.6794  -25.6138   21.1441 H   0  0  0  0  0  0
  -17.4120  -26.6528   21.4198 H   0  0  0  0  0  0
  -18.0261  -26.0164   22.9317 H   0  0  0  0  0  0
  -19.7962  -30.7282   24.2223 H   0  0  0  0  0  0
  -17.4957  -31.6292   24.5117 H   0  0  0  0  0  0
  -15.5315  -30.2917   23.7754 H   0  0  0  0  0  0
  -15.8618  -28.0893   22.7008 H   0  0  0  0  0  0
  -24.5829  -30.7220   25.7842 H   0  0  0  0  0  0
  -24.8997  -32.3013   26.5038 H   0  0  0  0  0  0
  -25.8037  -30.8893   27.0270 H   0  0  0  0  0  0
  -26.2901  -29.6876   24.1179 H   0  0  0  0  0  0
  -27.3952  -29.7348   25.4726 H   0  0  0  0  0  0
  -27.8789  -30.4437   23.9476 H   0  0  0  0  0  0
  -27.2627  -33.3681   26.2178 H   0  0  0  0  0  0
  -28.3769  -32.7023   25.0306 H   0  0  0  0  0  0
  -28.0765  -31.8500   26.5357 H   0  0  0  0  0  0
  -28.2589  -38.0105   24.7516 H   0  0  0  0  0  0
  -28.1023  -36.2621   24.6282 H   0  0  0  0  0  0
  -27.2283  -37.1502   25.8853 H   0  0  0  0  0  0
  -20.9237  -29.8754   21.6980 H   0  0  0  0  0  0
  -26.0178  -38.2872   24.1450 H   0  0  0  0  0  0
  -27.8471  -25.8613   16.2111 H   0  0  0  0  0  0
  -28.2438  -24.1377   20.1060 H   0  0  0  0  0  0
  -26.8321  -24.6974   14.4474 H   0  0  0  0  0  0
  -25.2386  -24.1477   14.9733 H   0  0  0  0  0  0
  -26.5272  -22.9823   14.5953 H   0  0  0  0  0  0
  -24.9531  -22.0294   16.0837 H   0  0  0  0  0  0
  -24.6172  -21.8346   17.7774 H   0  0  0  0  0  0
  -25.9185  -20.9072   17.0292 H   0  0  0  0  0  0
  -25.6291  -21.6786   19.8011 H   0  0  0  0  0  0
  -26.8893  -22.3877   20.7848 H   0  0  0  0  0  0
  -28.7851  -27.1615   17.9986 H   0  0  0  0  0  0
  -29.9244  -26.0929   18.7649 H   0  0  0  0  0  0
  -28.0454  -17.0740   21.6475 H   0  0  0  0  0  0
  -29.4649  -18.0603   21.9909 H   0  0  0  0  0  0
  -27.8927  -18.0881   19.3630 H   0  0  0  0  0  0
  -29.3476  -18.9977   19.6669 H   0  0  0  0  0  0
  -30.7649  -17.0508   20.2041 H   0  0  0  0  0  0
  -29.3431  -16.2678   19.5332 H   0  0  0  0  0  0
  -28.0375  -20.2112   21.5572 H   0  0  0  0  0  0
  -26.5912  -19.4608   20.9088 H   0  0  0  0  0  0
  -30.0912  -15.3723   22.2336 H   0  0  0  0  0  0
  -28.4989  -21.1683   19.4319 H   0  0  0  0  0  0
  -27.2819  -20.3885   18.6984 H   0  0  0  0  0  0
  1 25  1  0  0  0
  1 30  2  0  0  0
  1 85  1  0  0  0
  2  3  1  0  0  0
  2 25  1  0  0  0
  2 87  1  0  0  0
  2 88  1  0  0  0
  3  4  1  0  0  0
  3 89  1  0  0  0
  3 90  1  0  0  0
  4  5  1  0  0  0
  4 91  1  0  0  0
  4 92  1  0  0  0
  5  6  1  0  0  0
  5 26  1  0  0  0
  5 93  1  0  0  0
  6 25  1  0  0  0
  6 94  1  0  0  0
  6 95  1  0  0  0
  7  8  2  0  0  0
  7 26  1  0  0  0
  7 29  1  0  0  0
  8  9  1  0  0  0
  8 22  1  0  0  0
  9 10  1  0  0  0
  9 27  2  0  0  0
 10 11  2  0  0  0
 10 15  1  0  0  0
 11 12  1  0  0  0
 11 96  1  0  0  0
 12 13  2  0  0  0
 12 97  1  0  0  0
 13 14  1  0  0  0
 13 31  1  0  0  0
 14 15  2  0  0  0
 14 98  1  0  0  0
 15 99  1  0  0  0
 16 17  2  0  0  0
 16 21  1  0  0  0
 16 31  1  0  0  0
 17 18  1  0  0  0
 17100  1  0  0  0
 18 19  2  0  0  0
 18101  1  0  0  0
 19 20  1  0  0  0
 19 24  1  0  0  0
 20 21  2  0  0  0
 20102  1  0  0  0
 21 23  1  0  0  0
 22 28  1  0  0  0
 22 32  2  0  0  0
 26 27  1  0  0  0
 28103  1  0  0  0
 28104  1  0  0  0
 29105  1  0  0  0
 29106  1  0  0  0
 33 34  1  0  0  0
 33 66  1  0  0  0
 33 70  2  0  0  0
 34 36  1  0  0  0
 34 59  1  0  0  0
 34107  1  0  0  0
 35 44  2  0  0  0
 35 45  1  0  0  0
 35 68  1  0  0  0
 36 56  1  0  0  0
 36108  1  0  0  0
 37 39  1  0  0  0
 37 47  1  0  0  0
 37 66  1  0  0  0
 37109  1  0  0  0
 38 43  2  0  0  0
 38 46  1  0  0  0
 38 47  1  0  0  0
 39 64  1  0  0  0
 39 67  2  0  0  0
 40 52  1  0  0  0
 40 53  2  0  0  0
 40 58  1  0  0  0
 41110  1  0  0  0
 41111  1  0  0  0
 41112  1  0  0  0
 41 48  1  0  0  0
 42 43  1  0  0  0
 42 66  1  0  0  0
 42113  1  0  0  0
 42114  1  0  0  0
 43 44  1  0  0  0
 44115  1  0  0  0
 45 46  2  0  0  0
 45116  1  0  0  0
 46117  1  0  0  0
 47118  1  0  0  0
 47119  1  0  0  0
 48 56  1  0  0  0
 48 65  1  0  0  0
 48120  1  0  0  0
 49 50  1  0  0  0
 49 53  1  0  0  0
 49 64  1  0  0  0
 49121  1  0  0  0
 50 51  1  0  0  0
 50122  1  0  0  0
 50123  1  0  0  0
 51 52  1  0  0  0
 51124  1  0  0  0
 51125  1  0  0  0
 52126  1  0  0  0
 52127  1  0  0  0
 53 54  1  0  0  0
 54 55  2  0  0  0
 54128  1  0  0  0
 55 57  1  0  0  0
 55129  1  0  0  0
 56 69  2  0  0  0
 57 58  2  0  0  0
 57130  1  0  0  0
 58131  1  0  0  0
 59 60  1  0  0  0
 59 61  1  0  0  0
 59 62  1  0  0  0
 60132  1  0  0  0
 60133  1  0  0  0
 60134  1  0  0  0
 61135  1  0  0  0
 61136  1  0  0  0
 61137  1  0  0  0
 62138  1  0  0  0
 62139  1  0  0  0
 62140  1  0  0  0
 63 65  1  0  0  0
 63141  1  0  0  0
 63142  1  0  0  0
 63143  1  0  0  0
 64144  1  0  0  0
 65145  1  0  0  0
 68 80  1  0  0  0
 71 73  2  0  0  0
 71 74  1  0  0  0
 71146  1  0  0  0
 72 73  1  0  0  0
 72 75  2  0  0  0
 72147  1  0  0  0
 73 80  1  0  0  0
 74 76  2  0  0  0
 74 77  1  0  0  0
 75 76  1  0  0  0
 75 79  1  0  0  0
 76 78  1  0  0  0
 77148  1  0  0  0
 77149  1  0  0  0
 77150  1  0  0  0
 78151  1  0  0  0
 78152  1  0  0  0
 78153  1  0  0  0
 79 86  1  0  0  0
 79154  1  0  0  0
 79155  1  0  0  0
 80156  1  0  0  0
 80157  1  0  0  0
 81 82  1  0  0  0
 81 83  1  0  0  0
 81158  1  0  0  0
 81159  1  0  0  0
 82 84  1  0  0  0
 82160  1  0  0  0
 82161  1  0  0  0
 83 85  1  0  0  0
 83162  1  0  0  0
 83163  1  0  0  0
 84 86  1  0  0  0
 84164  1  0  0  0
 84165  1  0  0  0
 85166  1  0  0  0
 86167  1  0  0  0
 86168  1  0  0  0
M  CHG  1  86   1
M  ISO  4   1 100  68 101  80 101  85 100
M  END
> <chiral flag>
0

> <version>
0

> <s_m_source_file>
/data/baiqing/PycharmProjects/Reinvent-master-3.2/result/LINK_invent/BTK/process_docking_weight1_custom_sum_contain_oxygen_bond_distance_aromatic_linkinvent_7_9_3/rearranged_h_0036.sdf

> <i_m_source_file_index>
78

> <r_mmod_Potential_Energy-OPLS-2005>
-196.293197631836

> <r_mmod_Stretch_Energy-OPLS-2005>
34.0307922363281

> <r_mmod_Bend_Energy-OPLS-2005>
98.3003997802734

> <r_mmod_Torsional_Energy-OPLS-2005>
279.441009521484

> <r_mmod_Improper_Torsional_Energy-OPLS-2005>
7.46189832687378

> <r_mmod_Van_der_Waal_Energy-OPLS-2005>
158.62712097168

> <r_mmod_Electrostatic_Energy-OPLS-2005>
-320.72216796875

> <r_mmod_Solvation_Energy-OPLS-2005>
-462.011779785156

> <b_mmod_Minimization_Converged-OPLS-2005>
0

> <r_mmod_RMS_Derivative-OPLS-2005>
7.42898511886597

$$$$
79
                    3D
 Structure written by MMmdl.
168176  0  0  1  0            999 V2000
  -30.5251  -14.9699   20.4083 C   0  0  0  0  0  0
  -30.4432  -12.5945   19.5165 C   0  0  0  0  0  0
  -29.5355  -12.5396   18.2638 C   0  0  0  0  0  0
  -28.0586  -12.3478   18.6604 C   0  0  0  0  0  0
  -27.6354  -13.2607   19.8422 C   0  0  2  0  0  0
  -28.6735  -13.2746   20.9860 C   0  0  0  0  0  0
  -25.2475  -13.8245   20.5696 C   0  0  0  0  0  0
  -24.1802  -13.0448   20.9195 C   0  0  0  0  0  0
  -24.6431  -11.6946   20.8714 C   0  0  0  0  0  0
  -23.9112  -10.4293   21.0371 C   0  0  0  0  0  0
  -24.3647   -9.4211   21.9159 C   0  0  0  0  0  0
  -23.6322   -8.2250   22.0737 C   0  0  0  0  0  0
  -22.4301   -8.0280   21.3523 C   0  0  0  0  0  0
  -21.9940   -9.0268   20.4632 C   0  0  0  0  0  0
  -22.7278  -10.2135   20.3035 C   0  0  0  0  0  0
  -21.6877   -6.0734   22.5272 C   0  0  0  0  0  0
  -21.4032   -6.5638   23.8197 C   0  0  0  0  0  0
  -21.3652   -5.6783   24.9153 C   0  0  0  0  0  0
  -21.6052   -4.3054   24.7206 C   0  0  0  0  0  0
  -21.8818   -3.8137   23.4332 C   0  0  0  0  0  0
  -21.9197   -4.6959   22.3385 C   0  0  0  0  0  0
  -22.7797  -13.5206   21.1834 C   0  0  0  0  0  0
  -22.1659   -4.2134   21.0970 F   0  0  0  0  0  0
  -21.5622   -3.4537   25.7719 F   0  0  0  0  0  0
  -29.9540  -13.6934   20.4015 N   0  0  0  0  0  0
  -26.2925  -12.9512   20.3221 N   0  0  0  0  0  0
  -25.9382  -11.6613   20.5706 N   0  0  0  0  0  0
  -22.0453  -12.8192   22.0403 N   0  0  0  0  0  0
  -25.4147  -15.1977   20.4143 N   0  0  0  0  0  0
  -31.7084  -15.0481   20.0624 O   0  0  0  0  0  0
  -21.6668   -6.8888   21.4235 O   0  0  0  0  0  0
  -22.3458  -14.5481   20.6633 O   0  0  0  0  0  0
  -24.6477  -31.8398   23.1862 C   0  0  0  0  0  0
  -25.9232  -32.4657   23.8270 C   0  0  1  0  0  0
  -27.2180  -27.1046   20.1610 C   0  0  0  0  0  0
  -25.5980  -33.8471   24.2187 N   0  0  0  0  0  0
  -23.4519  -30.4584   21.5315 C   0  0  2  0  0  0
  -24.9025  -28.8747   20.1124 C   0  0  0  0  0  0
  -22.7603  -29.4515   22.4847 C   0  0  0  0  0  0
  -18.0315  -28.1389   22.8451 C   0  0  0  0  0  0
  -24.1500  -36.7237   23.2644 C   0  0  0  0  0  0
  -26.0097  -30.7042   21.3878 C   0  0  0  0  0  0
  -26.0801  -29.3093   20.7348 C   0  0  0  0  0  0
  -27.2391  -28.4412   20.7390 C   0  0  0  0  0  0
  -26.0161  -26.7782   19.4972 C   0  0  0  0  0  0
  -24.8852  -27.6253   19.4737 C   0  0  0  0  0  0
  -23.6818  -29.7838   20.1515 C   0  0  0  0  0  0
  -25.4124  -36.2998   24.0320 C   0  0  1  0  0  0
  -20.5925  -28.3717   23.1219 C   0  0  2  0  0  0
  -20.6780  -26.9416   22.5390 C   0  0  0  0  0  0
  -19.5766  -26.6364   21.5190 C   0  0  0  0  0  0
  -18.1949  -26.7927   22.1594 C   0  0  0  0  0  0
  -19.1570  -28.8877   23.2815 C   0  0  0  0  0  0
  -18.9480  -30.1470   23.8842 C   0  0  0  0  0  0
  -17.6472  -30.6574   24.0554 C   0  0  0  0  0  0
  -25.9085  -34.9374   23.5054 C   0  0  0  0  0  0
  -16.5363  -29.9065   23.6331 C   0  0  0  0  0  0
  -16.7296  -28.6490   23.0336 C   0  0  0  0  0  0
  -26.4549  -31.6528   25.0716 C   0  0  0  0  0  0
  -25.3745  -31.3709   26.1428 C   0  0  0  0  0  0
  -27.0412  -30.2922   24.6300 C   0  0  0  0  0  0
  -27.6105  -32.4273   25.7503 C   0  0  0  0  0  0
  -27.5573  -37.1776   24.8461 C   0  0  0  0  0  0
  -21.4289  -29.3044   22.3614 N   0  0  0  0  0  0
  -26.4269  -37.3721   23.9421 N   0  0  0  0  0  0
  -24.7237  -31.0233   22.0907 N   0  0  0  0  0  0
  -23.4239  -28.8070   23.3009 O   0  0  0  0  0  0
  -28.2779  -26.1182   20.1836 O   0  0  0  0  0  0
  -26.5654  -34.8883   22.4626 O   0  0  0  0  0  0
  -23.5586  -32.1289   23.7059 O   0  0  0  0  0  0
  -30.2115  -20.5775   22.6240 C   0  0  0  0  0  0
  -29.2063  -20.4038   20.0846 C   0  0  0  0  0  0
  -30.0765  -19.2853   22.0577 C   0  0  0  0  0  0
  -29.9132  -21.7865   21.9431 C   0  0  0  0  0  0
  -29.2770  -21.7825   20.6689 C   0  0  0  0  0  0
  -29.6385  -19.1164   20.7232 C   0  0  0  0  0  0
  -30.5046  -18.0939   22.8972 C   0  0  0  0  0  0
  -32.7641  -23.1326   23.6123 C   0  0  0  0  0  0
  -32.5757  -22.6463   21.1761 C   0  0  0  0  0  0
  -32.0497  -24.9333   22.0368 C   0  0  0  0  0  0
  -28.9633  -23.2489   19.9262 C   0  0  0  0  0  0
  -30.4243  -23.0715   22.6048 C   0  0  0  0  0  0
  -29.7921  -17.6233   19.9987 C   0  0  0  0  0  0
  -28.0412  -24.5858   20.4561 C   0  0  0  0  0  0
  -31.9330  -23.4269   22.3484 C   0  0  0  0  0  0
  -29.7353  -16.1424   20.5924 N   0  0  0  0  0  0
  -31.4810  -12.7444   19.2130 H   0  0  0  0  0  0
  -30.4301  -11.6405   20.0457 H   0  0  0  0  0  0
  -29.8553  -11.7328   17.6027 H   0  0  0  0  0  0
  -29.6450  -13.4642   17.6927 H   0  0  0  0  0  0
  -27.9213  -11.3026   18.9325 H   0  0  0  0  0  0
  -27.4115  -12.5230   17.8005 H   0  0  0  0  0  0
  -27.6047  -14.2706   19.4306 H   0  0  0  0  0  0
  -28.7551  -12.2931   21.4573 H   0  0  0  0  0  0
  -28.3717  -13.9712   21.7686 H   0  0  0  0  0  0
  -25.2791   -9.5701   22.4738 H   0  0  0  0  0  0
  -24.0023   -7.4656   22.7481 H   0  0  0  0  0  0
  -21.0850   -8.8818   19.8980 H   0  0  0  0  0  0
  -22.3747  -10.9668   19.6138 H   0  0  0  0  0  0
  -21.2062   -7.6148   23.9693 H   0  0  0  0  0  0
  -21.1463   -6.0512   25.9048 H   0  0  0  0  0  0
  -22.0613   -2.7605   23.2831 H   0  0  0  0  0  0
  -22.4117  -11.9912   22.4856 H   0  0  0  0  0  0
  -21.1040  -13.1177   22.2558 H   0  0  0  0  0  0
  -24.6567  -15.8551   20.5604 H   0  0  0  0  0  0
  -26.2577  -15.6340   20.0631 H   0  0  0  0  0  0
  -26.7316  -32.5262   23.1017 H   0  0  0  0  0  0
  -25.0157  -33.9587   25.0350 H   0  0  0  0  0  0
  -22.7542  -31.2838   21.3739 H   0  0  0  0  0  0
  -23.3757  -35.9571   23.3266 H   0  0  0  0  0  0
  -24.3603  -36.8913   22.2069 H   0  0  0  0  0  0
  -23.7260  -37.6428   23.6702 H   0  0  0  0  0  0
  -26.1626  -31.4539   20.6107 H   0  0  0  0  0  0
  -26.8802  -30.7620   22.0287 H   0  0  0  0  0  0
  -28.1376  -28.7673   21.2431 H   0  0  0  0  0  0
  -25.9280  -25.8289   18.9916 H   0  0  0  0  0  0
  -23.9929  -27.2950   18.9594 H   0  0  0  0  0  0
  -23.8269  -30.5555   19.3953 H   0  0  0  0  0  0
  -22.7955  -29.2310   19.8357 H   0  0  0  0  0  0
  -25.1308  -36.1812   25.0809 H   0  0  0  0  0  0
  -20.9991  -28.3296   24.1348 H   0  0  0  0  0  0
  -20.5628  -26.2349   23.3614 H   0  0  0  0  0  0
  -21.6658  -26.7402   22.1227 H   0  0  0  0  0  0
  -19.6931  -25.6265   21.1243 H   0  0  0  0  0  0
  -19.6695  -27.3150   20.6700 H   0  0  0  0  0  0
  -17.4217  -26.6662   21.3996 H   0  0  0  0  0  0
  -18.0355  -26.0071   22.8996 H   0  0  0  0  0  0
  -19.7958  -30.7294   24.2179 H   0  0  0  0  0  0
  -17.5027  -31.6243   24.5181 H   0  0  0  0  0  0
  -15.5358  -30.2943   23.7675 H   0  0  0  0  0  0
  -15.8700  -28.0788   22.7061 H   0  0  0  0  0  0
  -24.5967  -30.6994   25.7770 H   0  0  0  0  0  0
  -24.8871  -32.2868   26.4781 H   0  0  0  0  0  0
  -25.8055  -30.8965   27.0251 H   0  0  0  0  0  0
  -26.3020  -29.6644   24.1315 H   0  0  0  0  0  0
  -27.4037  -29.7237   25.4873 H   0  0  0  0  0  0
  -27.8923  -30.4168   23.9606 H   0  0  0  0  0  0
  -27.2739  -33.3599   26.2046 H   0  0  0  0  0  0
  -28.3940  -32.6783   25.0337 H   0  0  0  0  0  0
  -28.0744  -31.8405   26.5450 H   0  0  0  0  0  0
  -28.2560  -38.0099   24.7513 H   0  0  0  0  0  0
  -28.1089  -36.2630   24.6245 H   0  0  0  0  0  0
  -27.2308  -37.1381   25.8867 H   0  0  0  0  0  0
  -20.9523  -29.8790   21.6801 H   0  0  0  0  0  0
  -26.0121  -38.2782   24.1421 H   0  0  0  0  0  0
  -30.6512  -20.6526   23.6090 H   0  0  0  0  0  0
  -28.8560  -20.3353   19.0639 H   0  0  0  0  0  0
  -30.8006  -18.3948   23.9024 H   0  0  0  0  0  0
  -31.3599  -17.5938   22.4427 H   0  0  0  0  0  0
  -29.6884  -17.3773   23.0055 H   0  0  0  0  0  0
  -33.7992  -23.4556   23.4906 H   0  0  0  0  0  0
  -32.7841  -22.0658   23.8360 H   0  0  0  0  0  0
  -32.3683  -23.6465   24.4890 H   0  0  0  0  0  0
  -33.6196  -22.9323   21.0365 H   0  0  0  0  0  0
  -32.0666  -22.8343   20.2311 H   0  0  0  0  0  0
  -32.5671  -21.5684   21.3442 H   0  0  0  0  0  0
  -33.0891  -25.2367   21.9024 H   0  0  0  0  0  0
  -31.6371  -25.5423   22.8432 H   0  0  0  0  0  0
  -31.5173  -25.1969   21.1215 H   0  0  0  0  0  0
  -28.5792  -22.9910   18.9396 H   0  0  0  0  0  0
  -29.9539  -23.6504   19.7154 H   0  0  0  0  0  0
  -30.2180  -23.0191   23.6760 H   0  0  0  0  0  0
  -29.8187  -23.9091   22.2848 H   0  0  0  0  0  0
  -30.7350  -17.6788   19.4542 H   0  0  0  0  0  0
  -29.0303  -17.6248   19.2192 H   0  0  0  0  0  0
  -27.9712  -24.5224   21.5400 H   0  0  0  0  0  0
  -27.0212  -24.3499   20.1587 H   0  0  0  0  0  0
  -28.8286  -15.9219   20.9773 H   0  0  0  0  0  0
  1 25  1  0  0  0
  1 30  2  0  0  0
  1 86  1  0  0  0
  2  3  1  0  0  0
  2 25  1  0  0  0
  2 87  1  0  0  0
  2 88  1  0  0  0
  3  4  1  0  0  0
  3 89  1  0  0  0
  3 90  1  0  0  0
  4  5  1  0  0  0
  4 91  1  0  0  0
  4 92  1  0  0  0
  5  6  1  0  0  0
  5 26  1  0  0  0
  5 93  1  0  0  0
  6 25  1  0  0  0
  6 94  1  0  0  0
  6 95  1  0  0  0
  7  8  2  0  0  0
  7 26  1  0  0  0
  7 29  1  0  0  0
  8  9  1  0  0  0
  8 22  1  0  0  0
  9 10  1  0  0  0
  9 27  2  0  0  0
 10 11  2  0  0  0
 10 15  1  0  0  0
 11 12  1  0  0  0
 11 96  1  0  0  0
 12 13  2  0  0  0
 12 97  1  0  0  0
 13 14  1  0  0  0
 13 31  1  0  0  0
 14 15  2  0  0  0
 14 98  1  0  0  0
 15 99  1  0  0  0
 16 17  2  0  0  0
 16 21  1  0  0  0
 16 31  1  0  0  0
 17 18  1  0  0  0
 17100  1  0  0  0
 18 19  2  0  0  0
 18101  1  0  0  0
 19 20  1  0  0  0
 19 24  1  0  0  0
 20 21  2  0  0  0
 20102  1  0  0  0
 21 23  1  0  0  0
 22 28  1  0  0  0
 22 32  2  0  0  0
 26 27  1  0  0  0
 28103  1  0  0  0
 28104  1  0  0  0
 29105  1  0  0  0
 29106  1  0  0  0
 33 34  1  0  0  0
 33 66  1  0  0  0
 33 70  2  0  0  0
 34 36  1  0  0  0
 34 59  1  0  0  0
 34107  1  0  0  0
 35 44  2  0  0  0
 35 45  1  0  0  0
 35 68  1  0  0  0
 36 56  1  0  0  0
 36108  1  0  0  0
 37 39  1  0  0  0
 37 47  1  0  0  0
 37 66  1  0  0  0
 37109  1  0  0  0
 38 43  2  0  0  0
 38 46  1  0  0  0
 38 47  1  0  0  0
 39 64  1  0  0  0
 39 67  2  0  0  0
 40 52  1  0  0  0
 40 53  2  0  0  0
 40 58  1  0  0  0
 41110  1  0  0  0
 41111  1  0  0  0
 41112  1  0  0  0
 41 48  1  0  0  0
 42 43  1  0  0  0
 42 66  1  0  0  0
 42113  1  0  0  0
 42114  1  0  0  0
 43 44  1  0  0  0
 44115  1  0  0  0
 45 46  2  0  0  0
 45116  1  0  0  0
 46117  1  0  0  0
 47118  1  0  0  0
 47119  1  0  0  0
 48 56  1  0  0  0
 48 65  1  0  0  0
 48120  1  0  0  0
 49 50  1  0  0  0
 49 53  1  0  0  0
 49 64  1  0  0  0
 49121  1  0  0  0
 50 51  1  0  0  0
 50122  1  0  0  0
 50123  1  0  0  0
 51 52  1  0  0  0
 51124  1  0  0  0
 51125  1  0  0  0
 52126  1  0  0  0
 52127  1  0  0  0
 53 54  1  0  0  0
 54 55  2  0  0  0
 54128  1  0  0  0
 55 57  1  0  0  0
 55129  1  0  0  0
 56 69  2  0  0  0
 57 58  2  0  0  0
 57130  1  0  0  0
 58131  1  0  0  0
 59 60  1  0  0  0
 59 61  1  0  0  0
 59 62  1  0  0  0
 60132  1  0  0  0
 60133  1  0  0  0
 60134  1  0  0  0
 61135  1  0  0  0
 61136  1  0  0  0
 61137  1  0  0  0
 62138  1  0  0  0
 62139  1  0  0  0
 62140  1  0  0  0
 63 65  1  0  0  0
 63141  1  0  0  0
 63142  1  0  0  0
 63143  1  0  0  0
 64144  1  0  0  0
 65145  1  0  0  0
 68 84  1  0  0  0
 71 73  2  0  0  0
 71 74  1  0  0  0
 71146  1  0  0  0
 72 75  1  0  0  0
 72 76  2  0  0  0
 72147  1  0  0  0
 73 76  1  0  0  0
 73 77  1  0  0  0
 74 75  2  0  0  0
 74 82  1  0  0  0
 75 81  1  0  0  0
 76 83  1  0  0  0
 77148  1  0  0  0
 77149  1  0  0  0
 77150  1  0  0  0
 78151  1  0  0  0
 78152  1  0  0  0
 78153  1  0  0  0
 78 85  1  0  0  0
 79 85  1  0  0  0
 79154  1  0  0  0
 79155  1  0  0  0
 79156  1  0  0  0
 80 85  1  0  0  0
 80157  1  0  0  0
 80158  1  0  0  0
 80159  1  0  0  0
 81 84  1  0  0  0
 81160  1  0  0  0
 81161  1  0  0  0
 82 85  1  0  0  0
 82162  1  0  0  0
 82163  1  0  0  0
 83 86  1  0  0  0
 83164  1  0  0  0
 83165  1  0  0  0
 84166  1  0  0  0
 84167  1  0  0  0
 86168  1  0  0  0
M  ISO  4   1 100  68 101  84 101  86 100
M  END
> <chiral flag>
0

> <version>
0

> <s_m_source_file>
/data/baiqing/PycharmProjects/Reinvent-master-3.2/result/LINK_invent/BTK/process_docking_weight1_custom_sum_contain_oxygen_bond_distance_aromatic_linkinvent_7_9_3/rearranged_h_0036.sdf

> <i_m_source_file_index>
79

> <r_mmod_Potential_Energy-OPLS-2005>
572.723876953125

> <r_mmod_Stretch_Energy-OPLS-2005>
300.292449951172

> <r_mmod_Bend_Energy-OPLS-2005>
287.487457275391

> <r_mmod_Torsional_Energy-OPLS-2005>
240.365417480469

> <r_mmod_Improper_Torsional_Energy-OPLS-2005>
7.88125658035278

> <r_mmod_Van_der_Waal_Energy-OPLS-2005>
134.598281860352

> <r_mmod_Electrostatic_Energy-OPLS-2005>
-405.319549560547

> <r_mmod_Solvation_Energy-OPLS-2005>
-201.698318481445

> <b_mmod_Minimization_Converged-OPLS-2005>
0

> <r_mmod_RMS_Derivative-OPLS-2005>
3.26701545715332

$$$$
80
                    3D
 Structure written by MMmdl.
165173  0  0  1  0            999 V2000
  -30.7505  -14.3384   20.7545 C   0  0  0  0  0  0
  -30.4238  -12.3070   19.3767 C   0  0  0  0  0  0
  -29.4801  -12.5429   18.1820 C   0  0  0  0  0  0
  -28.0031  -12.3940   18.5936 C   0  0  0  0  0  0
  -27.6642  -13.1983   19.8747 C   0  0  2  0  0  0
  -28.6947  -12.8995   20.9797 C   0  0  0  0  0  0
  -25.2596  -13.8147   20.5659 C   0  0  0  0  0  0
  -24.1842  -13.0424   20.9171 C   0  0  0  0  0  0
  -24.6403  -11.6904   20.8732 C   0  0  0  0  0  0
  -23.9075  -10.4298   21.0406 C   0  0  0  0  0  0
  -24.3631   -9.4208   21.9186 C   0  0  0  0  0  0
  -23.6304   -8.2246   22.0762 C   0  0  0  0  0  0
  -22.4287   -8.0301   21.3547 C   0  0  0  0  0  0
  -21.9932   -9.0261   20.4638 C   0  0  0  0  0  0
  -22.7270  -10.2138   20.3044 C   0  0  0  0  0  0
  -21.6847   -6.0759   22.5286 C   0  0  0  0  0  0
  -21.4009   -6.5652   23.8234 C   0  0  0  0  0  0
  -21.3660   -5.6800   24.9187 C   0  0  0  0  0  0
  -21.6042   -4.3065   24.7232 C   0  0  0  0  0  0
  -21.8817   -3.8165   23.4352 C   0  0  0  0  0  0
  -21.9195   -4.6983   22.3405 C   0  0  0  0  0  0
  -22.7877  -13.5229   21.1835 C   0  0  0  0  0  0
  -22.1664   -4.2175   21.0981 F   0  0  0  0  0  0
  -21.5631   -3.4545   25.7734 F   0  0  0  0  0  0
  -30.0378  -13.2235   20.4575 N   0  0  0  0  0  0
  -26.3023  -12.9305   20.3328 N   0  0  0  0  0  0
  -25.9314  -11.6462   20.5715 N   0  0  0  0  0  0
  -22.0515  -12.8194   22.0373 N   0  0  0  0  0  0
  -25.4309  -15.1866   20.4111 N   0  0  0  0  0  0
  -31.7763  -14.6757   20.1505 O   0  0  0  0  0  0
  -21.6644   -6.8904   21.4260 O   0  0  0  0  0  0
  -22.3564  -14.5545   20.6722 O   0  0  0  0  0  0
  -24.6109  -31.8699   23.2142 C   0  0  0  0  0  0
  -25.9022  -32.4804   23.8425 C   0  0  1  0  0  0
  -27.2361  -27.4740   20.0493 C   0  0  0  0  0  0
  -25.5857  -33.8604   24.2347 N   0  0  0  0  0  0
  -23.3964  -30.4935   21.5580 C   0  0  2  0  0  0
  -24.8372  -28.9570   20.1251 C   0  0  0  0  0  0
  -22.7370  -29.4680   22.5080 C   0  0  0  0  0  0
  -18.0240  -28.1367   22.8474 C   0  0  0  0  0  0
  -24.1463  -36.7315   23.2647 C   0  0  0  0  0  0
  -25.9265  -30.8307   21.3774 C   0  0  0  0  0  0
  -25.9973  -29.4702   20.7194 C   0  0  0  0  0  0
  -27.1988  -28.7298   20.6920 C   0  0  0  0  0  0
  -26.0534  -26.9537   19.4821 C   0  0  0  0  0  0
  -24.8557  -27.6916   19.5115 C   0  0  0  0  0  0
  -23.5982  -29.8217   20.1759 C   0  0  0  0  0  0
  -25.4065  -36.3070   24.0342 C   0  0  1  0  0  0
  -20.5826  -28.3637   23.1348 C   0  0  2  0  0  0
  -20.6712  -26.9407   22.5407 C   0  0  0  0  0  0
  -19.5709  -26.6400   21.5174 C   0  0  0  0  0  0
  -18.1890  -26.7917   22.1592 C   0  0  0  0  0  0
  -19.1491  -28.8823   23.2895 C   0  0  0  0  0  0
  -18.9415  -30.1432   23.8904 C   0  0  0  0  0  0
  -17.6421  -30.6576   24.0544 C   0  0  0  0  0  0
  -25.9005  -34.9452   23.5140 C   0  0  0  0  0  0
  -16.5309  -29.9057   23.6379 C   0  0  0  0  0  0
  -16.7233  -28.6493   23.0368 C   0  0  0  0  0  0
  -26.4459  -31.6590   25.0777 C   0  0  0  0  0  0
  -25.3739  -31.3615   26.1532 C   0  0  0  0  0  0
  -27.0383  -30.3047   24.6219 C   0  0  0  0  0  0
  -27.6031  -32.4355   25.7497 C   0  0  0  0  0  0
  -27.5563  -37.1787   24.8465 C   0  0  0  0  0  0
  -21.4109  -29.3016   22.3790 N   0  0  0  0  0  0
  -26.4266  -37.3753   23.9414 N   0  0  0  0  0  0
  -24.6612  -31.0800   22.1052 N   0  0  0  0  0  0
  -23.4153  -28.8255   23.3144 O   0  0  0  0  0  0
  -28.4121  -26.7707   19.9744 O   0  0  0  0  0  0
  -26.5579  -34.8913   22.4712 O   0  0  0  0  0  0
  -23.5321  -32.1502   23.7527 O   0  0  0  0  0  0
  -29.5958  -20.2729   18.4455 C   0  0  0  0  0  0
  -29.8422  -22.4698   20.1636 C   0  0  0  0  0  0
  -28.9848  -21.4974   18.0960 C   0  0  0  0  0  0
  -30.3268  -20.1395   19.6428 C   0  0  0  0  0  0
  -29.1062  -22.6122   18.9676 C   0  0  0  0  0  0
  -30.4568  -21.2530   20.5012 C   0  0  0  0  0  0
  -28.2003  -21.5692   16.7970 C   0  0  0  0  0  0
  -31.0121  -18.8214   19.9714 C   0  0  0  0  0  0
  -28.4563  -23.9697   18.6973 C   0  0  0  0  0  0
  -30.3424  -18.0146   21.1044 C   0  0  0  0  0  0
  -29.4794  -25.1106   18.5181 C   0  0  0  0  0  0
  -31.3943  -17.2607   21.9403 C   0  0  0  0  0  0
  -30.9120  -15.9990   22.6733 C   0  0  0  0  0  0
  -28.8714  -26.5181   18.6419 C   0  0  0  0  0  0
  -30.2804  -14.9893   21.8294 N   0  0  0  0  0  0
  -31.3740  -21.1672   21.9637 Cl  0  0  0  0  0  0
  -31.4621  -12.4481   19.0702 H   0  0  0  0  0  0
  -30.3537  -11.2770   19.7283 H   0  0  0  0  0  0
  -29.7159  -11.8528   17.3717 H   0  0  0  0  0  0
  -29.6459  -13.5475   17.7861 H   0  0  0  0  0  0
  -27.8011  -11.3362   18.7554 H   0  0  0  0  0  0
  -27.3552  -12.7084   17.7747 H   0  0  0  0  0  0
  -27.7323  -14.2576   19.6257 H   0  0  0  0  0  0
  -28.6641  -11.8402   21.2415 H   0  0  0  0  0  0
  -28.4185  -13.4187   21.8966 H   0  0  0  0  0  0
  -25.2782   -9.5686   22.4762 H   0  0  0  0  0  0
  -24.0014   -7.4640   22.7488 H   0  0  0  0  0  0
  -21.0871   -8.8789   19.8930 H   0  0  0  0  0  0
  -22.3748  -10.9677   19.6149 H   0  0  0  0  0  0
  -21.1997   -7.6166   23.9743 H   0  0  0  0  0  0
  -21.1482   -6.0528   25.9090 H   0  0  0  0  0  0
  -22.0594   -2.7630   23.2844 H   0  0  0  0  0  0
  -22.4134  -11.9822   22.4689 H   0  0  0  0  0  0
  -21.1130  -13.1213   22.2595 H   0  0  0  0  0  0
  -24.6683  -15.8432   20.5368 H   0  0  0  0  0  0
  -26.2874  -15.6290   20.0992 H   0  0  0  0  0  0
  -26.7066  -32.5499   23.1164 H   0  0  0  0  0  0
  -24.9940  -33.9736   25.0439 H   0  0  0  0  0  0
  -22.6852  -31.3089   21.4203 H   0  0  0  0  0  0
  -23.3704  -35.9680   23.3320 H   0  0  0  0  0  0
  -24.3545  -36.8942   22.2064 H   0  0  0  0  0  0
  -23.7314  -37.6541   23.6697 H   0  0  0  0  0  0
  -26.0645  -31.6032   20.6177 H   0  0  0  0  0  0
  -26.8033  -30.8623   22.0092 H   0  0  0  0  0  0
  -28.1018  -29.1313   21.1317 H   0  0  0  0  0  0
  -26.0629  -25.9831   19.0056 H   0  0  0  0  0  0
  -23.9591  -27.2877   19.0621 H   0  0  0  0  0  0
  -23.6931  -30.5909   19.4099 H   0  0  0  0  0  0
  -22.7227  -29.2329   19.8918 H   0  0  0  0  0  0
  -25.1261  -36.1908   25.0842 H   0  0  0  0  0  0
  -20.9850  -28.3171   24.1476 H   0  0  0  0  0  0
  -20.5597  -26.2253   23.3573 H   0  0  0  0  0  0
  -21.6591  -26.7445   22.1217 H   0  0  0  0  0  0
  -19.6872  -25.6313   21.1207 H   0  0  0  0  0  0
  -19.6640  -27.3180   20.6686 H   0  0  0  0  0  0
  -17.4160  -26.6647   21.3995 H   0  0  0  0  0  0
  -18.0277  -26.0062   22.9003 H   0  0  0  0  0  0
  -19.7895  -30.7232   24.2283 H   0  0  0  0  0  0
  -17.4991  -31.6275   24.5104 H   0  0  0  0  0  0
  -15.5314  -30.2925   23.7766 H   0  0  0  0  0  0
  -15.8625  -28.0816   22.7086 H   0  0  0  0  0  0
  -24.5886  -30.6991   25.7865 H   0  0  0  0  0  0
  -24.8935  -32.2712   26.5133 H   0  0  0  0  0  0
  -25.8124  -30.8684   27.0220 H   0  0  0  0  0  0
  -26.2984  -29.6665   24.1364 H   0  0  0  0  0  0
  -27.4270  -29.7405   25.4712 H   0  0  0  0  0  0
  -27.8741  -30.4411   23.9351 H   0  0  0  0  0  0
  -27.2667  -33.3667   26.2063 H   0  0  0  0  0  0
  -28.3796  -32.6905   25.0274 H   0  0  0  0  0  0
  -28.0753  -31.8516   26.5398 H   0  0  0  0  0  0
  -28.2560  -38.0094   24.7511 H   0  0  0  0  0  0
  -28.1085  -36.2636   24.6274 H   0  0  0  0  0  0
  -27.2302  -37.1423   25.8875 H   0  0  0  0  0  0
  -20.9294  -29.8740   21.6986 H   0  0  0  0  0  0
  -26.0133  -38.2847   24.1351 H   0  0  0  0  0  0
  -29.5073  -19.4227   17.7831 H   0  0  0  0  0  0
  -29.9470  -23.3101   20.8366 H   0  0  0  0  0  0
  -28.3318  -20.6664   16.1981 H   0  0  0  0  0  0
  -28.5264  -22.4112   16.1852 H   0  0  0  0  0  0
  -27.1359  -21.6752   17.0082 H   0  0  0  0  0  0
  -32.0453  -19.0572   20.2291 H   0  0  0  0  0  0
  -31.0777  -18.1960   19.0786 H   0  0  0  0  0  0
  -27.8164  -24.1919   19.5513 H   0  0  0  0  0  0
  -27.7906  -23.9313   17.8348 H   0  0  0  0  0  0
  -29.5904  -17.3494   20.6810 H   0  0  0  0  0  0
  -29.7990  -18.6785   21.7788 H   0  0  0  0  0  0
  -29.9605  -25.0039   17.5451 H   0  0  0  0  0  0
  -30.2775  -25.0310   19.2532 H   0  0  0  0  0  0
  -31.7875  -17.9528   22.6889 H   0  0  0  0  0  0
  -32.2508  -16.9974   21.3211 H   0  0  0  0  0  0
  -30.1955  -16.2701   23.4494 H   0  0  0  0  0  0
  -31.7540  -15.5388   23.1908 H   0  0  0  0  0  0
  -28.1006  -26.6564   17.8828 H   0  0  0  0  0  0
  -29.6383  -27.2620   18.4215 H   0  0  0  0  0  0
  -29.4297  -14.5920   22.2010 H   0  0  0  0  0  0
  1 25  1  0  0  0
  1 30  2  0  0  0
  1 85  1  0  0  0
  2  3  1  0  0  0
  2 25  1  0  0  0
  2 87  1  0  0  0
  2 88  1  0  0  0
  3  4  1  0  0  0
  3 89  1  0  0  0
  3 90  1  0  0  0
  4  5  1  0  0  0
  4 91  1  0  0  0
  4 92  1  0  0  0
  5  6  1  0  0  0
  5 26  1  0  0  0
  5 93  1  0  0  0
  6 25  1  0  0  0
  6 94  1  0  0  0
  6 95  1  0  0  0
  7  8  2  0  0  0
  7 26  1  0  0  0
  7 29  1  0  0  0
  8  9  1  0  0  0
  8 22  1  0  0  0
  9 10  1  0  0  0
  9 27  2  0  0  0
 10 11  2  0  0  0
 10 15  1  0  0  0
 11 12  1  0  0  0
 11 96  1  0  0  0
 12 13  2  0  0  0
 12 97  1  0  0  0
 13 14  1  0  0  0
 13 31  1  0  0  0
 14 15  2  0  0  0
 14 98  1  0  0  0
 15 99  1  0  0  0
 16 17  2  0  0  0
 16 21  1  0  0  0
 16 31  1  0  0  0
 17 18  1  0  0  0
 17100  1  0  0  0
 18 19  2  0  0  0
 18101  1  0  0  0
 19 20  1  0  0  0
 19 24  1  0  0  0
 20 21  2  0  0  0
 20102  1  0  0  0
 21 23  1  0  0  0
 22 28  1  0  0  0
 22 32  2  0  0  0
 26 27  1  0  0  0
 28103  1  0  0  0
 28104  1  0  0  0
 29105  1  0  0  0
 29106  1  0  0  0
 33 34  1  0  0  0
 33 66  1  0  0  0
 33 70  2  0  0  0
 34 36  1  0  0  0
 34 59  1  0  0  0
 34107  1  0  0  0
 35 44  2  0  0  0
 35 45  1  0  0  0
 35 68  1  0  0  0
 36 56  1  0  0  0
 36108  1  0  0  0
 37 39  1  0  0  0
 37 47  1  0  0  0
 37 66  1  0  0  0
 37109  1  0  0  0
 38 43  2  0  0  0
 38 46  1  0  0  0
 38 47  1  0  0  0
 39 64  1  0  0  0
 39 67  2  0  0  0
 40 52  1  0  0  0
 40 53  2  0  0  0
 40 58  1  0  0  0
 41110  1  0  0  0
 41111  1  0  0  0
 41112  1  0  0  0
 41 48  1  0  0  0
 42 43  1  0  0  0
 42 66  1  0  0  0
 42113  1  0  0  0
 42114  1  0  0  0
 43 44  1  0  0  0
 44115  1  0  0  0
 45 46  2  0  0  0
 45116  1  0  0  0
 46117  1  0  0  0
 47118  1  0  0  0
 47119  1  0  0  0
 48 56  1  0  0  0
 48 65  1  0  0  0
 48120  1  0  0  0
 49 50  1  0  0  0
 49 53  1  0  0  0
 49 64  1  0  0  0
 49121  1  0  0  0
 50 51  1  0  0  0
 50122  1  0  0  0
 50123  1  0  0  0
 51 52  1  0  0  0
 51124  1  0  0  0
 51125  1  0  0  0
 52126  1  0  0  0
 52127  1  0  0  0
 53 54  1  0  0  0
 54 55  2  0  0  0
 54128  1  0  0  0
 55 57  1  0  0  0
 55129  1  0  0  0
 56 69  2  0  0  0
 57 58  2  0  0  0
 57130  1  0  0  0
 58131  1  0  0  0
 59 60  1  0  0  0
 59 61  1  0  0  0
 59 62  1  0  0  0
 60132  1  0  0  0
 60133  1  0  0  0
 60134  1  0  0  0
 61135  1  0  0  0
 61136  1  0  0  0
 61137  1  0  0  0
 62138  1  0  0  0
 62139  1  0  0  0
 62140  1  0  0  0
 63 65  1  0  0  0
 63141  1  0  0  0
 63142  1  0  0  0
 63143  1  0  0  0
 64144  1  0  0  0
 65145  1  0  0  0
 68 84  1  0  0  0
 71 73  2  0  0  0
 71 74  1  0  0  0
 71146  1  0  0  0
 72 75  2  0  0  0
 72 76  1  0  0  0
 72147  1  0  0  0
 73 75  1  0  0  0
 73 77  1  0  0  0
 74 76  2  0  0  0
 74 78  1  0  0  0
 75 79  1  0  0  0
 76 86  1  0  0  0
 77148  1  0  0  0
 77149  1  0  0  0
 77150  1  0  0  0
 78 80  1  0  0  0
 78151  1  0  0  0
 78152  1  0  0  0
 79 81  1  0  0  0
 79153  1  0  0  0
 79154  1  0  0  0
 80 82  1  0  0  0
 80155  1  0  0  0
 80156  1  0  0  0
 81 84  1  0  0  0
 81157  1  0  0  0
 81158  1  0  0  0
 82 83  1  0  0  0
 82159  1  0  0  0
 82160  1  0  0  0
 83 85  1  0  0  0
 83161  1  0  0  0
 83162  1  0  0  0
 84163  1  0  0  0
 84164  1  0  0  0
 85165  1  0  0  0
M  ISO  4   1 100  68 101  84 101  85 100
M  END
> <chiral flag>
0

> <version>
0

> <s_m_source_file>
/data/baiqing/PycharmProjects/Reinvent-master-3.2/result/LINK_invent/BTK/process_docking_weight1_custom_sum_contain_oxygen_bond_distance_aromatic_linkinvent_7_9_3/rearranged_h_0036.sdf

> <i_m_source_file_index>
80

> <r_mmod_Potential_Energy-OPLS-2005>
-61.3862380981445

> <r_mmod_Stretch_Energy-OPLS-2005>
32.2073631286621

> <r_mmod_Bend_Energy-OPLS-2005>
97.0748138427734

> <r_mmod_Torsional_Energy-OPLS-2005>
229.214584350586

> <r_mmod_Improper_Torsional_Energy-OPLS-2005>
2.46102666854858

> <r_mmod_Van_der_Waal_Energy-OPLS-2005>
152.844131469727

> <r_mmod_Electrostatic_Energy-OPLS-2005>
-386.158874511719

> <r_mmod_Solvation_Energy-OPLS-2005>
-198.633575439453

> <b_mmod_Minimization_Converged-OPLS-2005>
0

> <r_mmod_RMS_Derivative-OPLS-2005>
3.96722459793091

$$$$
81
                    3D
 Structure written by MMmdl.
164172  0  0  1  0            999 V2000
  -30.6624  -14.5368   20.4015 C   0  0  0  0  0  0
  -30.4234  -12.2936   19.4305 C   0  0  0  0  0  0
  -29.4872  -12.3858   18.2071 C   0  0  0  0  0  0
  -28.0006  -12.3105   18.6277 C   0  0  0  0  0  0
  -27.6401  -13.1829   19.8637 C   0  0  2  0  0  0
  -28.7034  -13.0633   20.9780 C   0  0  0  0  0  0
  -25.2546  -13.8111   20.5756 C   0  0  0  0  0  0
  -24.1768  -13.0441   20.9233 C   0  0  0  0  0  0
  -24.6290  -11.6896   20.8835 C   0  0  0  0  0  0
  -23.8964  -10.4308   21.0484 C   0  0  0  0  0  0
  -24.3556   -9.4225   21.9232 C   0  0  0  0  0  0
  -23.6265   -8.2242   22.0780 C   0  0  0  0  0  0
  -22.4245   -8.0285   21.3569 C   0  0  0  0  0  0
  -21.9871   -9.0246   20.4668 C   0  0  0  0  0  0
  -22.7164  -10.2147   20.3092 C   0  0  0  0  0  0
  -21.6837   -6.0721   22.5273 C   0  0  0  0  0  0
  -21.3986   -6.5620   23.8205 C   0  0  0  0  0  0
  -21.3659   -5.6775   24.9167 C   0  0  0  0  0  0
  -21.6054   -4.3044   24.7212 C   0  0  0  0  0  0
  -21.8837   -3.8133   23.4333 C   0  0  0  0  0  0
  -21.9194   -4.6954   22.3389 C   0  0  0  0  0  0
  -22.7802  -13.5290   21.1818 C   0  0  0  0  0  0
  -22.1675   -4.2142   21.0967 F   0  0  0  0  0  0
  -21.5650   -3.4528   25.7722 F   0  0  0  0  0  0
  -30.0161  -13.3391   20.3765 N   0  0  0  0  0  0
  -26.2930  -12.9189   20.3476 N   0  0  0  0  0  0
  -25.9209  -11.6395   20.5921 N   0  0  0  0  0  0
  -22.0378  -12.8369   22.0380 N   0  0  0  0  0  0
  -25.4317  -15.1836   20.4141 N   0  0  0  0  0  0
  -31.8718  -14.6515   20.1919 O   0  0  0  0  0  0
  -21.6629   -6.8874   21.4245 O   0  0  0  0  0  0
  -22.3532  -14.5579   20.6590 O   0  0  0  0  0  0
  -24.6077  -31.8696   23.2099 C   0  0  0  0  0  0
  -25.8981  -32.4840   23.8386 C   0  0  1  0  0  0
  -27.2691  -27.4705   20.1036 C   0  0  0  0  0  0
  -25.5839  -33.8636   24.2313 N   0  0  0  0  0  0
  -23.3965  -30.4876   21.5486 C   0  0  2  0  0  0
  -24.8515  -28.9546   20.1154 C   0  0  0  0  0  0
  -22.7385  -29.4639   22.5008 C   0  0  0  0  0  0
  -18.0253  -28.1358   22.8497 C   0  0  0  0  0  0
  -24.1481  -36.7333   23.2638 C   0  0  0  0  0  0
  -25.9157  -30.8482   21.3560 C   0  0  0  0  0  0
  -26.0002  -29.4793   20.7171 C   0  0  0  0  0  0
  -27.2040  -28.7456   20.7193 C   0  0  0  0  0  0
  -26.1021  -26.9589   19.4964 C   0  0  0  0  0  0
  -24.8951  -27.6892   19.5035 C   0  0  0  0  0  0
  -23.6053  -29.8121   20.1643 C   0  0  0  0  0  0
  -25.4104  -36.3131   24.0333 C   0  0  1  0  0  0
  -20.5839  -28.3628   23.1344 C   0  0  2  0  0  0
  -20.6734  -26.9367   22.5432 C   0  0  0  0  0  0
  -19.5720  -26.6373   21.5215 C   0  0  0  0  0  0
  -18.1896  -26.7908   22.1627 C   0  0  0  0  0  0
  -19.1498  -28.8813   23.2917 C   0  0  0  0  0  0
  -18.9441  -30.1424   23.8917 C   0  0  0  0  0  0
  -17.6442  -30.6576   24.0555 C   0  0  0  0  0  0
  -25.9018  -34.9490   23.5130 C   0  0  0  0  0  0
  -16.5334  -29.9077   23.6318 C   0  0  0  0  0  0
  -16.7238  -28.6490   23.0348 C   0  0  0  0  0  0
  -26.4429  -31.6612   25.0698 C   0  0  0  0  0  0
  -25.3701  -31.3720   26.1455 C   0  0  0  0  0  0
  -27.0246  -30.3061   24.6032 C   0  0  0  0  0  0
  -27.6015  -32.4319   25.7453 C   0  0  0  0  0  0
  -27.5580  -37.1819   24.8461 C   0  0  0  0  0  0
  -21.4109  -29.3003   22.3757 N   0  0  0  0  0  0
  -26.4297  -37.3809   23.9403 N   0  0  0  0  0  0
  -24.6577  -31.0829   22.0984 N   0  0  0  0  0  0
  -23.4180  -28.8191   23.3042 O   0  0  0  0  0  0
  -28.4105  -26.6917   20.0384 O   0  0  0  0  0  0
  -26.5613  -34.8938   22.4709 O   0  0  0  0  0  0
  -23.5277  -32.1426   23.7522 O   0  0  0  0  0  0
  -32.0542  -24.1094   21.1774 C   0  0  0  0  0  0
  -29.7281  -23.8507   20.6000 C   0  0  0  0  0  0
  -30.8260  -24.7023   20.8316 C   0  0  0  0  0  0
  -32.1739  -22.7077   21.1717 C   0  0  0  0  0  0
  -31.0443  -21.9348   20.8185 C   0  0  0  0  0  0
  -33.5362  -22.0821   21.4354 C   0  0  0  0  0  0
  -29.3927  -15.9955   18.9342 C   0  0  0  0  0  0
  -30.7831  -26.2152   20.6078 C   0  0  0  0  0  0
  -31.1762  -20.4686   20.4016 C   0  0  0  0  0  0
  -30.5805  -19.3726   21.3166 C   0  0  0  0  0  0
  -30.6953  -18.0113   20.5837 C   0  0  0  0  0  0
  -29.9357  -16.7961   21.1908 C   0  0  0  0  0  0
  -29.4901  -26.9949   20.9242 C   0  0  0  0  0  0
  -29.8374  -22.5021   20.5934 N   0  0  0  0  0  0
  -29.8515  -15.6233   20.2874 N   0  0  0  0  0  0
  -31.4633  -12.3977   19.1164 H   0  0  0  0  0  0
  -30.3458  -11.3124   19.9024 H   0  0  0  0  0  0
  -29.7011  -11.5621   17.5253 H   0  0  0  0  0  0
  -29.6916  -13.2867   17.6334 H   0  0  0  0  0  0
  -27.7922  -11.2632   18.8518 H   0  0  0  0  0  0
  -27.3533  -12.5671   17.7881 H   0  0  0  0  0  0
  -27.6139  -14.2099   19.5273 H   0  0  0  0  0  0
  -28.6949  -12.0630   21.4116 H   0  0  0  0  0  0
  -28.4883  -13.7584   21.7926 H   0  0  0  0  0  0
  -25.2720   -9.5709   22.4790 H   0  0  0  0  0  0
  -23.9998   -7.4619   22.7469 H   0  0  0  0  0  0
  -21.0821   -8.8746   19.8940 H   0  0  0  0  0  0
  -22.3642  -10.9689   19.6187 H   0  0  0  0  0  0
  -21.1937   -7.6118   23.9706 H   0  0  0  0  0  0
  -21.1475   -6.0499   25.9080 H   0  0  0  0  0  0
  -22.0609   -2.7597   23.2823 H   0  0  0  0  0  0
  -22.3929  -12.0068   22.4891 H   0  0  0  0  0  0
  -21.0974  -13.1435   22.2442 H   0  0  0  0  0  0
  -24.6691  -15.8468   20.5014 H   0  0  0  0  0  0
  -26.3071  -15.6217   20.1544 H   0  0  0  0  0  0
  -26.7060  -32.5589   23.1167 H   0  0  0  0  0  0
  -24.9926  -33.9794   25.0414 H   0  0  0  0  0  0
  -22.6810  -31.3006   21.4075 H   0  0  0  0  0  0
  -23.3736  -35.9674   23.3321 H   0  0  0  0  0  0
  -24.3569  -36.8931   22.2047 H   0  0  0  0  0  0
  -23.7242  -37.6545   23.6645 H   0  0  0  0  0  0
  -26.0092  -31.6090   20.5801 H   0  0  0  0  0  0
  -26.8088  -30.9201   21.9647 H   0  0  0  0  0  0
  -28.0645  -29.1937   21.1896 H   0  0  0  0  0  0
  -26.1284  -25.9907   19.0166 H   0  0  0  0  0  0
  -24.0126  -27.2787   19.0318 H   0  0  0  0  0  0
  -23.7011  -30.5825   19.3980 H   0  0  0  0  0  0
  -22.7343  -29.2205   19.8785 H   0  0  0  0  0  0
  -25.1286  -36.1996   25.0827 H   0  0  0  0  0  0
  -20.9914  -28.3175   24.1469 H   0  0  0  0  0  0
  -20.5610  -26.2232   23.3608 H   0  0  0  0  0  0
  -21.6608  -26.7399   22.1238 H   0  0  0  0  0  0
  -19.6875  -25.6291   21.1220 H   0  0  0  0  0  0
  -19.6662  -27.3199   20.6758 H   0  0  0  0  0  0
  -17.4165  -26.6648   21.4029 H   0  0  0  0  0  0
  -18.0298  -26.0040   22.9015 H   0  0  0  0  0  0
  -19.7919  -30.7230   24.2294 H   0  0  0  0  0  0
  -17.5003  -31.6259   24.5146 H   0  0  0  0  0  0
  -15.5333  -30.2995   23.7631 H   0  0  0  0  0  0
  -15.8635  -28.0822   22.7061 H   0  0  0  0  0  0
  -24.5848  -30.7096   25.7789 H   0  0  0  0  0  0
  -24.8917  -32.2884   26.4925 H   0  0  0  0  0  0
  -25.8045  -30.8863   27.0200 H   0  0  0  0  0  0
  -26.2776  -29.6858   24.1061 H   0  0  0  0  0  0
  -27.4003  -29.7260   25.4471 H   0  0  0  0  0  0
  -27.8615  -30.4397   23.9170 H   0  0  0  0  0  0
  -27.2637  -33.3608   26.2060 H   0  0  0  0  0  0
  -28.3806  -32.6893   25.0266 H   0  0  0  0  0  0
  -28.0694  -31.8418   26.5343 H   0  0  0  0  0  0
  -28.2615  -38.0101   24.7504 H   0  0  0  0  0  0
  -28.1061  -36.2636   24.6298 H   0  0  0  0  0  0
  -27.2295  -37.1477   25.8863 H   0  0  0  0  0  0
  -20.9248  -29.8756   21.7022 H   0  0  0  0  0  0
  -26.0194  -38.2890   24.1407 H   0  0  0  0  0  0
  -32.9249  -24.7230   21.3656 H   0  0  0  0  0  0
  -28.7531  -24.2367   20.3472 H   0  0  0  0  0  0
  -33.4467  -21.1245   21.9503 H   0  0  0  0  0  0
  -34.1521  -22.7314   22.0594 H   0  0  0  0  0  0
  -34.0636  -21.9254   20.4933 H   0  0  0  0  0  0
  -28.5754  -16.7160   18.9797 H   0  0  0  0  0  0
  -30.2041  -16.4262   18.3434 H   0  0  0  0  0  0
  -29.0302  -15.1635   18.3413 H   0  0  0  0  0  0
  -31.0630  -26.3989   19.5689 H   0  0  0  0  0  0
  -31.5797  -26.6601   21.2055 H   0  0  0  0  0  0
  -32.2183  -20.2285   20.1995 H   0  0  0  0  0  0
  -30.6937  -20.4039   19.4264 H   0  0  0  0  0  0
  -29.5328  -19.5965   21.5223 H   0  0  0  0  0  0
  -31.0946  -19.3517   22.2775 H   0  0  0  0  0  0
  -31.7463  -17.7532   20.4441 H   0  0  0  0  0  0
  -30.3086  -18.2118   19.5867 H   0  0  0  0  0  0
  -28.9155  -17.0940   21.4346 H   0  0  0  0  0  0
  -30.3979  -16.5057   22.1360 H   0  0  0  0  0  0
  -29.7661  -28.0433   20.8130 H   0  0  0  0  0  0
  -29.1888  -26.8440   21.9611 H   0  0  0  0  0  0
  1 25  1  0  0  0
  1 30  2  0  0  0
  1 85  1  0  0  0
  2  3  1  0  0  0
  2 25  1  0  0  0
  2 86  1  0  0  0
  2 87  1  0  0  0
  3  4  1  0  0  0
  3 88  1  0  0  0
  3 89  1  0  0  0
  4  5  1  0  0  0
  4 90  1  0  0  0
  4 91  1  0  0  0
  5  6  1  0  0  0
  5 26  1  0  0  0
  5 92  1  0  0  0
  6 25  1  0  0  0
  6 93  1  0  0  0
  6 94  1  0  0  0
  7  8  2  0  0  0
  7 26  1  0  0  0
  7 29  1  0  0  0
  8  9  1  0  0  0
  8 22  1  0  0  0
  9 10  1  0  0  0
  9 27  2  0  0  0
 10 11  2  0  0  0
 10 15  1  0  0  0
 11 12  1  0  0  0
 11 95  1  0  0  0
 12 13  2  0  0  0
 12 96  1  0  0  0
 13 14  1  0  0  0
 13 31  1  0  0  0
 14 15  2  0  0  0
 14 97  1  0  0  0
 15 98  1  0  0  0
 16 17  2  0  0  0
 16 21  1  0  0  0
 16 31  1  0  0  0
 17 18  1  0  0  0
 17 99  1  0  0  0
 18 19  2  0  0  0
 18100  1  0  0  0
 19 20  1  0  0  0
 19 24  1  0  0  0
 20 21  2  0  0  0
 20101  1  0  0  0
 21 23  1  0  0  0
 22 28  1  0  0  0
 22 32  2  0  0  0
 26 27  1  0  0  0
 28102  1  0  0  0
 28103  1  0  0  0
 29104  1  0  0  0
 29105  1  0  0  0
 33 34  1  0  0  0
 33 66  1  0  0  0
 33 70  2  0  0  0
 34 36  1  0  0  0
 34 59  1  0  0  0
 34106  1  0  0  0
 35 44  2  0  0  0
 35 45  1  0  0  0
 35 68  1  0  0  0
 36 56  1  0  0  0
 36107  1  0  0  0
 37 39  1  0  0  0
 37 47  1  0  0  0
 37 66  1  0  0  0
 37108  1  0  0  0
 38 43  2  0  0  0
 38 46  1  0  0  0
 38 47  1  0  0  0
 39 64  1  0  0  0
 39 67  2  0  0  0
 40 52  1  0  0  0
 40 53  2  0  0  0
 40 58  1  0  0  0
 41109  1  0  0  0
 41110  1  0  0  0
 41111  1  0  0  0
 41 48  1  0  0  0
 42 43  1  0  0  0
 42 66  1  0  0  0
 42112  1  0  0  0
 42113  1  0  0  0
 43 44  1  0  0  0
 44114  1  0  0  0
 45 46  2  0  0  0
 45115  1  0  0  0
 46116  1  0  0  0
 47117  1  0  0  0
 47118  1  0  0  0
 48 56  1  0  0  0
 48 65  1  0  0  0
 48119  1  0  0  0
 49 50  1  0  0  0
 49 53  1  0  0  0
 49 64  1  0  0  0
 49120  1  0  0  0
 50 51  1  0  0  0
 50121  1  0  0  0
 50122  1  0  0  0
 51 52  1  0  0  0
 51123  1  0  0  0
 51124  1  0  0  0
 52125  1  0  0  0
 52126  1  0  0  0
 53 54  1  0  0  0
 54 55  2  0  0  0
 54127  1  0  0  0
 55 57  1  0  0  0
 55128  1  0  0  0
 56 69  2  0  0  0
 57 58  2  0  0  0
 57129  1  0  0  0
 58130  1  0  0  0
 59 60  1  0  0  0
 59 61  1  0  0  0
 59 62  1  0  0  0
 60131  1  0  0  0
 60132  1  0  0  0
 60133  1  0  0  0
 61134  1  0  0  0
 61135  1  0  0  0
 61136  1  0  0  0
 62137  1  0  0  0
 62138  1  0  0  0
 62139  1  0  0  0
 63 65  1  0  0  0
 63140  1  0  0  0
 63141  1  0  0  0
 63142  1  0  0  0
 64143  1  0  0  0
 65144  1  0  0  0
 68 83  1  0  0  0
 71 73  2  0  0  0
 71 74  1  0  0  0
 71145  1  0  0  0
 72 73  1  0  0  0
 72 84  2  0  0  0
 72146  1  0  0  0
 73 78  1  0  0  0
 74 75  2  0  0  0
 74 76  1  0  0  0
 75 79  1  0  0  0
 75 84  1  0  0  0
 76147  1  0  0  0
 76148  1  0  0  0
 76149  1  0  0  0
 77 85  1  0  0  0
 77150  1  0  0  0
 77151  1  0  0  0
 77152  1  0  0  0
 78 83  1  0  0  0
 78153  1  0  0  0
 78154  1  0  0  0
 79 80  1  0  0  0
 79155  1  0  0  0
 79156  1  0  0  0
 80 81  1  0  0  0
 80157  1  0  0  0
 80158  1  0  0  0
 81 82  1  0  0  0
 81159  1  0  0  0
 81160  1  0  0  0
 82 85  1  0  0  0
 82161  1  0  0  0
 82162  1  0  0  0
 83163  1  0  0  0
 83164  1  0  0  0
M  ISO  4   1 100  68 101  83 101  85 100
M  END
> <chiral flag>
0

> <version>
0

> <s_m_source_file>
/data/baiqing/PycharmProjects/Reinvent-master-3.2/result/LINK_invent/BTK/process_docking_weight1_custom_sum_contain_oxygen_bond_distance_aromatic_linkinvent_7_9_3/rearranged_h_0036.sdf

> <i_m_source_file_index>
81

> <r_mmod_Potential_Energy-OPLS-2005>
6.4718770980835

> <r_mmod_Stretch_Energy-OPLS-2005>
38.5066299438477

> <r_mmod_Bend_Energy-OPLS-2005>
117.070419311523

> <r_mmod_Torsional_Energy-OPLS-2005>
300.016906738281

> <r_mmod_Improper_Torsional_Energy-OPLS-2005>
14.2266712188721

> <r_mmod_Van_der_Waal_Energy-OPLS-2005>
167.223846435547

> <r_mmod_Electrostatic_Energy-OPLS-2005>
-446.848052978516

> <r_mmod_Solvation_Energy-OPLS-2005>
-210.646408081055

> <b_mmod_Minimization_Converged-OPLS-2005>
0

> <r_mmod_RMS_Derivative-OPLS-2005>
2.70308446884155

$$$$
82
                    3D
 Structure written by MMmdl.
161169  0  0  1  0            999 V2000
  -30.7166  -14.4051   20.5713 C   0  0  0  0  0  0
  -30.4162  -12.2700   19.3962 C   0  0  0  0  0  0
  -29.4811  -12.5015   18.1917 C   0  0  0  0  0  0
  -28.0051  -12.3729   18.6142 C   0  0  0  0  0  0
  -27.6713  -13.1971   19.8875 C   0  0  2  0  0  0
  -28.7155  -12.9349   20.9957 C   0  0  0  0  0  0
  -25.2683  -13.8128   20.5721 C   0  0  0  0  0  0
  -24.1906  -13.0433   20.9176 C   0  0  0  0  0  0
  -24.6414  -11.6884   20.8706 C   0  0  0  0  0  0
  -23.9086  -10.4293   21.0406 C   0  0  0  0  0  0
  -24.3636   -9.4214   21.9195 C   0  0  0  0  0  0
  -23.6306   -8.2254   22.0768 C   0  0  0  0  0  0
  -22.4305   -8.0292   21.3524 C   0  0  0  0  0  0
  -21.9918   -9.0288   20.4656 C   0  0  0  0  0  0
  -22.7256  -10.2155   20.3072 C   0  0  0  0  0  0
  -21.6869   -6.0744   22.5284 C   0  0  0  0  0  0
  -21.4022   -6.5649   23.8222 C   0  0  0  0  0  0
  -21.3645   -5.6791   24.9173 C   0  0  0  0  0  0
  -21.6044   -4.3061   24.7211 C   0  0  0  0  0  0
  -21.8833   -3.8162   23.4341 C   0  0  0  0  0  0
  -21.9212   -4.6975   22.3402 C   0  0  0  0  0  0
  -22.7952  -13.5262   21.1824 C   0  0  0  0  0  0
  -22.1686   -4.2158   21.0980 F   0  0  0  0  0  0
  -21.5618   -3.4561   25.7729 F   0  0  0  0  0  0
  -30.0539  -13.2276   20.4486 N   0  0  0  0  0  0
  -26.3123  -12.9273   20.3477 N   0  0  0  0  0  0
  -25.9356  -11.6435   20.5797 N   0  0  0  0  0  0
  -22.0573  -12.8270   22.0353 N   0  0  0  0  0  0
  -25.4399  -15.1842   20.4211 N   0  0  0  0  0  0
  -31.8161  -14.6362   20.0612 O   0  0  0  0  0  0
  -21.6666   -6.8887   21.4238 O   0  0  0  0  0  0
  -22.3656  -14.5565   20.6662 O   0  0  0  0  0  0
  -24.6161  -31.8740   23.2155 C   0  0  0  0  0  0
  -25.9058  -32.4891   23.8403 C   0  0  1  0  0  0
  -27.2043  -27.4484   20.0444 C   0  0  0  0  0  0
  -25.5921  -33.8671   24.2373 N   0  0  0  0  0  0
  -23.4060  -30.5050   21.5557 C   0  0  2  0  0  0
  -24.8440  -29.0075   20.1032 C   0  0  0  0  0  0
  -22.7489  -29.4679   22.4914 C   0  0  0  0  0  0
  -18.0259  -28.1515   22.8255 C   0  0  0  0  0  0
  -24.1487  -36.7346   23.2623 C   0  0  0  0  0  0
  -25.9408  -30.8328   21.3945 C   0  0  0  0  0  0
  -26.0051  -29.4701   20.7426 C   0  0  0  0  0  0
  -27.1749  -28.6716   20.7638 C   0  0  0  0  0  0
  -26.0821  -27.1453   19.2461 C   0  0  0  0  0  0
  -24.8693  -27.8245   19.3692 C   0  0  0  0  0  0
  -23.6141  -29.8677   20.1628 C   0  0  0  0  0  0
  -25.4131  -36.3166   24.0337 C   0  0  1  0  0  0
  -20.5895  -28.3703   23.1035 C   0  0  2  0  0  0
  -20.6807  -26.9546   22.5038 C   0  0  0  0  0  0
  -19.5771  -26.6560   21.4850 C   0  0  0  0  0  0
  -18.1954  -26.8123   22.1277 C   0  0  0  0  0  0
  -19.1536  -28.8882   23.2766 C   0  0  0  0  0  0
  -18.9479  -30.1401   23.8955 C   0  0  0  0  0  0
  -17.6498  -30.6504   24.0774 C   0  0  0  0  0  0
  -25.9058  -34.9536   23.5147 C   0  0  0  0  0  0
  -16.5342  -29.9091   23.6455 C   0  0  0  0  0  0
  -16.7248  -28.6678   23.0163 C   0  0  0  0  0  0
  -26.4503  -31.6672   25.0720 C   0  0  0  0  0  0
  -25.3750  -31.3804   26.1445 C   0  0  0  0  0  0
  -27.0328  -30.3093   24.6172 C   0  0  0  0  0  0
  -27.6110  -32.4370   25.7504 C   0  0  0  0  0  0
  -27.5596  -37.1820   24.8459 C   0  0  0  0  0  0
  -21.4230  -29.2966   22.3513 N   0  0  0  0  0  0
  -26.4299  -37.3863   23.9390 N   0  0  0  0  0  0
  -24.6698  -31.0874   22.1071 N   0  0  0  0  0  0
  -23.4259  -28.8344   23.3066 O   0  0  0  0  0  0
  -28.3185  -26.6266   20.0822 O   0  0  0  0  0  0
  -26.5597  -34.8940   22.4677 O   0  0  0  0  0  0
  -23.5330  -32.1494   23.7512 O   0  0  0  0  0  0
  -27.2753  -22.0806   20.7307 C   0  0  0  0  0  0
  -24.9595  -21.2692   19.4426 C   0  0  0  0  0  0
  -26.4514  -23.0630   20.1515 C   0  0  0  0  0  0
  -25.2398  -22.6428   19.5297 C   0  0  0  0  0  0
  -26.8563  -20.7416   20.6631 C   0  0  0  0  0  0
  -24.2061  -23.6411   19.0071 C   0  0  0  0  0  0
  -26.7607  -24.5476   20.1985 C   0  0  0  0  0  0
  -27.5761  -19.6610   21.4377 C   0  0  0  0  0  0
  -28.5989  -18.8654   20.6149 C   0  0  0  0  0  0
  -28.8165  -17.4830   21.2474 C   0  0  0  0  0  0
  -30.0998  -16.7874   20.7952 C   0  0  0  0  0  0
  -28.1884  -25.1672   20.1653 C   0  0  0  0  0  0
  -25.7513  -20.3327   19.9990 N   0  0  0  0  0  0
  -29.9841  -15.3758   21.1180 N   0  0  0  0  0  0
  -31.4613  -12.3560   19.0940 H   0  0  0  0  0  0
  -30.3020  -11.2517   19.7721 H   0  0  0  0  0  0
  -29.7010  -11.7866   17.3979 H   0  0  0  0  0  0
  -29.6571  -13.4923   17.7647 H   0  0  0  0  0  0
  -27.8084  -11.3166   18.7962 H   0  0  0  0  0  0
  -27.3483  -12.6645   17.7968 H   0  0  0  0  0  0
  -27.7243  -14.2497   19.6078 H   0  0  0  0  0  0
  -28.6793  -11.8917   21.3151 H   0  0  0  0  0  0
  -28.4864  -13.5115   21.8927 H   0  0  0  0  0  0
  -25.2776   -9.5709   22.4769 H   0  0  0  0  0  0
  -24.0035   -7.4654   22.7487 H   0  0  0  0  0  0
  -21.0854   -8.8819   19.8966 H   0  0  0  0  0  0
  -22.3727  -10.9708   19.6200 H   0  0  0  0  0  0
  -21.2019   -7.6170   23.9706 H   0  0  0  0  0  0
  -21.1438   -6.0537   25.9058 H   0  0  0  0  0  0
  -22.0615   -2.7636   23.2850 H   0  0  0  0  0  0
  -22.4213  -11.9942   22.4731 H   0  0  0  0  0  0
  -21.1190  -13.1297   22.2550 H   0  0  0  0  0  0
  -24.6636  -15.8266   20.5274 H   0  0  0  0  0  0
  -26.2931  -15.6365   20.1221 H   0  0  0  0  0  0
  -26.7109  -32.5619   23.1145 H   0  0  0  0  0  0
  -24.9973  -33.9883   25.0444 H   0  0  0  0  0  0
  -22.6914  -31.3217   21.4228 H   0  0  0  0  0  0
  -23.3761  -35.9655   23.3319 H   0  0  0  0  0  0
  -24.3556  -36.8933   22.2018 H   0  0  0  0  0  0
  -23.7215  -37.6544   23.6616 H   0  0  0  0  0  0
  -26.0746  -31.6058   20.6379 H   0  0  0  0  0  0
  -26.8193  -30.8735   22.0259 H   0  0  0  0  0  0
  -28.0467  -28.9815   21.3217 H   0  0  0  0  0  0
  -26.1131  -26.4280   18.4497 H   0  0  0  0  0  0
  -24.0068  -27.5047   18.8014 H   0  0  0  0  0  0
  -23.7394  -30.6570   19.4228 H   0  0  0  0  0  0
  -22.7429  -29.2954   19.8401 H   0  0  0  0  0  0
  -25.1292  -36.2058   25.0826 H   0  0  0  0  0  0
  -21.0052  -28.3258   24.1100 H   0  0  0  0  0  0
  -20.5858  -26.2334   23.3143 H   0  0  0  0  0  0
  -21.6672  -26.7668   22.0737 H   0  0  0  0  0  0
  -19.6773  -25.6462   21.0882 H   0  0  0  0  0  0
  -19.6652  -27.3273   20.6251 H   0  0  0  0  0  0
  -17.4411  -26.6905   21.3565 H   0  0  0  0  0  0
  -18.0281  -26.0185   22.8581 H   0  0  0  0  0  0
  -19.7926  -30.7255   24.2313 H   0  0  0  0  0  0
  -17.5049  -31.6121   24.5472 H   0  0  0  0  0  0
  -15.5366  -30.2999   23.7969 H   0  0  0  0  0  0
  -15.8736  -28.1130   22.6491 H   0  0  0  0  0  0
  -24.5943  -30.7179   25.7716 H   0  0  0  0  0  0
  -24.8914  -32.2957   26.4846 H   0  0  0  0  0  0
  -25.8043  -30.8943   27.0215 H   0  0  0  0  0  0
  -26.2857  -29.6854   24.1267 H   0  0  0  0  0  0
  -27.4057  -29.7402   25.4695 H   0  0  0  0  0  0
  -27.8714  -30.4359   23.9341 H   0  0  0  0  0  0
  -27.2781  -33.3670   26.2140 H   0  0  0  0  0  0
  -28.3905  -32.6956   25.0325 H   0  0  0  0  0  0
  -28.0810  -31.8434   26.5379 H   0  0  0  0  0  0
  -28.2633  -38.0111   24.7512 H   0  0  0  0  0  0
  -28.1071  -36.2625   24.6290 H   0  0  0  0  0  0
  -27.2260  -37.1472   25.8851 H   0  0  0  0  0  0
  -20.9548  -29.8345   21.6346 H   0  0  0  0  0  0
  -26.0223  -38.2916   24.1455 H   0  0  0  0  0  0
  -28.1763  -22.3514   21.2705 H   0  0  0  0  0  0
  -24.0675  -20.9211   18.9395 H   0  0  0  0  0  0
  -24.0522  -24.4391   19.7392 H   0  0  0  0  0  0
  -23.2358  -23.1810   18.8140 H   0  0  0  0  0  0
  -24.5309  -24.1033   18.0747 H   0  0  0  0  0  0
  -26.1191  -25.0230   20.9408 H   0  0  0  0  0  0
  -26.4148  -24.7319   19.2007 H   0  0  0  0  0  0
  -26.8157  -18.9889   21.8274 H   0  0  0  0  0  0
  -28.0595  -20.1093   22.3080 H   0  0  0  0  0  0
  -29.5363  -19.4203   20.5290 H   0  0  0  0  0  0
  -28.2233  -18.7198   19.5973 H   0  0  0  0  0  0
  -27.9469  -16.8688   21.0128 H   0  0  0  0  0  0
  -28.8476  -17.5770   22.3355 H   0  0  0  0  0  0
  -30.9614  -17.2286   21.2972 H   0  0  0  0  0  0
  -30.2496  -16.9114   19.7191 H   0  0  0  0  0  0
  -28.7365  -24.7402   19.3278 H   0  0  0  0  0  0
  -28.7227  -24.8463   21.0562 H   0  0  0  0  0  0
  -29.1185  -15.0701   21.5367 H   0  0  0  0  0  0
  1 25  1  0  0  0
  1 30  2  0  0  0
  1 84  1  0  0  0
  2  3  1  0  0  0
  2 25  1  0  0  0
  2 85  1  0  0  0
  2 86  1  0  0  0
  3  4  1  0  0  0
  3 87  1  0  0  0
  3 88  1  0  0  0
  4  5  1  0  0  0
  4 89  1  0  0  0
  4 90  1  0  0  0
  5  6  1  0  0  0
  5 26  1  0  0  0
  5 91  1  0  0  0
  6 25  1  0  0  0
  6 92  1  0  0  0
  6 93  1  0  0  0
  7  8  2  0  0  0
  7 26  1  0  0  0
  7 29  1  0  0  0
  8  9  1  0  0  0
  8 22  1  0  0  0
  9 10  1  0  0  0
  9 27  2  0  0  0
 10 11  2  0  0  0
 10 15  1  0  0  0
 11 12  1  0  0  0
 11 94  1  0  0  0
 12 13  2  0  0  0
 12 95  1  0  0  0
 13 14  1  0  0  0
 13 31  1  0  0  0
 14 15  2  0  0  0
 14 96  1  0  0  0
 15 97  1  0  0  0
 16 17  2  0  0  0
 16 21  1  0  0  0
 16 31  1  0  0  0
 17 18  1  0  0  0
 17 98  1  0  0  0
 18 19  2  0  0  0
 18 99  1  0  0  0
 19 20  1  0  0  0
 19 24  1  0  0  0
 20 21  2  0  0  0
 20100  1  0  0  0
 21 23  1  0  0  0
 22 28  1  0  0  0
 22 32  2  0  0  0
 26 27  1  0  0  0
 28101  1  0  0  0
 28102  1  0  0  0
 29103  1  0  0  0
 29104  1  0  0  0
 33 34  1  0  0  0
 33 66  1  0  0  0
 33 70  2  0  0  0
 34 36  1  0  0  0
 34 59  1  0  0  0
 34105  1  0  0  0
 35 44  2  0  0  0
 35 45  1  0  0  0
 35 68  1  0  0  0
 36 56  1  0  0  0
 36106  1  0  0  0
 37 39  1  0  0  0
 37 47  1  0  0  0
 37 66  1  0  0  0
 37107  1  0  0  0
 38 43  2  0  0  0
 38 46  1  0  0  0
 38 47  1  0  0  0
 39 64  1  0  0  0
 39 67  2  0  0  0
 40 52  1  0  0  0
 40 53  2  0  0  0
 40 58  1  0  0  0
 41108  1  0  0  0
 41109  1  0  0  0
 41110  1  0  0  0
 41 48  1  0  0  0
 42 43  1  0  0  0
 42 66  1  0  0  0
 42111  1  0  0  0
 42112  1  0  0  0
 43 44  1  0  0  0
 44113  1  0  0  0
 45 46  2  0  0  0
 45114  1  0  0  0
 46115  1  0  0  0
 47116  1  0  0  0
 47117  1  0  0  0
 48 56  1  0  0  0
 48 65  1  0  0  0
 48118  1  0  0  0
 49 50  1  0  0  0
 49 53  1  0  0  0
 49 64  1  0  0  0
 49119  1  0  0  0
 50 51  1  0  0  0
 50120  1  0  0  0
 50121  1  0  0  0
 51 52  1  0  0  0
 51122  1  0  0  0
 51123  1  0  0  0
 52124  1  0  0  0
 52125  1  0  0  0
 53 54  1  0  0  0
 54 55  2  0  0  0
 54126  1  0  0  0
 55 57  1  0  0  0
 55127  1  0  0  0
 56 69  2  0  0  0
 57 58  2  0  0  0
 57128  1  0  0  0
 58129  1  0  0  0
 59 60  1  0  0  0
 59 61  1  0  0  0
 59 62  1  0  0  0
 60130  1  0  0  0
 60131  1  0  0  0
 60132  1  0  0  0
 61133  1  0  0  0
 61134  1  0  0  0
 61135  1  0  0  0
 62136  1  0  0  0
 62137  1  0  0  0
 62138  1  0  0  0
 63 65  1  0  0  0
 63139  1  0  0  0
 63140  1  0  0  0
 63141  1  0  0  0
 64142  1  0  0  0
 65143  1  0  0  0
 68 82  1  0  0  0
 71 73  2  0  0  0
 71 75  1  0  0  0
 71144  1  0  0  0
 72 74  2  0  0  0
 72 83  1  0  0  0
 72145  1  0  0  0
 73 74  1  0  0  0
 73 77  1  0  0  0
 74 76  1  0  0  0
 75 78  1  0  0  0
 75 83  2  0  0  0
 76146  1  0  0  0
 76147  1  0  0  0
 76148  1  0  0  0
 77 82  1  0  0  0
 77149  1  0  0  0
 77150  1  0  0  0
 78 79  1  0  0  0
 78151  1  0  0  0
 78152  1  0  0  0
 79 80  1  0  0  0
 79153  1  0  0  0
 79154  1  0  0  0
 80 81  1  0  0  0
 80155  1  0  0  0
 80156  1  0  0  0
 81 84  1  0  0  0
 81157  1  0  0  0
 81158  1  0  0  0
 82159  1  0  0  0
 82160  1  0  0  0
 84161  1  0  0  0
M  ISO  4   1 100  68 101  82 101  84 100
M  END
> <chiral flag>
0

> <version>
0

> <s_m_source_file>
/data/baiqing/PycharmProjects/Reinvent-master-3.2/result/LINK_invent/BTK/process_docking_weight1_custom_sum_contain_oxygen_bond_distance_aromatic_linkinvent_7_9_3/rearranged_h_0036.sdf

> <i_m_source_file_index>
82

> <r_mmod_Potential_Energy-OPLS-2005>
-93.2881774902344

> <r_mmod_Stretch_Energy-OPLS-2005>
37.1325187683105

> <r_mmod_Bend_Energy-OPLS-2005>
132.923858642578

> <r_mmod_Torsional_Energy-OPLS-2005>
234.177810668945

> <r_mmod_Improper_Torsional_Energy-OPLS-2005>
6.53809690475464

> <r_mmod_Van_der_Waal_Energy-OPLS-2005>
187.426818847656

> <r_mmod_Electrostatic_Energy-OPLS-2005>
-499.163330078125

> <r_mmod_Solvation_Energy-OPLS-2005>
-220.723159790039

> <b_mmod_Minimization_Converged-OPLS-2005>
0

> <r_mmod_RMS_Derivative-OPLS-2005>
8.83662414550781

$$$$
83
                    3D
 Structure written by MMmdl.
150158  0  0  1  0            999 V2000
  -30.4077  -15.3383   20.3535 C   0  0  0  0  0  0
  -30.4354  -12.8559   19.5447 C   0  0  0  0  0  0
  -29.5404  -12.5924   18.3048 C   0  0  0  0  0  0
  -28.0914  -12.3049   18.7300 C   0  0  0  0  0  0
  -27.6098  -13.2838   19.8277 C   0  0  2  0  0  0
  -28.6372  -13.4867   20.9641 C   0  0  0  0  0  0
  -25.2373  -13.8263   20.5768 C   0  0  0  0  0  0
  -24.1735  -13.0440   20.9272 C   0  0  0  0  0  0
  -24.6402  -11.6941   20.8772 C   0  0  0  0  0  0
  -23.9096  -10.4296   21.0406 C   0  0  0  0  0  0
  -24.3639   -9.4211   21.9185 C   0  0  0  0  0  0
  -23.6310   -8.2249   22.0753 C   0  0  0  0  0  0
  -22.4289   -8.0287   21.3542 C   0  0  0  0  0  0
  -21.9928   -9.0263   20.4646 C   0  0  0  0  0  0
  -22.7264  -10.2140   20.3058 C   0  0  0  0  0  0
  -21.6858   -6.0744   22.5281 C   0  0  0  0  0  0
  -21.4015   -6.5646   23.8214 C   0  0  0  0  0  0
  -21.3658   -5.6797   24.9176 C   0  0  0  0  0  0
  -21.6039   -4.3060   24.7226 C   0  0  0  0  0  0
  -21.8819   -3.8151   23.4347 C   0  0  0  0  0  0
  -21.9196   -4.6969   22.3405 C   0  0  0  0  0  0
  -22.7752  -13.5187   21.1918 C   0  0  0  0  0  0
  -22.1666   -4.2155   21.0981 F   0  0  0  0  0  0
  -21.5626   -3.4542   25.7739 F   0  0  0  0  0  0
  -29.8638  -14.0125   20.3409 N   0  0  0  0  0  0
  -26.2808  -12.9553   20.3250 N   0  0  0  0  0  0
  -25.9343  -11.6647   20.5733 N   0  0  0  0  0  0
  -22.0417  -12.8164   22.0469 N   0  0  0  0  0  0
  -25.3990  -15.2000   20.4204 N   0  0  0  0  0  0
  -31.6198  -15.3331   20.0888 O   0  0  0  0  0  0
  -21.6648   -6.8885   21.4240 O   0  0  0  0  0  0
  -22.3433  -14.5491   20.6764 O   0  0  0  0  0  0
  -24.6662  -31.8186   23.1656 C   0  0  0  0  0  0
  -25.9324  -32.4559   23.8146 C   0  0  1  0  0  0
  -27.2197  -26.8767   20.1899 C   0  0  0  0  0  0
  -25.5974  -33.8378   24.2041 N   0  0  0  0  0  0
  -23.4846  -30.4274   21.5142 C   0  0  2  0  0  0
  -24.9413  -28.8077   20.1067 C   0  0  0  0  0  0
  -22.7692  -29.4410   22.4749 C   0  0  0  0  0  0
  -18.0329  -28.1418   22.8469 C   0  0  0  0  0  0
  -24.1485  -36.7180   23.2653 C   0  0  0  0  0  0
  -26.0563  -30.6064   21.4076 C   0  0  0  0  0  0
  -26.1228  -29.1919   20.7517 C   0  0  0  0  0  0
  -27.2505  -28.2458   20.7741 C   0  0  0  0  0  0
  -26.0146  -26.6651   19.4794 C   0  0  0  0  0  0
  -24.9162  -27.5673   19.4490 C   0  0  0  0  0  0
  -23.7288  -29.7406   20.1409 C   0  0  0  0  0  0
  -25.4130  -36.2944   24.0298 C   0  0  1  0  0  0
  -20.5958  -28.3762   23.1180 C   0  0  2  0  0  0
  -20.6801  -26.9438   22.5406 C   0  0  0  0  0  0
  -19.5772  -26.6375   21.5221 C   0  0  0  0  0  0
  -18.1953  -26.7948   22.1625 C   0  0  0  0  0  0
  -19.1595  -28.8910   23.2810 C   0  0  0  0  0  0
  -18.9508  -30.1498   23.8846 C   0  0  0  0  0  0
  -17.6500  -30.6605   24.0557 C   0  0  0  0  0  0
  -25.9107  -34.9335   23.4994 C   0  0  0  0  0  0
  -16.5388  -29.9090   23.6352 C   0  0  0  0  0  0
  -16.7311  -28.6511   23.0371 C   0  0  0  0  0  0
  -26.4563  -31.6532   25.0700 C   0  0  0  0  0  0
  -25.3675  -31.3804   26.1345 C   0  0  0  0  0  0
  -27.0488  -30.2893   24.6490 C   0  0  0  0  0  0
  -27.6041  -32.4368   25.7495 C   0  0  0  0  0  0
  -27.5555  -37.1746   24.8473 C   0  0  0  0  0  0
  -21.4355  -29.3039   22.3514 N   0  0  0  0  0  0
  -26.4263  -37.3689   23.9415 N   0  0  0  0  0  0
  -24.7571  -30.9799   22.0818 N   0  0  0  0  0  0
  -23.4216  -28.7995   23.3025 O   0  0  0  0  0  0
  -28.1960  -25.7363   20.3273 O   0  0  0  0  0  0
  -26.5729  -34.8881   22.4595 O   0  0  0  0  0  0
  -23.5716  -32.1186   23.6708 O   0  0  0  0  0  0
  -28.9578  -21.1927   19.8839 C   0  0  0  0  0  0
  -28.7094  -21.0704   22.5084 C   0  0  0  0  0  0
  -28.5766  -22.5593   20.5161 C   0  0  0  0  0  0
  -28.4822  -22.3659   21.9189 C   0  0  0  0  0  0
  -29.2013  -19.8190   20.5594 C   0  0  0  0  0  0
  -28.0712  -23.3623   24.0789 C   0  0  0  0  0  0
  -28.0738  -24.1329   19.8575 C   0  0  0  0  0  0
  -29.7936  -18.2444   20.0068 C   0  0  0  0  0  0
  -29.0372  -19.8908   21.8968 N   0  0  0  0  0  0
  -29.6427  -16.6219   20.4624 N   0  0  0  0  0  0
  -28.1328  -23.4770   22.6609 O   0  0  0  0  0  0
  -31.4529  -13.0632   19.2113 H   0  0  0  0  0  0
  -30.5128  -11.9600   20.1626 H   0  0  0  0  0  0
  -29.9327  -11.7587   17.7212 H   0  0  0  0  0  0
  -29.5633  -13.4647   17.6500 H   0  0  0  0  0  0
  -28.0565  -11.2843   19.1122 H   0  0  0  0  0  0
  -27.4240  -12.3329   17.8680 H   0  0  0  0  0  0
  -27.5170  -14.2443   19.3197 H   0  0  0  0  0  0
  -28.8180  -12.5620   21.5143 H   0  0  0  0  0  0
  -28.2607  -14.2102   21.6890 H   0  0  0  0  0  0
  -25.2774   -9.5696   22.4775 H   0  0  0  0  0  0
  -24.0015   -7.4639   22.7474 H   0  0  0  0  0  0
  -21.0857   -8.8791   19.8954 H   0  0  0  0  0  0
  -22.3712  -10.9689   19.6182 H   0  0  0  0  0  0
  -21.2005   -7.6154   23.9720 H   0  0  0  0  0  0
  -21.1475   -6.0526   25.9078 H   0  0  0  0  0  0
  -22.0595   -2.7614   23.2849 H   0  0  0  0  0  0
  -22.4040  -11.9821   22.4845 H   0  0  0  0  0  0
  -21.1038  -13.1179   22.2692 H   0  0  0  0  0  0
  -24.6245  -15.8458   20.5277 H   0  0  0  0  0  0
  -26.2359  -15.6427   20.0648 H   0  0  0  0  0  0
  -26.7390  -32.5082   23.0857 H   0  0  0  0  0  0
  -25.0080  -33.9466   25.0164 H   0  0  0  0  0  0
  -22.8000  -31.2603   21.3393 H   0  0  0  0  0  0
  -23.3761  -35.9499   23.3299 H   0  0  0  0  0  0
  -24.3555  -36.8843   22.2070 H   0  0  0  0  0  0
  -23.7231  -37.6355   23.6729 H   0  0  0  0  0  0
  -26.2483  -31.3446   20.6278 H   0  0  0  0  0  0
  -26.9106  -30.6617   22.0696 H   0  0  0  0  0  0
  -28.1354  -28.5327   21.3246 H   0  0  0  0  0  0
  -25.8724  -25.7226   18.9731 H   0  0  0  0  0  0
  -24.0210  -27.2696   18.9197 H   0  0  0  0  0  0
  -23.8865  -30.5087   19.3828 H   0  0  0  0  0  0
  -22.8383  -29.1972   19.8214 H   0  0  0  0  0  0
  -25.1329  -36.1727   25.0788 H   0  0  0  0  0  0
  -21.0051  -28.3371   24.1301 H   0  0  0  0  0  0
  -20.5688  -26.2382   23.3654 H   0  0  0  0  0  0
  -21.6663  -26.7413   22.1209 H   0  0  0  0  0  0
  -19.6936  -25.6275   21.1282 H   0  0  0  0  0  0
  -19.6707  -27.3166   20.6738 H   0  0  0  0  0  0
  -17.4225  -26.6708   21.4020 H   0  0  0  0  0  0
  -18.0333  -26.0100   22.9028 H   0  0  0  0  0  0
  -19.7986  -30.7329   24.2182 H   0  0  0  0  0  0
  -17.5055  -31.6282   24.5169 H   0  0  0  0  0  0
  -15.5389  -30.2978   23.7706 H   0  0  0  0  0  0
  -15.8710  -28.0812   22.7119 H   0  0  0  0  0  0
  -24.5872  -30.7142   25.7644 H   0  0  0  0  0  0
  -24.8855  -32.3018   26.4627 H   0  0  0  0  0  0
  -25.7884  -30.9056   27.0219 H   0  0  0  0  0  0
  -26.3184  -29.6531   24.1480 H   0  0  0  0  0  0
  -27.3980  -29.7297   25.5180 H   0  0  0  0  0  0
  -27.9132  -30.4059   23.9952 H   0  0  0  0  0  0
  -27.2599  -33.3727   26.1910 H   0  0  0  0  0  0
  -28.3921  -32.6839   25.0368 H   0  0  0  0  0  0
  -28.0635  -31.8612   26.5540 H   0  0  0  0  0  0
  -28.2562  -38.0051   24.7504 H   0  0  0  0  0  0
  -28.1054  -36.2574   24.6311 H   0  0  0  0  0  0
  -27.2277  -37.1400   25.8879 H   0  0  0  0  0  0
  -20.9622  -29.8711   21.6622 H   0  0  0  0  0  0
  -26.0101  -38.2740   24.1432 H   0  0  0  0  0  0
  -29.0628  -21.1982   18.8075 H   0  0  0  0  0  0
  -28.6145  -20.9444   23.5761 H   0  0  0  0  0  0
  -27.8302  -24.3339   24.5100 H   0  0  0  0  0  0
  -29.0278  -23.0493   24.5000 H   0  0  0  0  0  0
  -27.2922  -22.6664   24.3929 H   0  0  0  0  0  0
  -27.0044  -23.9803   19.7261 H   0  0  0  0  0  0
  -28.4674  -24.1293   18.8415 H   0  0  0  0  0  0
  -30.8730  -18.3910   19.9669 H   0  0  0  0  0  0
  -29.5006  -18.2309   18.9567 H   0  0  0  0  0  0
  -28.6956  -16.4393   20.7584 H   0  0  0  0  0  0
  1 25  1  0  0  0
  1 30  2  0  0  0
  1 80  1  0  0  0
  2  3  1  0  0  0
  2 25  1  0  0  0
  2 82  1  0  0  0
  2 83  1  0  0  0
  3  4  1  0  0  0
  3 84  1  0  0  0
  3 85  1  0  0  0
  4  5  1  0  0  0
  4 86  1  0  0  0
  4 87  1  0  0  0
  5  6  1  0  0  0
  5 26  1  0  0  0
  5 88  1  0  0  0
  6 25  1  0  0  0
  6 89  1  0  0  0
  6 90  1  0  0  0
  7  8  2  0  0  0
  7 26  1  0  0  0
  7 29  1  0  0  0
  8  9  1  0  0  0
  8 22  1  0  0  0
  9 10  1  0  0  0
  9 27  2  0  0  0
 10 11  2  0  0  0
 10 15  1  0  0  0
 11 12  1  0  0  0
 11 91  1  0  0  0
 12 13  2  0  0  0
 12 92  1  0  0  0
 13 14  1  0  0  0
 13 31  1  0  0  0
 14 15  2  0  0  0
 14 93  1  0  0  0
 15 94  1  0  0  0
 16 17  2  0  0  0
 16 21  1  0  0  0
 16 31  1  0  0  0
 17 18  1  0  0  0
 17 95  1  0  0  0
 18 19  2  0  0  0
 18 96  1  0  0  0
 19 20  1  0  0  0
 19 24  1  0  0  0
 20 21  2  0  0  0
 20 97  1  0  0  0
 21 23  1  0  0  0
 22 28  1  0  0  0
 22 32  2  0  0  0
 26 27  1  0  0  0
 28 98  1  0  0  0
 28 99  1  0  0  0
 29100  1  0  0  0
 29101  1  0  0  0
 33 34  1  0  0  0
 33 66  1  0  0  0
 33 70  2  0  0  0
 34 36  1  0  0  0
 34 59  1  0  0  0
 34102  1  0  0  0
 35 44  2  0  0  0
 35 45  1  0  0  0
 35 68  1  0  0  0
 36 56  1  0  0  0
 36103  1  0  0  0
 37 39  1  0  0  0
 37 47  1  0  0  0
 37 66  1  0  0  0
 37104  1  0  0  0
 38 43  2  0  0  0
 38 46  1  0  0  0
 38 47  1  0  0  0
 39 64  1  0  0  0
 39 67  2  0  0  0
 40 52  1  0  0  0
 40 53  2  0  0  0
 40 58  1  0  0  0
 41105  1  0  0  0
 41106  1  0  0  0
 41107  1  0  0  0
 41 48  1  0  0  0
 42 43  1  0  0  0
 42 66  1  0  0  0
 42108  1  0  0  0
 42109  1  0  0  0
 43 44  1  0  0  0
 44110  1  0  0  0
 45 46  2  0  0  0
 45111  1  0  0  0
 46112  1  0  0  0
 47113  1  0  0  0
 47114  1  0  0  0
 48 56  1  0  0  0
 48 65  1  0  0  0
 48115  1  0  0  0
 49 50  1  0  0  0
 49 53  1  0  0  0
 49 64  1  0  0  0
 49116  1  0  0  0
 50 51  1  0  0  0
 50117  1  0  0  0
 50118  1  0  0  0
 51 52  1  0  0  0
 51119  1  0  0  0
 51120  1  0  0  0
 52121  1  0  0  0
 52122  1  0  0  0
 53 54  1  0  0  0
 54 55  2  0  0  0
 54123  1  0  0  0
 55 57  1  0  0  0
 55124  1  0  0  0
 56 69  2  0  0  0
 57 58  2  0  0  0
 57125  1  0  0  0
 58126  1  0  0  0
 59 60  1  0  0  0
 59 61  1  0  0  0
 59 62  1  0  0  0
 60127  1  0  0  0
 60128  1  0  0  0
 60129  1  0  0  0
 61130  1  0  0  0
 61131  1  0  0  0
 61132  1  0  0  0
 62133  1  0  0  0
 62134  1  0  0  0
 62135  1  0  0  0
 63 65  1  0  0  0
 63136  1  0  0  0
 63137  1  0  0  0
 63138  1  0  0  0
 64139  1  0  0  0
 65140  1  0  0  0
 68 77  1  0  0  0
 71 73  2  0  0  0
 71 75  1  0  0  0
 71141  1  0  0  0
 72 74  2  0  0  0
 72 79  1  0  0  0
 72142  1  0  0  0
 73 74  1  0  0  0
 73 77  1  0  0  0
 74 81  1  0  0  0
 75 78  1  0  0  0
 75 79  2  0  0  0
 76 81  1  0  0  0
 76143  1  0  0  0
 76144  1  0  0  0
 76145  1  0  0  0
 77146  1  0  0  0
 77147  1  0  0  0
 78 80  1  0  0  0
 78148  1  0  0  0
 78149  1  0  0  0
 80150  1  0  0  0
M  ISO  4   1 100  68 101  77 101  80 100
M  END
> <chiral flag>
0

> <version>
0

> <s_m_source_file>
/data/baiqing/PycharmProjects/Reinvent-master-3.2/result/LINK_invent/BTK/process_docking_weight1_custom_sum_contain_oxygen_bond_distance_aromatic_linkinvent_7_9_3/rearranged_h_0036.sdf

> <i_m_source_file_index>
83

> <r_mmod_Potential_Energy-OPLS-2005>
1220.77185058594

> <r_mmod_Stretch_Energy-OPLS-2005>
643.668518066406

> <r_mmod_Bend_Energy-OPLS-2005>
452.094085693359

> <r_mmod_Torsional_Energy-OPLS-2005>
218.475250244141

> <r_mmod_Improper_Torsional_Energy-OPLS-2005>
5.78588438034058

> <r_mmod_Van_der_Waal_Energy-OPLS-2005>
135.144653320312

> <r_mmod_Electrostatic_Energy-OPLS-2005>
-534.509033203125

> <r_mmod_Solvation_Energy-OPLS-2005>
-242.881439208984

> <b_mmod_Minimization_Converged-OPLS-2005>
0

> <r_mmod_RMS_Derivative-OPLS-2005>
0.99880051612854

$$$$
84
                    3D
 Structure written by MMmdl.
171180  0  0  1  0            999 V2000
  -30.7884  -14.3938   20.6615 C   0  0  0  0  0  0
  -30.4130  -12.3030   19.4036 C   0  0  0  0  0  0
  -29.4822  -12.5184   18.1967 C   0  0  0  0  0  0
  -28.0093  -12.3698   18.6178 C   0  0  0  0  0  0
  -27.6635  -13.2100   19.8754 C   0  0  2  0  0  0
  -28.7062  -12.9900   20.9954 C   0  0  0  0  0  0
  -25.2588  -13.8174   20.5674 C   0  0  0  0  0  0
  -24.1835  -13.0444   20.9168 C   0  0  0  0  0  0
  -24.6397  -11.6915   20.8733 C   0  0  0  0  0  0
  -23.9067  -10.4297   21.0408 C   0  0  0  0  0  0
  -24.3614   -9.4209   21.9186 C   0  0  0  0  0  0
  -23.6289   -8.2245   22.0754 C   0  0  0  0  0  0
  -22.4272   -8.0285   21.3542 C   0  0  0  0  0  0
  -21.9914   -9.0255   20.4641 C   0  0  0  0  0  0
  -22.7246  -10.2133   20.3050 C   0  0  0  0  0  0
  -21.6851   -6.0741   22.5281 C   0  0  0  0  0  0
  -21.4010   -6.5639   23.8210 C   0  0  0  0  0  0
  -21.3655   -5.6787   24.9172 C   0  0  0  0  0  0
  -21.6045   -4.3053   24.7220 C   0  0  0  0  0  0
  -21.8820   -3.8150   23.4340 C   0  0  0  0  0  0
  -21.9190   -4.6968   22.3402 C   0  0  0  0  0  0
  -22.7857  -13.5241   21.1837 C   0  0  0  0  0  0
  -22.1660   -4.2156   21.0979 F   0  0  0  0  0  0
  -21.5627   -3.4538   25.7734 F   0  0  0  0  0  0
  -30.0468  -13.2728   20.4483 N   0  0  0  0  0  0
  -26.3037  -12.9353   20.3383 N   0  0  0  0  0  0
  -25.9327  -11.6511   20.5780 N   0  0  0  0  0  0
  -22.0497  -12.8221   22.0388 N   0  0  0  0  0  0
  -25.4312  -15.1891   20.4085 N   0  0  0  0  0  0
  -31.8268  -14.6389   20.0427 O   0  0  0  0  0  0
  -21.6635   -6.8883   21.4242 O   0  0  0  0  0  0
  -22.3547  -14.5558   20.6709 O   0  0  0  0  0  0
  -24.6191  -31.8710   23.2147 C   0  0  0  0  0  0
  -25.9091  -32.4826   23.8436 C   0  0  1  0  0  0
  -27.2177  -27.4191   20.0708 C   0  0  0  0  0  0
  -25.5953  -33.8625   24.2371 N   0  0  0  0  0  0
  -23.4039  -30.5028   21.5577 C   0  0  2  0  0  0
  -24.8441  -28.9847   20.1114 C   0  0  0  0  0  0
  -22.7422  -29.4694   22.4992 C   0  0  0  0  0  0
  -18.0277  -28.1381   22.8490 C   0  0  0  0  0  0
  -24.1490  -36.7294   23.2638 C   0  0  0  0  0  0
  -25.9413  -30.8286   21.3757 C   0  0  0  0  0  0
  -26.0133  -29.4677   20.7127 C   0  0  0  0  0  0
  -27.2028  -28.6928   20.6942 C   0  0  0  0  0  0
  -26.0185  -26.9833   19.4436 C   0  0  0  0  0  0
  -24.8428  -27.7400   19.4766 C   0  0  0  0  0  0
  -23.6105  -29.8530   20.1678 C   0  0  0  0  0  0
  -25.4112  -36.3108   24.0346 C   0  0  1  0  0  0
  -20.5869  -28.3674   23.1295 C   0  0  2  0  0  0
  -20.6768  -26.9408   22.5406 C   0  0  0  0  0  0
  -19.5747  -26.6385   21.5204 C   0  0  0  0  0  0
  -18.1919  -26.7933   22.1604 C   0  0  0  0  0  0
  -19.1530  -28.8841   23.2894 C   0  0  0  0  0  0
  -18.9459  -30.1444   23.8909 C   0  0  0  0  0  0
  -17.6462  -30.6583   24.0569 C   0  0  0  0  0  0
  -25.9038  -34.9474   23.5145 C   0  0  0  0  0  0
  -16.5354  -29.9085   23.6335 C   0  0  0  0  0  0
  -16.7264  -28.6499   23.0362 C   0  0  0  0  0  0
  -26.4497  -31.6589   25.0760 C   0  0  0  0  0  0
  -25.3758  -31.3720   26.1512 C   0  0  0  0  0  0
  -27.0296  -30.3012   24.6147 C   0  0  0  0  0  0
  -27.6102  -32.4279   25.7497 C   0  0  0  0  0  0
  -27.5575  -37.1812   24.8475 C   0  0  0  0  0  0
  -21.4151  -29.3055   22.3717 N   0  0  0  0  0  0
  -26.4290  -37.3788   23.9411 N   0  0  0  0  0  0
  -24.6731  -31.0807   22.1063 N   0  0  0  0  0  0
  -23.4194  -28.8224   23.3021 O   0  0  0  0  0  0
  -28.3555  -26.6121   20.0987 O   0  0  0  0  0  0
  -26.5570  -34.8921   22.4687 O   0  0  0  0  0  0
  -23.5376  -32.1484   23.7522 O   0  0  0  0  0  0
  -32.2681  -18.2360   21.1381 C   0  0  0  0  0  0
  -29.9963  -18.4610   21.8836 C   0  0  0  0  0  0
  -31.1343  -17.6534   21.7360 C   0  0  0  0  0  0
  -32.2547  -19.6011   20.7647 C   0  0  0  0  0  0
  -31.0866  -20.3609   21.0525 C   0  0  0  0  0  0
  -30.1577  -22.6279   21.8923 C   0  0  0  0  0  0
  -30.3942  -22.1313   19.3500 C   0  0  0  0  0  0
  -29.7479  -24.0765   21.5327 C   0  0  0  0  0  0
  -30.0142  -23.6057   19.0826 C   0  0  0  0  0  0
  -30.9514  -21.8775   20.7737 C   0  0  2  0  0  0
  -29.0386  -24.0635   20.1748 C   0  0  2  0  0  0
  -33.8139  -19.4157   18.7684 C   0  0  0  0  0  0
  -34.7004  -20.2365   21.0002 C   0  0  0  0  0  0
  -31.1885  -16.2282   22.2979 C   0  0  0  0  0  0
  -28.0757  -25.2203   19.8307 C   0  0  0  0  0  0
  -33.4869  -20.1817   20.0613 C   0  0  0  0  0  0
  -29.9699  -19.7651   21.5378 N   0  0  0  0  0  0
  -30.3641  -15.2073   21.6396 N   0  0  0  0  0  0
  -31.4559  -12.3915   19.0951 H   0  0  0  0  0  0
  -30.3070  -11.2880   19.7895 H   0  0  0  0  0  0
  -29.7168  -11.8035   17.4068 H   0  0  0  0  0  0
  -29.6465  -13.5104   17.7732 H   0  0  0  0  0  0
  -27.8255  -11.3129   18.8166 H   0  0  0  0  0  0
  -27.3515  -12.6416   17.7913 H   0  0  0  0  0  0
  -27.7099  -14.2586   19.5807 H   0  0  0  0  0  0
  -28.6722  -11.9572   21.3462 H   0  0  0  0  0  0
  -28.4548  -13.5996   21.8635 H   0  0  0  0  0  0
  -25.2761   -9.5682   22.4759 H   0  0  0  0  0  0
  -23.9997   -7.4638   22.7472 H   0  0  0  0  0  0
  -21.0846   -8.8774   19.8942 H   0  0  0  0  0  0
  -22.3714  -10.9668   19.6146 H   0  0  0  0  0  0
  -21.1999   -7.6145   23.9720 H   0  0  0  0  0  0
  -21.1472   -6.0518   25.9075 H   0  0  0  0  0  0
  -22.0600   -2.7613   23.2844 H   0  0  0  0  0  0
  -22.4094  -11.9860   22.4749 H   0  0  0  0  0  0
  -21.1118  -13.1255   22.2610 H   0  0  0  0  0  0
  -24.6675  -15.8483   20.5128 H   0  0  0  0  0  0
  -26.2927  -15.6265   20.1052 H   0  0  0  0  0  0
  -26.7165  -32.5523   23.1199 H   0  0  0  0  0  0
  -25.0198  -33.9799   25.0577 H   0  0  0  0  0  0
  -22.6931  -31.3209   21.4260 H   0  0  0  0  0  0
  -23.3770  -35.9602   23.3275 H   0  0  0  0  0  0
  -24.3591  -36.8924   22.2054 H   0  0  0  0  0  0
  -23.7207  -37.6478   23.6665 H   0  0  0  0  0  0
  -26.0654  -31.5985   20.6126 H   0  0  0  0  0  0
  -26.8248  -30.8700   22.0007 H   0  0  0  0  0  0
  -28.0997  -29.0600   21.1732 H   0  0  0  0  0  0
  -25.9355  -26.0469   18.9149 H   0  0  0  0  0  0
  -23.9469  -27.3654   19.0009 H   0  0  0  0  0  0
  -23.7205  -30.6371   19.4172 H   0  0  0  0  0  0
  -22.7312  -29.2811   19.8660 H   0  0  0  0  0  0
  -25.1283  -36.1972   25.0834 H   0  0  0  0  0  0
  -20.9958  -28.3239   24.1415 H   0  0  0  0  0  0
  -20.5662  -26.2291   23.3604 H   0  0  0  0  0  0
  -21.6636  -26.7440   22.1202 H   0  0  0  0  0  0
  -19.6911  -25.6297   21.1230 H   0  0  0  0  0  0
  -19.6690  -27.3201   20.6740 H   0  0  0  0  0  0
  -17.4198  -26.6713   21.3992 H   0  0  0  0  0  0
  -18.0299  -26.0050   22.8969 H   0  0  0  0  0  0
  -19.7932  -30.7258   24.2288 H   0  0  0  0  0  0
  -17.5015  -31.6267   24.5161 H   0  0  0  0  0  0
  -15.5357  -30.2994   23.7653 H   0  0  0  0  0  0
  -15.8661  -28.0821   22.7083 H   0  0  0  0  0  0
  -24.5953  -30.7027   25.7875 H   0  0  0  0  0  0
  -24.8935  -32.2885   26.4927 H   0  0  0  0  0  0
  -25.8122  -30.8935   27.0289 H   0  0  0  0  0  0
  -26.2830  -29.6778   24.1214 H   0  0  0  0  0  0
  -27.4054  -29.7246   25.4607 H   0  0  0  0  0  0
  -27.8689  -30.4292   23.9305 H   0  0  0  0  0  0
  -27.2798  -33.3644   26.1996 H   0  0  0  0  0  0
  -28.3959  -32.6700   25.0329 H   0  0  0  0  0  0
  -28.0702  -31.8424   26.5464 H   0  0  0  0  0  0
  -28.2618  -38.0082   24.7478 H   0  0  0  0  0  0
  -28.1048  -36.2612   24.6355 H   0  0  0  0  0  0
  -27.2297  -37.1524   25.8881 H   0  0  0  0  0  0
  -20.9319  -29.8805   21.6962 H   0  0  0  0  0  0
  -26.0183  -38.2870   24.1391 H   0  0  0  0  0  0
  -33.1559  -17.6392   20.9859 H   0  0  0  0  0  0
  -29.0958  -18.0667   22.3312 H   0  0  0  0  0  0
  -29.2318  -22.0959   22.1110 H   0  0  0  0  0  0
  -30.7288  -22.6155   22.8210 H   0  0  0  0  0  0
  -31.1132  -21.7896   18.6045 H   0  0  0  0  0  0
  -29.5075  -21.5118   19.2062 H   0  0  0  0  0  0
  -30.6194  -24.7310   21.4988 H   0  0  0  0  0  0
  -29.0860  -24.4749   22.3034 H   0  0  0  0  0  0
  -29.5536  -23.6826   18.0967 H   0  0  0  0  0  0
  -30.8988  -24.2437   19.0633 H   0  0  0  0  0  0
  -31.9388  -22.3315   20.8217 H   0  0  0  0  0  0
  -28.3258  -23.2382   20.2392 H   0  0  0  0  0  0
  -32.9684  -19.4313   18.0799 H   0  0  0  0  0  0
  -34.0719  -18.3740   18.9565 H   0  0  0  0  0  0
  -34.6590  -19.8689   18.2493 H   0  0  0  0  0  0
  -34.4894  -20.8416   21.8826 H   0  0  0  0  0  0
  -35.5608  -20.6823   20.4997 H   0  0  0  0  0  0
  -34.9984  -19.2439   21.3384 H   0  0  0  0  0  0
  -30.8733  -16.2751   23.3410 H   0  0  0  0  0  0
  -32.2273  -15.8930   22.3355 H   0  0  0  0  0  0
  -27.1783  -24.9627   20.3992 H   0  0  0  0  0  0
  -27.8263  -25.1166   18.7735 H   0  0  0  0  0  0
  -33.2923  -21.1996   19.7355 H   0  0  0  0  0  0
  -29.5105  -14.9347   22.1040 H   0  0  0  0  0  0
  1 25  1  0  0  0
  1 30  2  0  0  0
  1 88  1  0  0  0
  2  3  1  0  0  0
  2 25  1  0  0  0
  2 89  1  0  0  0
  2 90  1  0  0  0
  3  4  1  0  0  0
  3 91  1  0  0  0
  3 92  1  0  0  0
  4  5  1  0  0  0
  4 93  1  0  0  0
  4 94  1  0  0  0
  5  6  1  0  0  0
  5 26  1  0  0  0
  5 95  1  0  0  0
  6 25  1  0  0  0
  6 96  1  0  0  0
  6 97  1  0  0  0
  7  8  2  0  0  0
  7 26  1  0  0  0
  7 29  1  0  0  0
  8  9  1  0  0  0
  8 22  1  0  0  0
  9 10  1  0  0  0
  9 27  2  0  0  0
 10 11  2  0  0  0
 10 15  1  0  0  0
 11 12  1  0  0  0
 11 98  1  0  0  0
 12 13  2  0  0  0
 12 99  1  0  0  0
 13 14  1  0  0  0
 13 31  1  0  0  0
 14 15  2  0  0  0
 14100  1  0  0  0
 15101  1  0  0  0
 16 17  2  0  0  0
 16 21  1  0  0  0
 16 31  1  0  0  0
 17 18  1  0  0  0
 17102  1  0  0  0
 18 19  2  0  0  0
 18103  1  0  0  0
 19 20  1  0  0  0
 19 24  1  0  0  0
 20 21  2  0  0  0
 20104  1  0  0  0
 21 23  1  0  0  0
 22 28  1  0  0  0
 22 32  2  0  0  0
 26 27  1  0  0  0
 28105  1  0  0  0
 28106  1  0  0  0
 29107  1  0  0  0
 29108  1  0  0  0
 33 34  1  0  0  0
 33 66  1  0  0  0
 33 70  2  0  0  0
 34 36  1  0  0  0
 34 59  1  0  0  0
 34109  1  0  0  0
 35 44  2  0  0  0
 35 45  1  0  0  0
 35 68  1  0  0  0
 36 56  1  0  0  0
 36110  1  0  0  0
 37 39  1  0  0  0
 37 47  1  0  0  0
 37 66  1  0  0  0
 37111  1  0  0  0
 38 43  2  0  0  0
 38 46  1  0  0  0
 38 47  1  0  0  0
 39 64  1  0  0  0
 39 67  2  0  0  0
 40 52  1  0  0  0
 40 53  2  0  0  0
 40 58  1  0  0  0
 41112  1  0  0  0
 41113  1  0  0  0
 41114  1  0  0  0
 41 48  1  0  0  0
 42 43  1  0  0  0
 42 66  1  0  0  0
 42115  1  0  0  0
 42116  1  0  0  0
 43 44  1  0  0  0
 44117  1  0  0  0
 45 46  2  0  0  0
 45118  1  0  0  0
 46119  1  0  0  0
 47120  1  0  0  0
 47121  1  0  0  0
 48 56  1  0  0  0
 48 65  1  0  0  0
 48122  1  0  0  0
 49 50  1  0  0  0
 49 53  1  0  0  0
 49 64  1  0  0  0
 49123  1  0  0  0
 50 51  1  0  0  0
 50124  1  0  0  0
 50125  1  0  0  0
 51 52  1  0  0  0
 51126  1  0  0  0
 51127  1  0  0  0
 52128  1  0  0  0
 52129  1  0  0  0
 53 54  1  0  0  0
 54 55  2  0  0  0
 54130  1  0  0  0
 55 57  1  0  0  0
 55131  1  0  0  0
 56 69  2  0  0  0
 57 58  2  0  0  0
 57132  1  0  0  0
 58133  1  0  0  0
 59 60  1  0  0  0
 59 61  1  0  0  0
 59 62  1  0  0  0
 60134  1  0  0  0
 60135  1  0  0  0
 60136  1  0  0  0
 61137  1  0  0  0
 61138  1  0  0  0
 61139  1  0  0  0
 62140  1  0  0  0
 62141  1  0  0  0
 62142  1  0  0  0
 63 65  1  0  0  0
 63143  1  0  0  0
 63144  1  0  0  0
 63145  1  0  0  0
 64146  1  0  0  0
 65147  1  0  0  0
 68 85  1  0  0  0
 71 73  2  0  0  0
 71 74  1  0  0  0
 71148  1  0  0  0
 72 73  1  0  0  0
 72 87  2  0  0  0
 72149  1  0  0  0
 73 84  1  0  0  0
 74 75  2  0  0  0
 74 86  1  0  0  0
 75 87  1  0  0  0
 75 80  1  0  0  0
 76 78  1  0  0  0
 76 80  1  0  0  0
 76150  1  0  0  0
 76151  1  0  0  0
 77 79  1  0  0  0
 77 80  1  0  0  0
 77152  1  0  0  0
 77153  1  0  0  0
 78 81  1  0  0  0
 78154  1  0  0  0
 78155  1  0  0  0
 79 81  1  0  0  0
 79156  1  0  0  0
 79157  1  0  0  0
 80158  1  0  0  0
 81 85  1  0  0  0
 81159  1  0  0  0
 82160  1  0  0  0
 82161  1  0  0  0
 82162  1  0  0  0
 82 86  1  0  0  0
 83 86  1  0  0  0
 83163  1  0  0  0
 83164  1  0  0  0
 83165  1  0  0  0
 84 88  1  0  0  0
 84166  1  0  0  0
 84167  1  0  0  0
 85168  1  0  0  0
 85169  1  0  0  0
 86170  1  0  0  0
 88171  1  0  0  0
M  ISO  4   1 100  68 101  85 101  88 100
M  END
> <chiral flag>
0

> <version>
0

> <s_m_source_file>
/data/baiqing/PycharmProjects/Reinvent-master-3.2/result/LINK_invent/BTK/process_docking_weight1_custom_sum_contain_oxygen_bond_distance_aromatic_linkinvent_7_9_3/rearranged_h_0036.sdf

> <i_m_source_file_index>
84

> <r_mmod_Potential_Energy-OPLS-2005>
-88.4494476318359

> <r_mmod_Stretch_Energy-OPLS-2005>
42.8322525024414

> <r_mmod_Bend_Energy-OPLS-2005>
134.22119140625

> <r_mmod_Torsional_Energy-OPLS-2005>
223.184768676758

> <r_mmod_Improper_Torsional_Energy-OPLS-2005>
2.81336236000061

> <r_mmod_Van_der_Waal_Energy-OPLS-2005>
179.438629150391

> <r_mmod_Electrostatic_Energy-OPLS-2005>
-469.682769775391

> <r_mmod_Solvation_Energy-OPLS-2005>
-214.980407714844

> <b_mmod_Minimization_Converged-OPLS-2005>
0

> <r_mmod_RMS_Derivative-OPLS-2005>
1.2253600358963

$$$$
85
                    3D
 Structure written by MMmdl.
162170  0  0  1  0            999 V2000
  -30.6737  -14.5052   20.5602 C   0  0  0  0  0  0
  -30.4274  -12.3246   19.4263 C   0  0  0  0  0  0
  -29.4951  -12.5034   18.2092 C   0  0  0  0  0  0
  -28.0166  -12.3592   18.6228 C   0  0  0  0  0  0
  -27.6585  -13.2061   19.8734 C   0  0  2  0  0  0
  -28.7009  -12.9976   20.9951 C   0  0  0  0  0  0
  -25.2572  -13.8154   20.5689 C   0  0  0  0  0  0
  -24.1825  -13.0429   20.9185 C   0  0  0  0  0  0
  -24.6385  -11.6898   20.8742 C   0  0  0  0  0  0
  -23.9055  -10.4287   21.0409 C   0  0  0  0  0  0
  -24.3611   -9.4200   21.9181 C   0  0  0  0  0  0
  -23.6289   -8.2235   22.0749 C   0  0  0  0  0  0
  -22.4269   -8.0278   21.3543 C   0  0  0  0  0  0
  -21.9908   -9.0247   20.4644 C   0  0  0  0  0  0
  -22.7234  -10.2127   20.3053 C   0  0  0  0  0  0
  -21.6850   -6.0737   22.5286 C   0  0  0  0  0  0
  -21.4015   -6.5642   23.8219 C   0  0  0  0  0  0
  -21.3655   -5.6791   24.9178 C   0  0  0  0  0  0
  -21.6041   -4.3055   24.7230 C   0  0  0  0  0  0
  -21.8818   -3.8151   23.4351 C   0  0  0  0  0  0
  -21.9192   -4.6966   22.3407 C   0  0  0  0  0  0
  -22.7848  -13.5219   21.1850 C   0  0  0  0  0  0
  -22.1658   -4.2154   21.0982 F   0  0  0  0  0  0
  -21.5627   -3.4536   25.7739 F   0  0  0  0  0  0
  -30.0271  -13.3130   20.4406 N   0  0  0  0  0  0
  -26.3003  -12.9320   20.3367 N   0  0  0  0  0  0
  -25.9311  -11.6482   20.5778 N   0  0  0  0  0  0
  -22.0494  -12.8212   22.0412 N   0  0  0  0  0  0
  -25.4304  -15.1872   20.4096 N   0  0  0  0  0  0
  -31.8121  -14.6942   20.1230 O   0  0  0  0  0  0
  -21.6631   -6.8877   21.4246 O   0  0  0  0  0  0
  -22.3525  -14.5520   20.6692 O   0  0  0  0  0  0
  -24.6173  -31.8655   23.2074 C   0  0  0  0  0  0
  -25.9057  -32.4805   23.8374 C   0  0  1  0  0  0
  -27.2370  -27.4081   20.0958 C   0  0  0  0  0  0
  -25.5906  -33.8605   24.2307 N   0  0  0  0  0  0
  -23.4054  -30.4885   21.5487 C   0  0  2  0  0  0
  -24.8493  -28.9477   20.1174 C   0  0  0  0  0  0
  -22.7421  -29.4651   22.4985 C   0  0  0  0  0  0
  -18.0281  -28.1377   22.8492 C   0  0  0  0  0  0
  -24.1490  -36.7307   23.2639 C   0  0  0  0  0  0
  -25.9361  -30.8228   21.3631 C   0  0  0  0  0  0
  -26.0106  -29.4545   20.7112 C   0  0  0  0  0  0
  -27.2026  -28.6924   20.6955 C   0  0  0  0  0  0
  -26.0473  -26.9130   19.5126 C   0  0  0  0  0  0
  -24.8635  -27.6768   19.5174 C   0  0  0  0  0  0
  -23.6133  -29.8187   20.1644 C   0  0  0  0  0  0
  -25.4115  -36.3107   24.0335 C   0  0  1  0  0  0
  -20.5870  -28.3667   23.1317 C   0  0  2  0  0  0
  -20.6773  -26.9402   22.5421 C   0  0  0  0  0  0
  -19.5751  -26.6387   21.5217 C   0  0  0  0  0  0
  -18.1927  -26.7924   22.1622 C   0  0  0  0  0  0
  -19.1530  -28.8840   23.2898 C   0  0  0  0  0  0
  -18.9454  -30.1443   23.8908 C   0  0  0  0  0  0
  -17.6457  -30.6581   24.0568 C   0  0  0  0  0  0
  -25.9043  -34.9470   23.5124 C   0  0  0  0  0  0
  -16.5349  -29.9083   23.6330 C   0  0  0  0  0  0
  -16.7270  -28.6501   23.0350 C   0  0  0  0  0  0
  -26.4479  -31.6594   25.0711 C   0  0  0  0  0  0
  -25.3741  -31.3705   26.1458 C   0  0  0  0  0  0
  -27.0315  -30.3038   24.6096 C   0  0  0  0  0  0
  -27.6050  -32.4319   25.7474 C   0  0  0  0  0  0
  -27.5586  -37.1810   24.8468 C   0  0  0  0  0  0
  -21.4149  -29.3028   22.3717 N   0  0  0  0  0  0
  -26.4305  -37.3791   23.9407 N   0  0  0  0  0  0
  -24.6714  -31.0741   22.0980 N   0  0  0  0  0  0
  -23.4182  -28.8203   23.3047 O   0  0  0  0  0  0
  -28.4343  -26.7089   20.0990 O   0  0  0  0  0  0
  -26.5604  -34.8929   22.4686 O   0  0  0  0  0  0
  -23.5360  -32.1421   23.7457 O   0  0  0  0  0  0
  -28.1180  -24.5214   21.9653 C   0  0  0  0  0  0
  -27.9420  -23.4821   22.8968 C   0  0  0  0  0  0
  -28.3746  -22.8626   20.2042 C   0  0  0  0  0  0
  -28.3256  -24.2270   20.6045 C   0  0  0  0  0  0
  -27.9659  -22.1275   22.4978 C   0  0  0  0  0  0
  -28.1964  -21.7979   21.1334 C   0  0  0  0  0  0
  -26.2193  -20.9939   23.9513 C   0  0  0  0  0  0
  -27.7019  -21.0761   23.5699 C   0  0  0  0  0  0
  -28.1461  -20.3351   20.6398 C   0  0  0  0  0  0
  -28.5389  -25.3602   19.5865 C   0  0  0  0  0  0
  -29.3823  -19.4309   20.9417 C   0  0  0  0  0  0
  -29.0853  -17.9043   20.8082 C   0  0  0  0  0  0
  -30.2880  -16.9560   21.0919 C   0  0  0  0  0  0
  -29.9252  -15.5239   21.0376 N   0  0  0  0  0  0
  -31.4706  -12.4367   19.1248 H   0  0  0  0  0  0
  -30.3421  -11.3157   19.8322 H   0  0  0  0  0  0
  -29.7397  -11.7727   17.4369 H   0  0  0  0  0  0
  -29.6560  -13.4858   17.7620 H   0  0  0  0  0  0
  -27.8327  -11.3038   18.8275 H   0  0  0  0  0  0
  -27.3649  -12.6237   17.7895 H   0  0  0  0  0  0
  -27.6976  -14.2516   19.5675 H   0  0  0  0  0  0
  -28.6854  -11.9626   21.3395 H   0  0  0  0  0  0
  -28.4612  -13.6007   21.8722 H   0  0  0  0  0  0
  -25.2761   -9.5670   22.4749 H   0  0  0  0  0  0
  -24.0003   -7.4621   22.7457 H   0  0  0  0  0  0
  -21.0846   -8.8762   19.8943 H   0  0  0  0  0  0
  -22.3701  -10.9659   19.6156 H   0  0  0  0  0  0
  -21.2012   -7.6150   23.9726 H   0  0  0  0  0  0
  -21.1475   -6.0522   25.9079 H   0  0  0  0  0  0
  -22.0607   -2.7615   23.2850 H   0  0  0  0  0  0
  -22.4112  -11.9876   22.4803 H   0  0  0  0  0  0
  -21.1108  -13.1226   22.2613 H   0  0  0  0  0  0
  -24.6659  -15.8446   20.5175 H   0  0  0  0  0  0
  -26.2849  -15.6242   20.0880 H   0  0  0  0  0  0
  -26.7121  -32.5509   23.1129 H   0  0  0  0  0  0
  -25.0086  -33.9760   25.0473 H   0  0  0  0  0  0
  -22.6962  -31.3065   21.4081 H   0  0  0  0  0  0
  -23.3754  -35.9638   23.3316 H   0  0  0  0  0  0
  -24.3587  -36.8913   22.2053 H   0  0  0  0  0  0
  -23.7243  -37.6516   23.6645 H   0  0  0  0  0  0
  -26.0538  -31.5883   20.5950 H   0  0  0  0  0  0
  -26.8222  -30.8742   21.9845 H   0  0  0  0  0  0
  -28.1020  -29.0860   21.1475 H   0  0  0  0  0  0
  -26.0027  -25.9381   19.0527 H   0  0  0  0  0  0
  -23.9681  -27.2765   19.0623 H   0  0  0  0  0  0
  -23.7238  -30.5918   19.4032 H   0  0  0  0  0  0
  -22.7363  -29.2398   19.8690 H   0  0  0  0  0  0
  -25.1294  -36.1974   25.0828 H   0  0  0  0  0  0
  -20.9958  -28.3231   24.1439 H   0  0  0  0  0  0
  -20.5693  -26.2266   23.3604 H   0  0  0  0  0  0
  -21.6642  -26.7457   22.1201 H   0  0  0  0  0  0
  -19.6916  -25.6304   21.1234 H   0  0  0  0  0  0
  -19.6693  -27.3208   20.6755 H   0  0  0  0  0  0
  -17.4203  -26.6685   21.4016 H   0  0  0  0  0  0
  -18.0315  -26.0056   22.9007 H   0  0  0  0  0  0
  -19.7931  -30.7256   24.2276 H   0  0  0  0  0  0
  -17.5016  -31.6262   24.5165 H   0  0  0  0  0  0
  -15.5350  -30.2992   23.7644 H   0  0  0  0  0  0
  -15.8669  -28.0826   22.7057 H   0  0  0  0  0  0
  -24.5913  -30.7051   25.7800 H   0  0  0  0  0  0
  -24.8927  -32.2858   26.4907 H   0  0  0  0  0  0
  -25.8091  -30.8878   27.0216 H   0  0  0  0  0  0
  -26.2858  -29.6790   24.1167 H   0  0  0  0  0  0
  -27.4110  -29.7285   25.4550 H   0  0  0  0  0  0
  -27.8679  -30.4364   23.9231 H   0  0  0  0  0  0
  -27.2668  -33.3612   26.2067 H   0  0  0  0  0  0
  -28.3848  -32.6891   25.0293 H   0  0  0  0  0  0
  -28.0728  -31.8433   26.5378 H   0  0  0  0  0  0
  -28.2613  -38.0098   24.7514 H   0  0  0  0  0  0
  -28.1071  -36.2634   24.6296 H   0  0  0  0  0  0
  -27.2300  -37.1467   25.8869 H   0  0  0  0  0  0
  -20.9309  -29.8732   21.6924 H   0  0  0  0  0  0
  -26.0194  -38.2874   24.1397 H   0  0  0  0  0  0
  -28.0907  -25.5477   22.3039 H   0  0  0  0  0  0
  -27.7696  -23.7344   23.9344 H   0  0  0  0  0  0
  -28.5344  -22.6330   19.1595 H   0  0  0  0  0  0
  -26.0588  -20.2380   24.7205 H   0  0  0  0  0  0
  -25.6040  -20.7274   23.0916 H   0  0  0  0  0  0
  -25.8554  -21.9446   24.3426 H   0  0  0  0  0  0
  -28.2909  -21.3272   24.4530 H   0  0  0  0  0  0
  -28.0445  -20.0894   23.2690 H   0  0  0  0  0  0
  -27.9633  -20.3304   19.5645 H   0  0  0  0  0  0
  -27.2536  -19.8810   21.0726 H   0  0  0  0  0  0
  -27.9366  -25.1956   18.6945 H   0  0  0  0  0  0
  -29.5671  -25.2586   19.2382 H   0  0  0  0  0  0
  -29.7439  -19.6198   21.9517 H   0  0  0  0  0  0
  -30.2030  -19.7139   20.2819 H   0  0  0  0  0  0
  -28.7098  -17.7073   19.8031 H   0  0  0  0  0  0
  -28.2693  -17.6517   21.4875 H   0  0  0  0  0  0
  -30.6943  -17.1629   22.0831 H   0  0  0  0  0  0
  -31.0871  -17.1706   20.3802 H   0  0  0  0  0  0
  -29.0008  -15.2747   21.3554 H   0  0  0  0  0  0
  1 25  1  0  0  0
  1 30  2  0  0  0
  1 84  1  0  0  0
  2  3  1  0  0  0
  2 25  1  0  0  0
  2 85  1  0  0  0
  2 86  1  0  0  0
  3  4  1  0  0  0
  3 87  1  0  0  0
  3 88  1  0  0  0
  4  5  1  0  0  0
  4 89  1  0  0  0
  4 90  1  0  0  0
  5  6  1  0  0  0
  5 26  1  0  0  0
  5 91  1  0  0  0
  6 25  1  0  0  0
  6 92  1  0  0  0
  6 93  1  0  0  0
  7  8  2  0  0  0
  7 26  1  0  0  0
  7 29  1  0  0  0
  8  9  1  0  0  0
  8 22  1  0  0  0
  9 10  1  0  0  0
  9 27  2  0  0  0
 10 11  2  0  0  0
 10 15  1  0  0  0
 11 12  1  0  0  0
 11 94  1  0  0  0
 12 13  2  0  0  0
 12 95  1  0  0  0
 13 14  1  0  0  0
 13 31  1  0  0  0
 14 15  2  0  0  0
 14 96  1  0  0  0
 15 97  1  0  0  0
 16 17  2  0  0  0
 16 21  1  0  0  0
 16 31  1  0  0  0
 17 18  1  0  0  0
 17 98  1  0  0  0
 18 19  2  0  0  0
 18 99  1  0  0  0
 19 20  1  0  0  0
 19 24  1  0  0  0
 20 21  2  0  0  0
 20100  1  0  0  0
 21 23  1  0  0  0
 22 28  1  0  0  0
 22 32  2  0  0  0
 26 27  1  0  0  0
 28101  1  0  0  0
 28102  1  0  0  0
 29103  1  0  0  0
 29104  1  0  0  0
 33 34  1  0  0  0
 33 66  1  0  0  0
 33 70  2  0  0  0
 34 36  1  0  0  0
 34 59  1  0  0  0
 34105  1  0  0  0
 35 44  2  0  0  0
 35 45  1  0  0  0
 35 68  1  0  0  0
 36 56  1  0  0  0
 36106  1  0  0  0
 37 39  1  0  0  0
 37 47  1  0  0  0
 37 66  1  0  0  0
 37107  1  0  0  0
 38 43  2  0  0  0
 38 46  1  0  0  0
 38 47  1  0  0  0
 39 64  1  0  0  0
 39 67  2  0  0  0
 40 52  1  0  0  0
 40 53  2  0  0  0
 40 58  1  0  0  0
 41108  1  0  0  0
 41109  1  0  0  0
 41110  1  0  0  0
 41 48  1  0  0  0
 42 43  1  0  0  0
 42 66  1  0  0  0
 42111  1  0  0  0
 42112  1  0  0  0
 43 44  1  0  0  0
 44113  1  0  0  0
 45 46  2  0  0  0
 45114  1  0  0  0
 46115  1  0  0  0
 47116  1  0  0  0
 47117  1  0  0  0
 48 56  1  0  0  0
 48 65  1  0  0  0
 48118  1  0  0  0
 49 50  1  0  0  0
 49 53  1  0  0  0
 49 64  1  0  0  0
 49119  1  0  0  0
 50 51  1  0  0  0
 50120  1  0  0  0
 50121  1  0  0  0
 51 52  1  0  0  0
 51122  1  0  0  0
 51123  1  0  0  0
 52124  1  0  0  0
 52125  1  0  0  0
 53 54  1  0  0  0
 54 55  2  0  0  0
 54126  1  0  0  0
 55 57  1  0  0  0
 55127  1  0  0  0
 56 69  2  0  0  0
 57 58  2  0  0  0
 57128  1  0  0  0
 58129  1  0  0  0
 59 60  1  0  0  0
 59 61  1  0  0  0
 59 62  1  0  0  0
 60130  1  0  0  0
 60131  1  0  0  0
 60132  1  0  0  0
 61133  1  0  0  0
 61134  1  0  0  0
 61135  1  0  0  0
 62136  1  0  0  0
 62137  1  0  0  0
 62138  1  0  0  0
 63 65  1  0  0  0
 63139  1  0  0  0
 63140  1  0  0  0
 63141  1  0  0  0
 64142  1  0  0  0
 65143  1  0  0  0
 68 80  1  0  0  0
 71 72  2  0  0  0
 71 74  1  0  0  0
 71144  1  0  0  0
 72 75  1  0  0  0
 72145  1  0  0  0
 73 74  2  0  0  0
 73 76  1  0  0  0
 73146  1  0  0  0
 74 80  1  0  0  0
 75 76  2  0  0  0
 75 78  1  0  0  0
 76 79  1  0  0  0
 77 78  1  0  0  0
 77147  1  0  0  0
 77148  1  0  0  0
 77149  1  0  0  0
 78150  1  0  0  0
 78151  1  0  0  0
 79 81  1  0  0  0
 79152  1  0  0  0
 79153  1  0  0  0
 80154  1  0  0  0
 80155  1  0  0  0
 81 82  1  0  0  0
 81156  1  0  0  0
 81157  1  0  0  0
 82 83  1  0  0  0
 82158  1  0  0  0
 82159  1  0  0  0
 83 84  1  0  0  0
 83160  1  0  0  0
 83161  1  0  0  0
 84162  1  0  0  0
M  ISO  4   1 100  68 101  80 101  84 100
M  END
> <chiral flag>
0

> <version>
0

> <s_m_source_file>
/data/baiqing/PycharmProjects/Reinvent-master-3.2/result/LINK_invent/BTK/process_docking_weight1_custom_sum_contain_oxygen_bond_distance_aromatic_linkinvent_7_9_3/rearranged_h_0036.sdf

> <i_m_source_file_index>
85

> <r_mmod_Potential_Energy-OPLS-2005>
-59.5728149414062

> <r_mmod_Stretch_Energy-OPLS-2005>
44.1306915283203

> <r_mmod_Bend_Energy-OPLS-2005>
106.932121276855

> <r_mmod_Torsional_Energy-OPLS-2005>
196.966033935547

> <r_mmod_Improper_Torsional_Energy-OPLS-2005>
3.94219017028809

> <r_mmod_Van_der_Waal_Energy-OPLS-2005>
145.81803894043

> <r_mmod_Electrostatic_Energy-OPLS-2005>
-372.756530761719

> <r_mmod_Solvation_Energy-OPLS-2005>
-200.93571472168

> <b_mmod_Minimization_Converged-OPLS-2005>
0

> <r_mmod_RMS_Derivative-OPLS-2005>
0.882692456245422

$$$$
86
                    3D
 Structure written by MMmdl.
173181  0  0  1  0            999 V2000
  -30.7762  -14.3284   20.6994 C   0  0  0  0  0  0
  -30.4142  -12.2747   19.3872 C   0  0  0  0  0  0
  -29.4824  -12.5368   18.1903 C   0  0  0  0  0  0
  -28.0081  -12.3870   18.6070 C   0  0  0  0  0  0
  -27.6685  -13.2005   19.8831 C   0  0  2  0  0  0
  -28.7035  -12.9232   20.9952 C   0  0  0  0  0  0
  -25.2609  -13.8150   20.5660 C   0  0  0  0  0  0
  -24.1857  -13.0439   20.9150 C   0  0  0  0  0  0
  -24.6402  -11.6897   20.8718 C   0  0  0  0  0  0
  -23.9070  -10.4289   21.0399 C   0  0  0  0  0  0
  -24.3621   -9.4208   21.9181 C   0  0  0  0  0  0
  -23.6294   -8.2251   22.0759 C   0  0  0  0  0  0
  -22.4280   -8.0287   21.3546 C   0  0  0  0  0  0
  -21.9913   -9.0261   20.4648 C   0  0  0  0  0  0
  -22.7242  -10.2135   20.3051 C   0  0  0  0  0  0
  -21.6855   -6.0743   22.5284 C   0  0  0  0  0  0
  -21.4017   -6.5643   23.8216 C   0  0  0  0  0  0
  -21.3655   -5.6793   24.9176 C   0  0  0  0  0  0
  -21.6050   -4.3060   24.7229 C   0  0  0  0  0  0
  -21.8815   -3.8148   23.4348 C   0  0  0  0  0  0
  -21.9192   -4.6969   22.3402 C   0  0  0  0  0  0
  -22.7882  -13.5244   21.1832 C   0  0  0  0  0  0
  -22.1662   -4.2157   21.0982 F   0  0  0  0  0  0
  -21.5627   -3.4540   25.7737 F   0  0  0  0  0  0
  -30.0531  -13.2058   20.4649 N   0  0  0  0  0  0
  -26.3054  -12.9320   20.3384 N   0  0  0  0  0  0
  -25.9324  -11.6474   20.5753 N   0  0  0  0  0  0
  -22.0526  -12.8232   22.0381 N   0  0  0  0  0  0
  -25.4338  -15.1882   20.4076 N   0  0  0  0  0  0
  -31.7855  -14.6396   20.0583 O   0  0  0  0  0  0
  -21.6642   -6.8890   21.4246 O   0  0  0  0  0  0
  -22.3556  -14.5553   20.6686 O   0  0  0  0  0  0
  -24.6099  -31.8718   23.2191 C   0  0  0  0  0  0
  -25.9001  -32.4852   23.8464 C   0  0  1  0  0  0
  -27.2252  -27.4695   20.0847 C   0  0  0  0  0  0
  -25.5880  -33.8654   24.2398 N   0  0  0  0  0  0
  -23.3935  -30.5013   21.5580 C   0  0  2  0  0  0
  -24.8360  -28.9762   20.1206 C   0  0  0  0  0  0
  -22.7352  -29.4706   22.5028 C   0  0  0  0  0  0
  -18.0241  -28.1396   22.8503 C   0  0  0  0  0  0
  -24.1463  -36.7343   23.2645 C   0  0  0  0  0  0
  -25.9218  -30.8445   21.3712 C   0  0  0  0  0  0
  -25.9957  -29.4826   20.7205 C   0  0  0  0  0  0
  -27.1920  -28.7348   20.7043 C   0  0  0  0  0  0
  -26.0529  -26.9894   19.4567 C   0  0  0  0  0  0
  -24.8591  -27.7256   19.4870 C   0  0  0  0  0  0
  -23.5977  -29.8387   20.1722 C   0  0  0  0  0  0
  -25.4078  -36.3150   24.0358 C   0  0  1  0  0  0
  -20.5832  -28.3687   23.1333 C   0  0  2  0  0  0
  -20.6739  -26.9428   22.5421 C   0  0  0  0  0  0
  -19.5720  -26.6403   21.5213 C   0  0  0  0  0  0
  -18.1892  -26.7944   22.1612 C   0  0  0  0  0  0
  -19.1490  -28.8848   23.2926 C   0  0  0  0  0  0
  -18.9428  -30.1452   23.8943 C   0  0  0  0  0  0
  -17.6442  -30.6616   24.0574 C   0  0  0  0  0  0
  -25.8991  -34.9501   23.5175 C   0  0  0  0  0  0
  -16.5330  -29.9119   23.6352 C   0  0  0  0  0  0
  -16.7232  -28.6525   23.0387 C   0  0  0  0  0  0
  -26.4463  -31.6613   25.0763 C   0  0  0  0  0  0
  -25.3768  -31.3662   26.1542 C   0  0  0  0  0  0
  -27.0343  -30.3076   24.6130 C   0  0  0  0  0  0
  -27.6063  -32.4333   25.7487 C   0  0  0  0  0  0
  -27.5576  -37.1813   24.8474 C   0  0  0  0  0  0
  -21.4081  -29.3082   22.3754 N   0  0  0  0  0  0
  -26.4290  -37.3814   23.9416 N   0  0  0  0  0  0
  -24.6601  -31.0851   22.1073 N   0  0  0  0  0  0
  -23.4129  -28.8210   23.3037 O   0  0  0  0  0  0
  -28.4035  -26.7590   20.0765 O   0  0  0  0  0  0
  -26.5537  -34.8940   22.4722 O   0  0  0  0  0  0
  -23.5299  -32.1452   23.7597 O   0  0  0  0  0  0
  -28.0617  -24.2745   18.4371 C   0  0  0  0  0  0
  -26.5637  -23.7031   20.2476 C   0  0  0  0  0  0
  -27.6680  -24.4330   19.7758 C   0  0  0  0  0  0
  -27.3216  -23.4094   17.6068 C   0  0  0  0  0  0
  -26.2272  -22.7095   18.1752 C   0  0  0  0  0  0
  -26.8182  -24.0901   15.2155 C   0  0  0  0  0  0
  -27.7263  -23.2736   16.1443 C   0  0  0  0  0  0
  -28.3540  -25.4548   20.6602 C   0  0  0  0  0  0
  -25.4408  -21.6350   17.4292 C   0  0  0  0  0  0
  -25.6942  -20.2308   18.0147 C   0  0  0  0  0  0
  -27.1854  -19.8559   18.1329 C   0  0  0  0  0  0
  -27.4280  -18.6942   19.1007 C   0  0  0  0  0  0
  -28.8954  -18.6151   19.5397 C   0  0  0  0  0  0
  -29.1055  -17.5736   20.6411 C   0  0  0  0  0  0
  -30.5797  -17.4716   21.0641 C   0  0  0  0  0  0
  -30.8482  -16.3793   22.1180 C   0  0  0  0  0  0
  -25.8524  -22.8719   19.4622 N   0  0  0  0  0  0
  -30.3279  -15.0776   21.7127 N   0  0  0  0  0  0
  -31.4587  -12.3736   19.0845 H   0  0  0  0  0  0
  -30.3063  -11.2469   19.7372 H   0  0  0  0  0  0
  -29.7146  -11.8522   17.3739 H   0  0  0  0  0  0
  -29.6548  -13.5437   17.8055 H   0  0  0  0  0  0
  -27.8148  -11.3277   18.7789 H   0  0  0  0  0  0
  -27.3543  -12.6864   17.7871 H   0  0  0  0  0  0
  -27.7343  -14.2572   19.6225 H   0  0  0  0  0  0
  -28.6558  -11.8772   21.3029 H   0  0  0  0  0  0
  -28.4478  -13.4916   21.8892 H   0  0  0  0  0  0
  -25.2772   -9.5684   22.4744 H   0  0  0  0  0  0
  -24.0006   -7.4644   22.7475 H   0  0  0  0  0  0
  -21.0850   -8.8774   19.8952 H   0  0  0  0  0  0
  -22.3709  -10.9670   19.6154 H   0  0  0  0  0  0
  -21.2008   -7.6152   23.9724 H   0  0  0  0  0  0
  -21.1484   -6.0525   25.9083 H   0  0  0  0  0  0
  -22.0597   -2.7614   23.2844 H   0  0  0  0  0  0
  -22.4140  -11.9882   22.4744 H   0  0  0  0  0  0
  -21.1155  -13.1258   22.2612 H   0  0  0  0  0  0
  -24.6670  -15.8426   20.5159 H   0  0  0  0  0  0
  -26.2950  -15.6295   20.1119 H   0  0  0  0  0  0
  -26.7037  -32.5591   23.1201 H   0  0  0  0  0  0
  -25.0108  -33.9822   25.0595 H   0  0  0  0  0  0
  -22.6827  -31.3195   21.4226 H   0  0  0  0  0  0
  -23.3734  -35.9671   23.3331 H   0  0  0  0  0  0
  -24.3564  -36.8939   22.2060 H   0  0  0  0  0  0
  -23.7196  -37.6548   23.6633 H   0  0  0  0  0  0
  -26.0323  -31.6084   20.6001 H   0  0  0  0  0  0
  -26.8100  -30.8979   21.9886 H   0  0  0  0  0  0
  -28.0882  -29.1215   21.1694 H   0  0  0  0  0  0
  -26.0408  -26.0646   18.9050 H   0  0  0  0  0  0
  -23.9763  -27.3393   18.9970 H   0  0  0  0  0  0
  -23.7008  -30.6142   19.4135 H   0  0  0  0  0  0
  -22.7201  -29.2585   19.8796 H   0  0  0  0  0  0
  -25.1237  -36.2054   25.0851 H   0  0  0  0  0  0
  -20.9926  -28.3266   24.1450 H   0  0  0  0  0  0
  -20.5646  -26.2297   23.3602 H   0  0  0  0  0  0
  -21.6610  -26.7491   22.1209 H   0  0  0  0  0  0
  -19.6897  -25.6310   21.1253 H   0  0  0  0  0  0
  -19.6684  -27.3200   20.6734 H   0  0  0  0  0  0
  -17.4164  -26.6713   21.4007 H   0  0  0  0  0  0
  -18.0295  -26.0067   22.8988 H   0  0  0  0  0  0
  -19.7915  -30.7239   24.2348 H   0  0  0  0  0  0
  -17.5019  -31.6304   24.5156 H   0  0  0  0  0  0
  -15.5343  -30.3054   23.7671 H   0  0  0  0  0  0
  -15.8609  -28.0850   22.7150 H   0  0  0  0  0  0
  -24.5927  -30.7008   25.7900 H   0  0  0  0  0  0
  -24.8950  -32.2792   26.5063 H   0  0  0  0  0  0
  -25.8178  -30.8797   27.0253 H   0  0  0  0  0  0
  -26.2897  -29.6762   24.1267 H   0  0  0  0  0  0
  -27.4238  -29.7384   25.4578 H   0  0  0  0  0  0
  -27.8663  -30.4453   23.9219 H   0  0  0  0  0  0
  -27.2712  -33.3637   26.2090 H   0  0  0  0  0  0
  -28.3844  -32.6892   25.0276 H   0  0  0  0  0  0
  -28.0751  -31.8439   26.5373 H   0  0  0  0  0  0
  -28.2609  -38.0095   24.7538 H   0  0  0  0  0  0
  -28.1067  -36.2642   24.6291 H   0  0  0  0  0  0
  -27.2310  -37.1462   25.8881 H   0  0  0  0  0  0
  -20.9213  -29.8831   21.7012 H   0  0  0  0  0  0
  -26.0213  -38.2919   24.1389 H   0  0  0  0  0  0
  -28.8943  -24.8435   18.0474 H   0  0  0  0  0  0
  -26.2107  -23.8081   21.2633 H   0  0  0  0  0  0
  -27.1256  -23.9869   14.1738 H   0  0  0  0  0  0
  -26.8535  -25.1504   15.4655 H   0  0  0  0  0  0
  -25.7794  -23.7678   15.2842 H   0  0  0  0  0  0
  -27.7367  -22.2259   15.8450 H   0  0  0  0  0  0
  -28.7552  -23.6161   16.0235 H   0  0  0  0  0  0
  -29.3730  -25.1166   20.8503 H   0  0  0  0  0  0
  -27.8617  -25.5017   21.6338 H   0  0  0  0  0  0
  -25.6717  -21.6296   16.3662 H   0  0  0  0  0  0
  -24.3774  -21.8716   17.4885 H   0  0  0  0  0  0
  -25.1625  -19.4790   17.4322 H   0  0  0  0  0  0
  -25.2462  -20.2074   19.0087 H   0  0  0  0  0  0
  -27.7543  -20.7057   18.5055 H   0  0  0  0  0  0
  -27.5998  -19.6320   17.1488 H   0  0  0  0  0  0
  -27.1137  -17.7564   18.6418 H   0  0  0  0  0  0
  -26.8092  -18.8248   19.9900 H   0  0  0  0  0  0
  -29.2249  -19.5868   19.9119 H   0  0  0  0  0  0
  -29.5262  -18.3870   18.6797 H   0  0  0  0  0  0
  -28.7471  -16.6106   20.2781 H   0  0  0  0  0  0
  -28.4940  -17.8266   21.5081 H   0  0  0  0  0  0
  -30.9134  -18.4334   21.4548 H   0  0  0  0  0  0
  -31.1943  -17.2816   20.1824 H   0  0  0  0  0  0
  -30.3760  -16.6545   23.0614 H   0  0  0  0  0  0
  -31.9186  -16.3018   22.3172 H   0  0  0  0  0  0
  -29.5264  -14.7226   22.2136 H   0  0  0  0  0  0
  1 25  1  0  0  0
  1 30  2  0  0  0
  1 88  1  0  0  0
  2  3  1  0  0  0
  2 25  1  0  0  0
  2 89  1  0  0  0
  2 90  1  0  0  0
  3  4  1  0  0  0
  3 91  1  0  0  0
  3 92  1  0  0  0
  4  5  1  0  0  0
  4 93  1  0  0  0
  4 94  1  0  0  0
  5  6  1  0  0  0
  5 26  1  0  0  0
  5 95  1  0  0  0
  6 25  1  0  0  0
  6 96  1  0  0  0
  6 97  1  0  0  0
  7  8  2  0  0  0
  7 26  1  0  0  0
  7 29  1  0  0  0
  8  9  1  0  0  0
  8 22  1  0  0  0
  9 10  1  0  0  0
  9 27  2  0  0  0
 10 11  2  0  0  0
 10 15  1  0  0  0
 11 12  1  0  0  0
 11 98  1  0  0  0
 12 13  2  0  0  0
 12 99  1  0  0  0
 13 14  1  0  0  0
 13 31  1  0  0  0
 14 15  2  0  0  0
 14100  1  0  0  0
 15101  1  0  0  0
 16 17  2  0  0  0
 16 21  1  0  0  0
 16 31  1  0  0  0
 17 18  1  0  0  0
 17102  1  0  0  0
 18 19  2  0  0  0
 18103  1  0  0  0
 19 20  1  0  0  0
 19 24  1  0  0  0
 20 21  2  0  0  0
 20104  1  0  0  0
 21 23  1  0  0  0
 22 28  1  0  0  0
 22 32  2  0  0  0
 26 27  1  0  0  0
 28105  1  0  0  0
 28106  1  0  0  0
 29107  1  0  0  0
 29108  1  0  0  0
 33 34  1  0  0  0
 33 66  1  0  0  0
 33 70  2  0  0  0
 34 36  1  0  0  0
 34 59  1  0  0  0
 34109  1  0  0  0
 35 44  2  0  0  0
 35 45  1  0  0  0
 35 68  1  0  0  0
 36 56  1  0  0  0
 36110  1  0  0  0
 37 39  1  0  0  0
 37 47  1  0  0  0
 37 66  1  0  0  0
 37111  1  0  0  0
 38 43  2  0  0  0
 38 46  1  0  0  0
 38 47  1  0  0  0
 39 64  1  0  0  0
 39 67  2  0  0  0
 40 52  1  0  0  0
 40 53  2  0  0  0
 40 58  1  0  0  0
 41112  1  0  0  0
 41113  1  0  0  0
 41114  1  0  0  0
 41 48  1  0  0  0
 42 43  1  0  0  0
 42 66  1  0  0  0
 42115  1  0  0  0
 42116  1  0  0  0
 43 44  1  0  0  0
 44117  1  0  0  0
 45 46  2  0  0  0
 45118  1  0  0  0
 46119  1  0  0  0
 47120  1  0  0  0
 47121  1  0  0  0
 48 56  1  0  0  0
 48 65  1  0  0  0
 48122  1  0  0  0
 49 50  1  0  0  0
 49 53  1  0  0  0
 49 64  1  0  0  0
 49123  1  0  0  0
 50 51  1  0  0  0
 50124  1  0  0  0
 50125  1  0  0  0
 51 52  1  0  0  0
 51126  1  0  0  0
 51127  1  0  0  0
 52128  1  0  0  0
 52129  1  0  0  0
 53 54  1  0  0  0
 54 55  2  0  0  0
 54130  1  0  0  0
 55 57  1  0  0  0
 55131  1  0  0  0
 56 69  2  0  0  0
 57 58  2  0  0  0
 57132  1  0  0  0
 58133  1  0  0  0
 59 60  1  0  0  0
 59 61  1  0  0  0
 59 62  1  0  0  0
 60134  1  0  0  0
 60135  1  0  0  0
 60136  1  0  0  0
 61137  1  0  0  0
 61138  1  0  0  0
 61139  1  0  0  0
 62140  1  0  0  0
 62141  1  0  0  0
 62142  1  0  0  0
 63 65  1  0  0  0
 63143  1  0  0  0
 63144  1  0  0  0
 63145  1  0  0  0
 64146  1  0  0  0
 65147  1  0  0  0
 68 78  1  0  0  0
 71 73  2  0  0  0
 71 74  1  0  0  0
 71148  1  0  0  0
 72 73  1  0  0  0
 72 87  2  0  0  0
 72149  1  0  0  0
 73 78  1  0  0  0
 74 75  2  0  0  0
 74 77  1  0  0  0
 75 79  1  0  0  0
 75 87  1  0  0  0
 76 77  1  0  0  0
 76150  1  0  0  0
 76151  1  0  0  0
 76152  1  0  0  0
 77153  1  0  0  0
 77154  1  0  0  0
 78155  1  0  0  0
 78156  1  0  0  0
 79 80  1  0  0  0
 79157  1  0  0  0
 79158  1  0  0  0
 80 81  1  0  0  0
 80159  1  0  0  0
 80160  1  0  0  0
 81 82  1  0  0  0
 81161  1  0  0  0
 81162  1  0  0  0
 82 83  1  0  0  0
 82163  1  0  0  0
 82164  1  0  0  0
 83 84  1  0  0  0
 83165  1  0  0  0
 83166  1  0  0  0
 84 85  1  0  0  0
 84167  1  0  0  0
 84168  1  0  0  0
 85 86  1  0  0  0
 85169  1  0  0  0
 85170  1  0  0  0
 86 88  1  0  0  0
 86171  1  0  0  0
 86172  1  0  0  0
 88173  1  0  0  0
M  ISO  4   1 100  68 101  78 101  88 100
M  END
> <chiral flag>
0

> <version>
0

> <s_m_source_file>
/data/baiqing/PycharmProjects/Reinvent-master-3.2/result/LINK_invent/BTK/process_docking_weight1_custom_sum_contain_oxygen_bond_distance_aromatic_linkinvent_7_9_3/rearranged_h_0036.sdf

> <i_m_source_file_index>
86

> <r_mmod_Potential_Energy-OPLS-2005>
-191.154708862305

> <r_mmod_Stretch_Energy-OPLS-2005>
31.3822269439697

> <r_mmod_Bend_Energy-OPLS-2005>
89.5460968017578

> <r_mmod_Torsional_Energy-OPLS-2005>
217.56526184082

> <r_mmod_Improper_Torsional_Energy-OPLS-2005>
2.25296783447266

> <r_mmod_Van_der_Waal_Energy-OPLS-2005>
158.831848144531

> <r_mmod_Electrostatic_Energy-OPLS-2005>
-493.259429931641

> <r_mmod_Solvation_Energy-OPLS-2005>
-205.119812011719

> <b_mmod_Minimization_Converged-OPLS-2005>
0

> <r_mmod_RMS_Derivative-OPLS-2005>
2.25742650032043

$$$$
87
                    3D
 Structure written by MMmdl.
178187  0  0  1  0            999 V2000
  -30.9117  -14.2070   20.8030 C   0  0  0  0  0  0
  -30.8402  -12.3865   19.0809 C   0  0  0  0  0  0
  -29.7865  -12.5735   17.9780 C   0  0  0  0  0  0
  -28.3487  -12.3871   18.4575 C   0  0  0  0  0  0
  -27.9731  -13.1903   19.8766 C   0  0  2  0  0  0
  -29.2078  -12.4519   20.6565 C   0  0  0  0  0  0
  -24.6173  -14.5299   21.2685 C   0  0  0  0  0  0
  -23.6224  -13.7192   21.7646 C   0  0  0  0  0  0
  -24.1399  -12.4620   21.7132 C   0  0  0  0  0  0
  -23.6278  -11.2155   21.4926 C   0  0  0  0  0  0
  -24.2370  -10.0444   22.3529 C   0  0  0  0  0  0
  -24.1208   -8.5697   21.9895 C   0  0  0  0  0  0
  -23.3624   -8.1675   20.7347 C   0  0  0  0  0  0
  -22.7115   -9.5666   19.6083 C   0  0  0  0  0  0
  -22.8349  -11.0437   20.1001 C   0  0  0  0  0  0
  -22.1960   -6.1836   22.3136 C   0  0  0  0  0  0
  -21.8181   -6.6737   23.6170 C   0  0  0  0  0  0
  -21.5227   -5.8155   24.7262 C   0  0  0  0  0  0
  -21.6093   -4.4156   24.5939 C   0  0  0  0  0  0
  -21.8400   -3.9002   23.3106 C   0  0  0  0  0  0
  -22.0746   -4.7645   22.2076 C   0  0  0  0  0  0
  -22.2017  -13.9267   21.5107 C   0  0  0  0  0  0
  -22.2390   -4.1904   20.9970 F   0  0  0  0  0  0
  -21.4705   -3.5831   25.6615 F   0  0  0  0  0  0
  -30.4072  -13.0829   20.2687 N   0  0  0  0  0  0
  -25.5443  -13.6383   20.8673 N   0  0  0  0  0  0
  -24.4436  -12.9244   20.6432 N   0  0  0  0  0  0
  -21.4005  -13.1145   22.1753 N   0  0  0  0  0  0
  -24.6661  -15.8840   21.0466 N   0  0  0  0  0  0
  -31.9173  -14.7549   20.3561 O   0  0  0  0  0  0
  -22.6741   -6.8690   21.0991 O   0  0  0  0  0  0
  -21.8610  -14.7363   20.6584 O   0  0  0  0  0  0
  -24.7450  -31.7220   23.1066 C   0  0  0  0  0  0
  -25.9752  -32.4096   23.7763 C   0  0  1  0  0  0
  -26.8094  -25.9084   20.1419 C   0  0  0  0  0  0
  -25.6071  -33.7975   24.1578 N   0  0  0  0  0  0
  -23.5673  -30.3322   21.4877 C   0  0  2  0  0  0
  -24.9282  -28.5384   20.0804 C   0  0  0  0  0  0
  -22.7921  -29.3972   22.4575 C   0  0  0  0  0  0
  -18.0380  -28.1489   22.8437 C   0  0  0  0  0  0
  -24.1506  -36.7008   23.2663 C   0  0  0  0  0  0
  -26.1547  -30.1531   21.4829 C   0  0  0  0  0  0
  -26.1133  -28.6526   20.8041 C   0  0  0  0  0  0
  -27.0202  -27.3724   20.8061 C   0  0  0  0  0  0
  -25.6842  -26.2236   19.3243 C   0  0  0  0  0  0
  -24.8036  -27.3676   19.3133 C   0  0  0  0  0  0
  -23.8217  -29.6293   20.1174 C   0  0  0  0  0  0
  -25.4184  -36.2715   24.0231 C   0  0  1  0  0  0
  -20.6027  -28.3832   23.1087 C   0  0  2  0  0  0
  -20.6830  -26.9452   22.5423 C   0  0  0  0  0  0
  -19.5805  -26.6367   21.5255 C   0  0  0  0  0  0
  -18.1985  -26.8007   22.1618 C   0  0  0  0  0  0
  -19.1656  -28.8999   23.2737 C   0  0  0  0  0  0
  -18.9538  -30.1584   23.8777 C   0  0  0  0  0  0
  -17.6518  -30.6640   24.0559 C   0  0  0  0  0  0
  -25.9210  -34.9112   23.4805 C   0  0  0  0  0  0
  -16.5410  -29.9102   23.6383 C   0  0  0  0  0  0
  -16.7349  -28.6557   23.0335 C   0  0  0  0  0  0
  -26.4723  -31.6469   25.0697 C   0  0  0  0  0  0
  -25.3574  -31.3958   26.1154 C   0  0  0  0  0  0
  -27.0762  -30.2750   24.7114 C   0  0  0  0  0  0
  -27.6074  -32.4490   25.7489 C   0  0  0  0  0  0
  -27.5575  -37.1655   24.8456 C   0  0  0  0  0  0
  -21.4541  -29.2979   22.3338 N   0  0  0  0  0  0
  -26.4261  -37.3545   23.9427 N   0  0  0  0  0  0
  -24.8643  -30.7885   22.0773 N   0  0  0  0  0  0
  -23.4121  -28.7644   23.3156 O   0  0  0  0  0  0
  -27.3807  -24.2605   20.1712 O   0  0  0  0  0  0
  -26.5924  -34.8804   22.4484 O   0  0  0  0  0  0
  -23.6383  -32.0728   23.5613 O   0  0  0  0  0  0
  -26.8452  -11.8231   21.3912 C   0  0  0  0  0  0
  -26.0824  -13.5895   18.7214 C   0  0  0  0  0  0
  -27.3981  -14.9817   21.2932 C   0  0  0  0  0  0
  -26.1302  -11.6719   19.7142 C   0  0  0  0  0  0
  -27.4030  -13.4014   22.1598 C   0  0  0  0  0  0
  -26.7693  -15.3366   19.6517 C   0  0  0  0  0  0
  -21.4749   -7.5367   19.0388 C   0  0  0  0  0  0
  -23.2346   -7.5505   18.2891 C   0  0  0  0  0  0
  -20.8296   -8.4343   20.6058 C   0  0  0  0  0  0
  -24.7295   -8.6924   18.6007 C   0  0  0  0  0  0
  -21.9229   -9.5982   21.6757 C   0  0  0  0  0  0
  -24.8967   -9.9472   19.9994 C   0  0  0  0  0  0
  -27.8733  -13.3268   23.6283 C   0  0  0  0  0  0
  -26.8191  -17.5498   19.3533 C   0  0  0  0  0  0
  -28.2960  -14.6112   24.4011 C   0  0  0  0  0  0
  -26.9948  -19.8319   20.0123 C   0  0  0  0  0  0
  -29.5140  -15.5341   24.0278 C   0  0  0  0  0  0
  -30.7264  -15.0490   23.1906 C   0  0  0  0  0  0
  -27.1341  -22.1923   19.6840 C   0  0  0  0  0  0
  -30.2522  -14.5562   21.9168 N   0  0  0  0  0  0
  -31.8051  -12.7628   18.7487 H   0  0  0  0  0  0
  -31.0153  -11.3295   19.2851 H   0  0  0  0  0  0
  -29.9948  -11.8866   17.1475 H   0  0  0  0  0  0
  -29.8921  -13.5731   17.5525 H   0  0  0  0  0  0
  -28.1762  -11.3097   18.4961 H   0  0  0  0  0  0
  -27.8281  -12.7026   17.5521 H   0  0  0  0  0  0
  -28.5193  -14.0573   19.5055 H   0  0  0  0  0  0
  -29.1920  -11.3838   20.4015 H   0  0  0  0  0  0
  -29.3222  -12.2735   21.7240 H   0  0  0  0  0  0
  -24.7751  -10.3151   23.2495 H   0  0  0  0  0  0
  -24.4390   -7.8180   22.6963 H   0  0  0  0  0  0
  -22.1596   -9.6131   18.6796 H   0  0  0  0  0  0
  -22.5123  -11.8664   19.4852 H   0  0  0  0  0  0
  -21.8618   -7.7187   23.8424 H   0  0  0  0  0  0
  -21.3153   -6.2410   25.7001 H   0  0  0  0  0  0
  -21.8285   -2.8336   23.1580 H   0  0  0  0  0  0
  -21.7418  -12.4859   22.8833 H   0  0  0  0  0  0
  -20.4043  -13.1834   22.0277 H   0  0  0  0  0  0
  -25.4677  -16.1704   20.4974 H   0  0  0  0  0  0
  -23.7962  -16.2804   20.7085 H   0  0  0  0  0  0
  -26.7893  -32.4366   23.0489 H   0  0  0  0  0  0
  -25.0010  -33.8919   24.9597 H   0  0  0  0  0  0
  -22.9348  -31.2034   21.2906 H   0  0  0  0  0  0
  -23.3840  -35.9264   23.3188 H   0  0  0  0  0  0
  -24.3537  -36.8862   22.2107 H   0  0  0  0  0  0
  -23.7172  -37.6080   23.6876 H   0  0  0  0  0  0
  -26.4709  -30.8298   20.6898 H   0  0  0  0  0  0
  -26.9823  -30.1726   22.1757 H   0  0  0  0  0  0
  -27.8648  -27.4308   21.4736 H   0  0  0  0  0  0
  -25.3423  -25.4071   18.7034 H   0  0  0  0  0  0
  -23.9316  -27.2930   18.6748 H   0  0  0  0  0  0
  -24.0994  -30.3916   19.3881 H   0  0  0  0  0  0
  -22.8883  -29.2029   19.7483 H   0  0  0  0  0  0
  -25.1423  -36.1406   25.0711 H   0  0  0  0  0  0
  -21.0081  -28.3525   24.1233 H   0  0  0  0  0  0
  -20.5738  -26.2468   23.3731 H   0  0  0  0  0  0
  -21.6680  -26.7390   22.1226 H   0  0  0  0  0  0
  -19.6933  -25.6249   21.1374 H   0  0  0  0  0  0
  -19.6780  -27.3122   20.6753 H   0  0  0  0  0  0
  -17.4273  -26.6811   21.3995 H   0  0  0  0  0  0
  -18.0298  -26.0196   22.9047 H   0  0  0  0  0  0
  -19.7997  -30.7462   24.2060 H   0  0  0  0  0  0
  -17.5044  -31.6286   24.5215 H   0  0  0  0  0  0
  -15.5395  -30.2927   23.7791 H   0  0  0  0  0  0
  -15.8770  -28.0834   22.7038 H   0  0  0  0  0  0
  -24.5840  -30.7279   25.7358 H   0  0  0  0  0  0
  -24.8682  -32.3227   26.4151 H   0  0  0  0  0  0
  -25.7541  -30.9339   27.0203 H   0  0  0  0  0  0
  -26.3551  -29.6102   24.2372 H   0  0  0  0  0  0
  -27.4155  -29.7544   25.6080 H   0  0  0  0  0  0
  -27.9555  -30.3784   24.0753 H   0  0  0  0  0  0
  -27.2611  -33.3976   26.1588 H   0  0  0  0  0  0
  -28.4071  -32.6761   25.0429 H   0  0  0  0  0  0
  -28.0547  -31.8952   26.5749 H   0  0  0  0  0  0
  -28.2498  -38.0045   24.7601 H   0  0  0  0  0  0
  -28.1175  -36.2568   24.6182 H   0  0  0  0  0  0
  -27.2301  -37.1158   25.8854 H   0  0  0  0  0  0
  -20.9950  -29.8556   21.6281 H   0  0  0  0  0  0
  -26.0056  -38.2585   24.1426 H   0  0  0  0  0  0
  -26.8208  -10.9573   22.0334 H   0  0  0  0  0  0
  -25.5294  -13.6823   17.7974 H   0  0  0  0  0  0
  -27.7317  -15.8519   21.8374 H   0  0  0  0  0  0
  -21.1468   -6.4988   19.0711 H   0  0  0  0  0  0
  -20.8454   -7.9338   18.2405 H   0  0  0  0  0  0
  -23.1017   -7.5149   17.2047 H   0  0  0  0  0  0
  -23.6185   -6.5489   18.4997 H   0  0  0  0  0  0
  -20.3416   -7.7000   21.2443 H   0  0  0  0  0  0
  -19.9769   -9.0262   20.2736 H   0  0  0  0  0  0
  -24.8258   -9.2871   17.6928 H   0  0  0  0  0  0
  -25.6273   -8.0730   18.5905 H   0  0  0  0  0  0
  -21.9129   -9.3391   22.7269 H   0  0  0  0  0  0
  -21.2596  -10.4703   21.7404 H   0  0  0  0  0  0
  -25.7139   -9.4139   20.4985 H   0  0  0  0  0  0
  -28.6302  -12.5505   23.7565 H   0  0  0  0  0  0
  -27.0122  -12.9311   24.1686 H   0  0  0  0  0  0
  -25.8756  -17.6017   18.8089 H   0  0  0  0  0  0
  -27.5667  -17.5521   18.5586 H   0  0  0  0  0  0
  -27.4209  -15.2526   24.4935 H   0  0  0  0  0  0
  -28.4850  -14.2671   25.4229 H   0  0  0  0  0  0
  -26.1941  -19.8214   20.7588 H   0  0  0  0  0  0
  -27.9076  -19.7379   20.6030 H   0  0  0  0  0  0
  -29.9060  -15.9014   24.9774 H   0  0  0  0  0  0
  -29.1219  -16.4258   23.5381 H   0  0  0  0  0  0
  -31.2973  -14.2645   23.6924 H   0  0  0  0  0  0
  -31.4037  -15.8844   23.0269 H   0  0  0  0  0  0
  -26.5233  -22.2980   18.7769 H   0  0  0  0  0  0
  -28.1630  -22.1389   19.2791 H   0  0  0  0  0  0
  -29.3213  -14.1602   21.9869 H   0  0  0  0  0  0
  1 25  1  0  0  0
  1 30  2  0  0  0
  1 90  1  0  0  0
  2  3  1  0  0  0
  2 25  1  0  0  0
  2 91  1  0  0  0
  2 92  1  0  0  0
  3  4  1  0  0  0
  3 93  1  0  0  0
  3 94  1  0  0  0
  4  5  1  0  0  0
  4 95  1  0  0  0
  4 96  1  0  0  0
  5  6  1  0  0  0
  5 26  1  0  0  0
  5 97  1  0  0  0
  6 25  1  0  0  0
  6 98  1  0  0  0
  6 99  1  0  0  0
  7  8  2  0  0  0
  7 26  1  0  0  0
  7 29  1  0  0  0
  8  9  1  0  0  0
  8 22  1  0  0  0
  9 10  1  0  0  0
  9 27  2  0  0  0
 10 11  2  0  0  0
 10 15  1  0  0  0
 11 12  1  0  0  0
 11100  1  0  0  0
 12 13  2  0  0  0
 12101  1  0  0  0
 13 14  1  0  0  0
 13 31  1  0  0  0
 14 15  2  0  0  0
 14102  1  0  0  0
 15103  1  0  0  0
 16 17  2  0  0  0
 16 21  1  0  0  0
 16 31  1  0  0  0
 17 18  1  0  0  0
 17104  1  0  0  0
 18 19  2  0  0  0
 18105  1  0  0  0
 19 20  1  0  0  0
 19 24  1  0  0  0
 20 21  2  0  0  0
 20106  1  0  0  0
 21 23  1  0  0  0
 22 28  1  0  0  0
 22 32  2  0  0  0
 26 27  1  0  0  0
 28107  1  0  0  0
 28108  1  0  0  0
 29109  1  0  0  0
 29110  1  0  0  0
 33 34  1  0  0  0
 33 66  1  0  0  0
 33 70  2  0  0  0
 34 36  1  0  0  0
 34 59  1  0  0  0
 34111  1  0  0  0
 35 44  2  0  0  0
 35 45  1  0  0  0
 35 68  1  0  0  0
 36 56  1  0  0  0
 36112  1  0  0  0
 37 39  1  0  0  0
 37 47  1  0  0  0
 37 66  1  0  0  0
 37113  1  0  0  0
 38 43  2  0  0  0
 38 46  1  0  0  0
 38 47  1  0  0  0
 39 64  1  0  0  0
 39 67  2  0  0  0
 40 52  1  0  0  0
 40 53  2  0  0  0
 40 58  1  0  0  0
 41114  1  0  0  0
 41115  1  0  0  0
 41116  1  0  0  0
 41 48  1  0  0  0
 42 43  1  0  0  0
 42 66  1  0  0  0
 42117  1  0  0  0
 42118  1  0  0  0
 43 44  1  0  0  0
 44119  1  0  0  0
 45 46  2  0  0  0
 45120  1  0  0  0
 46121  1  0  0  0
 47122  1  0  0  0
 47123  1  0  0  0
 48 56  1  0  0  0
 48 65  1  0  0  0
 48124  1  0  0  0
 49 50  1  0  0  0
 49 53  1  0  0  0
 49 64  1  0  0  0
 49125  1  0  0  0
 50 51  1  0  0  0
 50126  1  0  0  0
 50127  1  0  0  0
 51 52  1  0  0  0
 51128  1  0  0  0
 51129  1  0  0  0
 52130  1  0  0  0
 52131  1  0  0  0
 53 54  1  0  0  0
 54 55  2  0  0  0
 54132  1  0  0  0
 55 57  1  0  0  0
 55133  1  0  0  0
 56 69  2  0  0  0
 57 58  2  0  0  0
 57134  1  0  0  0
 58135  1  0  0  0
 59 60  1  0  0  0
 59 61  1  0  0  0
 59 62  1  0  0  0
 60136  1  0  0  0
 60137  1  0  0  0
 60138  1  0  0  0
 61139  1  0  0  0
 61140  1  0  0  0
 61141  1  0  0  0
 62142  1  0  0  0
 62143  1  0  0  0
 62144  1  0  0  0
 63 65  1  0  0  0
 63145  1  0  0  0
 63146  1  0  0  0
 63147  1  0  0  0
 64148  1  0  0  0
 65149  1  0  0  0
 68 89  1  0  0  0
 71 74  2  0  0  0
 71 75  1  0  0  0
 71150  1  0  0  0
 72 74  1  0  0  0
 72 76  2  0  0  0
 72151  1  0  0  0
 73 75  2  0  0  0
 73 76  1  0  0  0
 73152  1  0  0  0
 74 82  1  0  0  0
 75 83  1  0  0  0
 76 84  1  0  0  0
 77 78  1  0  0  0
 77 79  1  0  0  0
 77153  1  0  0  0
 77154  1  0  0  0
 78 80  1  0  0  0
 78155  1  0  0  0
 78156  1  0  0  0
 79 81  1  0  0  0
 79157  1  0  0  0
 79158  1  0  0  0
 80 82  1  0  0  0
 80159  1  0  0  0
 80160  1  0  0  0
 81 82  1  0  0  0
 81161  1  0  0  0
 81162  1  0  0  0
 82163  1  0  0  0
 83 85  1  0  0  0
 83164  1  0  0  0
 83165  1  0  0  0
 84 86  1  0  0  0
 84166  1  0  0  0
 84167  1  0  0  0
 85 87  1  0  0  0
 85168  1  0  0  0
 85169  1  0  0  0
 86 89  1  0  0  0
 86170  1  0  0  0
 86171  1  0  0  0
 87 88  1  0  0  0
 87172  1  0  0  0
 87173  1  0  0  0
 88 90  1  0  0  0
 88174  1  0  0  0
 88175  1  0  0  0
 89176  1  0  0  0
 89177  1  0  0  0
 90178  1  0  0  0
M  ISO  4   1 100  68 101  89 101  90 100
M  END
> <chiral flag>
0

> <version>
0

> <s_m_source_file>
/data/baiqing/PycharmProjects/Reinvent-master-3.2/result/LINK_invent/BTK/process_docking_weight1_custom_sum_contain_oxygen_bond_distance_aromatic_linkinvent_7_9_3/rearranged_h_0036.sdf

> <i_m_source_file_index>
87

> <r_mmod_Potential_Energy-OPLS-2005>
25977.50390625

> <r_mmod_Stretch_Energy-OPLS-2005>
15313.642578125

> <r_mmod_Bend_Energy-OPLS-2005>
1874.41577148438

> <r_mmod_Torsional_Energy-OPLS-2005>
644.45703125

> <r_mmod_Improper_Torsional_Energy-OPLS-2005>
76.5829772949219

> <r_mmod_Van_der_Waal_Energy-OPLS-2005>
4980.92822265625

> <r_mmod_Electrostatic_Energy-OPLS-2005>
-363.230712890625

> <r_mmod_Solvation_Energy-OPLS-2005>
-192.838348388672

> <b_mmod_Minimization_Converged-OPLS-2005>
0

> <r_mmod_RMS_Derivative-OPLS-2005>
15.6353302001953

$$$$
88
                    3D
 Structure written by MMmdl.
167175  0  0  1  0            999 V2000
  -30.6525  -14.4584   20.6433 C   0  0  0  0  0  0
  -30.4054  -12.3475   19.3530 C   0  0  0  0  0  0
  -29.4461  -12.5732   18.1654 C   0  0  0  0  0  0
  -27.9909  -12.3549   18.6245 C   0  0  0  0  0  0
  -27.6458  -13.1922   19.8833 C   0  0  2  0  0  0
  -28.6986  -12.9284   20.9794 C   0  0  0  0  0  0
  -25.2578  -13.8142   20.5864 C   0  0  0  0  0  0
  -24.1761  -13.0367   20.9347 C   0  0  0  0  0  0
  -24.6353  -11.6883   20.8870 C   0  0  0  0  0  0
  -23.9040  -10.4248   21.0491 C   0  0  0  0  0  0
  -24.3639   -9.4082   21.9140 C   0  0  0  0  0  0
  -23.6270   -8.2144   22.0710 C   0  0  0  0  0  0
  -22.4203   -8.0265   21.3620 C   0  0  0  0  0  0
  -21.9804   -9.0315   20.4823 C   0  0  0  0  0  0
  -22.7164  -10.2177   20.3224 C   0  0  0  0  0  0
  -21.6838   -6.0709   22.5277 C   0  0  0  0  0  0
  -21.4010   -6.5631   23.8204 C   0  0  0  0  0  0
  -21.3656   -5.6800   24.9170 C   0  0  0  0  0  0
  -21.6042   -4.3061   24.7236 C   0  0  0  0  0  0
  -21.8811   -3.8139   23.4367 C   0  0  0  0  0  0
  -21.9164   -4.6943   22.3416 C   0  0  0  0  0  0
  -22.7830  -13.5167   21.1963 C   0  0  0  0  0  0
  -22.1658   -4.2099   21.1010 F   0  0  0  0  0  0
  -21.5619   -3.4569   25.7787 F   0  0  0  0  0  0
  -30.0038  -13.2920   20.4047 N   0  0  0  0  0  0
  -26.2933  -12.9229   20.3520 N   0  0  0  0  0  0
  -25.9256  -11.6412   20.5909 N   0  0  0  0  0  0
  -22.0447  -12.8133   22.0508 N   0  0  0  0  0  0
  -25.4343  -15.1814   20.4403 N   0  0  0  0  0  0
  -31.8234  -14.6538   20.2619 O   0  0  0  0  0  0
  -21.6616   -6.8837   21.4231 O   0  0  0  0  0  0
  -22.3513  -14.5482   20.6802 O   0  0  0  0  0  0
  -24.6037  -31.8704   23.2148 C   0  0  0  0  0  0
  -25.8942  -32.4805   23.8427 C   0  0  1  0  0  0
  -27.2218  -27.4734   20.0971 C   0  0  0  0  0  0
  -25.5764  -33.8600   24.2334 N   0  0  0  0  0  0
  -23.3902  -30.4944   21.5574 C   0  0  2  0  0  0
  -24.8357  -28.9719   20.1151 C   0  0  0  0  0  0
  -22.7342  -29.4677   22.5087 C   0  0  0  0  0  0
  -18.0237  -28.1365   22.8487 C   0  0  0  0  0  0
  -24.1489  -36.7323   23.2646 C   0  0  0  0  0  0
  -25.9171  -30.8530   21.3609 C   0  0  0  0  0  0
  -25.9970  -29.4945   20.7022 C   0  0  0  0  0  0
  -27.1977  -28.7540   20.6864 C   0  0  0  0  0  0
  -26.0544  -26.9655   19.4939 C   0  0  0  0  0  0
  -24.8597  -27.7081   19.5033 C   0  0  0  0  0  0
  -23.5876  -29.8199   20.1751 C   0  0  0  0  0  0
  -25.4093  -36.3116   24.0362 C   0  0  1  0  0  0
  -20.5807  -28.3635   23.1345 C   0  0  2  0  0  0
  -20.6682  -26.9368   22.5456 C   0  0  0  0  0  0
  -19.5695  -26.6391   21.5196 C   0  0  0  0  0  0
  -18.1877  -26.7914   22.1633 C   0  0  0  0  0  0
  -19.1473  -28.8824   23.2911 C   0  0  0  0  0  0
  -18.9426  -30.1429   23.8912 C   0  0  0  0  0  0
  -17.6425  -30.6560   24.0579 C   0  0  0  0  0  0
  -25.9031  -34.9460   23.5192 C   0  0  0  0  0  0
  -16.5313  -29.9068   23.6314 C   0  0  0  0  0  0
  -16.7236  -28.6497   23.0323 C   0  0  0  0  0  0
  -26.4438  -31.6524   25.0682 C   0  0  0  0  0  0
  -25.3731  -31.3495   26.1428 C   0  0  0  0  0  0
  -27.0256  -30.2984   24.5986 C   0  0  0  0  0  0
  -27.6137  -32.4135   25.7319 C   0  0  0  0  0  0
  -27.5595  -37.1803   24.8459 C   0  0  0  0  0  0
  -21.4083  -29.2992   22.3767 N   0  0  0  0  0  0
  -26.4290  -37.3795   23.9418 N   0  0  0  0  0  0
  -24.6557  -31.0848   22.1017 N   0  0  0  0  0  0
  -23.4138  -28.8239   23.3132 O   0  0  0  0  0  0
  -28.3687  -26.7231   20.1266 O   0  0  0  0  0  0
  -26.5717  -34.8910   22.4826 O   0  0  0  0  0  0
  -23.5253  -32.1470   23.7567 O   0  0  0  0  0  0
  -26.6079  -22.0414   19.2120 C   0  0  0  0  0  0
  -28.0112  -23.9873   18.9814 C   0  0  0  0  0  0
  -27.4772  -22.8074   18.4244 C   0  0  0  0  0  0
  -26.3343  -22.4432   20.5333 C   0  0  0  0  0  0
  -27.6801  -24.3275   20.3106 C   0  0  0  0  0  0
  -27.8399  -22.3579   17.0206 C   0  0  0  0  0  0
  -25.4563  -21.5835   21.4323 C   0  0  0  0  0  0
  -28.2722  -25.5718   20.9751 C   0  0  0  0  0  0
  -25.9885  -20.1419   21.6185 C   0  0  0  0  0  0
  -27.3530  -20.0316   22.3375 C   0  0  0  0  0  0
  -28.0245  -18.6405   22.2120 C   0  0  0  0  0  0
  -29.0137  -18.2839   23.3409 C   0  0  0  0  0  0
  -29.4484  -16.7969   23.3508 C   0  0  0  0  0  0
  -30.4483  -16.3828   22.2308 C   0  0  0  0  0  0
  -26.8675  -23.5607   21.0728 N   0  0  0  0  0  0
  -29.9113  -15.4088   21.2588 N   0  0  0  0  0  0
  -31.4409  -12.4841   19.0388 H   0  0  0  0  0  0
  -30.3369  -11.3168   19.7030 H   0  0  0  0  0  0
  -29.6775  -11.9267   17.3189 H   0  0  0  0  0  0
  -29.5598  -13.5952   17.8044 H   0  0  0  0  0  0
  -27.8715  -11.2939   18.8500 H   0  0  0  0  0  0
  -27.2879  -12.5739   17.8231 H   0  0  0  0  0  0
  -27.6957  -14.2447   19.6123 H   0  0  0  0  0  0
  -28.7083  -11.8693   21.2399 H   0  0  0  0  0  0
  -28.4717  -13.4533   21.9113 H   0  0  0  0  0  0
  -25.2882   -9.5389   22.4547 H   0  0  0  0  0  0
  -24.0034   -7.4432   22.7290 H   0  0  0  0  0  0
  -21.0679   -8.8900   19.9194 H   0  0  0  0  0  0
  -22.3587  -10.9761   19.6388 H   0  0  0  0  0  0
  -21.2054   -7.6147   23.9712 H   0  0  0  0  0  0
  -21.1484   -6.0538   25.9070 H   0  0  0  0  0  0
  -22.0611   -2.7587   23.2882 H   0  0  0  0  0  0
  -22.4001  -11.9665   22.4672 H   0  0  0  0  0  0
  -21.1167  -13.1233   22.3004 H   0  0  0  0  0  0
  -24.6910  -15.8461   20.6237 H   0  0  0  0  0  0
  -26.2943  -15.6299   20.1379 H   0  0  0  0  0  0
  -26.7007  -32.5566   23.1209 H   0  0  0  0  0  0
  -24.9484  -33.9738   25.0159 H   0  0  0  0  0  0
  -22.6753  -31.3104   21.4216 H   0  0  0  0  0  0
  -23.3735  -35.9674   23.3302 H   0  0  0  0  0  0
  -24.3628  -36.8938   22.2073 H   0  0  0  0  0  0
  -23.7252  -37.6523   23.6667 H   0  0  0  0  0  0
  -26.0314  -31.6353   20.6097 H   0  0  0  0  0  0
  -26.8041  -30.8974   21.9809 H   0  0  0  0  0  0
  -28.0941  -29.1528   21.1366 H   0  0  0  0  0  0
  -26.0574  -25.9968   19.0171 H   0  0  0  0  0  0
  -23.9691  -27.2985   19.0446 H   0  0  0  0  0  0
  -23.6586  -30.5896   19.4076 H   0  0  0  0  0  0
  -22.7191  -29.2166   19.9002 H   0  0  0  0  0  0
  -25.1262  -36.2020   25.0860 H   0  0  0  0  0  0
  -20.9916  -28.3219   24.1457 H   0  0  0  0  0  0
  -20.5466  -26.2265   23.3653 H   0  0  0  0  0  0
  -21.6576  -26.7325   22.1326 H   0  0  0  0  0  0
  -19.6869  -25.6322   21.1153 H   0  0  0  0  0  0
  -19.6620  -27.3268   20.6774 H   0  0  0  0  0  0
  -17.4116  -26.6620   21.4065 H   0  0  0  0  0  0
  -18.0347  -26.0046   22.9039 H   0  0  0  0  0  0
  -19.7899  -30.7236   24.2292 H   0  0  0  0  0  0
  -17.4967  -31.6241   24.5213 H   0  0  0  0  0  0
  -15.5307  -30.2984   23.7613 H   0  0  0  0  0  0
  -15.8636  -28.0832   22.7003 H   0  0  0  0  0  0
  -24.6034  -30.6728   25.7702 H   0  0  0  0  0  0
  -24.8767  -32.2555   26.4902 H   0  0  0  0  0  0
  -25.8118  -30.8651   27.0172 H   0  0  0  0  0  0
  -26.2765  -29.6668   24.1198 H   0  0  0  0  0  0
  -27.4241  -29.7253   25.4371 H   0  0  0  0  0  0
  -27.8517  -30.4296   23.8985 H   0  0  0  0  0  0
  -27.2962  -33.3470   26.1953 H   0  0  0  0  0  0
  -28.3849  -32.6593   24.9997 H   0  0  0  0  0  0
  -28.0920  -31.8186   26.5114 H   0  0  0  0  0  0
  -28.2609  -38.0096   24.7485 H   0  0  0  0  0  0
  -28.1093  -36.2637   24.6286 H   0  0  0  0  0  0
  -27.2336  -37.1443   25.8865 H   0  0  0  0  0  0
  -20.9256  -29.8685   21.6946 H   0  0  0  0  0  0
  -26.0195  -38.2882   24.1400 H   0  0  0  0  0  0
  -26.1726  -21.1284   18.8267 H   0  0  0  0  0  0
  -28.6569  -24.6286   18.4025 H   0  0  0  0  0  0
  -27.0057  -22.4905   16.3297 H   0  0  0  0  0  0
  -28.0927  -21.2965   17.0397 H   0  0  0  0  0  0
  -28.6973  -22.8963   16.6169 H   0  0  0  0  0  0
  -24.4527  -21.5565   21.0076 H   0  0  0  0  0  0
  -25.3351  -22.0668   22.4035 H   0  0  0  0  0  0
  -29.2706  -25.3382   21.3375 H   0  0  0  0  0  0
  -27.6991  -25.8246   21.8716 H   0  0  0  0  0  0
  -26.0332  -19.6608   20.6421 H   0  0  0  0  0  0
  -25.2516  -19.5780   22.1875 H   0  0  0  0  0  0
  -27.2120  -20.2832   23.3895 H   0  0  0  0  0  0
  -28.0273  -20.7868   21.9380 H   0  0  0  0  0  0
  -28.5610  -18.5922   21.2636 H   0  0  0  0  0  0
  -27.2557  -17.8714   22.1765 H   0  0  0  0  0  0
  -29.8991  -18.9169   23.2871 H   0  0  0  0  0  0
  -28.5545  -18.5170   24.3038 H   0  0  0  0  0  0
  -28.5790  -16.1380   23.4041 H   0  0  0  0  0  0
  -29.9365  -16.6332   24.3098 H   0  0  0  0  0  0
  -31.3082  -15.9105   22.7078 H   0  0  0  0  0  0
  -30.8500  -17.2673   21.7387 H   0  0  0  0  0  0
  -28.9210  -15.3240   21.2136 H   0  0  0  0  0  0
  1 25  1  0  0  0
  1 30  2  0  0  0
  1 86  1  0  0  0
  2  3  1  0  0  0
  2 25  1  0  0  0
  2 87  1  0  0  0
  2 88  1  0  0  0
  3  4  1  0  0  0
  3 89  1  0  0  0
  3 90  1  0  0  0
  4  5  1  0  0  0
  4 91  1  0  0  0
  4 92  1  0  0  0
  5  6  1  0  0  0
  5 26  1  0  0  0
  5 93  1  0  0  0
  6 25  1  0  0  0
  6 94  1  0  0  0
  6 95  1  0  0  0
  7  8  2  0  0  0
  7 26  1  0  0  0
  7 29  1  0  0  0
  8  9  1  0  0  0
  8 22  1  0  0  0
  9 10  1  0  0  0
  9 27  2  0  0  0
 10 11  2  0  0  0
 10 15  1  0  0  0
 11 12  1  0  0  0
 11 96  1  0  0  0
 12 13  2  0  0  0
 12 97  1  0  0  0
 13 14  1  0  0  0
 13 31  1  0  0  0
 14 15  2  0  0  0
 14 98  1  0  0  0
 15 99  1  0  0  0
 16 17  2  0  0  0
 16 21  1  0  0  0
 16 31  1  0  0  0
 17 18  1  0  0  0
 17100  1  0  0  0
 18 19  2  0  0  0
 18101  1  0  0  0
 19 20  1  0  0  0
 19 24  1  0  0  0
 20 21  2  0  0  0
 20102  1  0  0  0
 21 23  1  0  0  0
 22 28  1  0  0  0
 22 32  2  0  0  0
 26 27  1  0  0  0
 28103  1  0  0  0
 28104  1  0  0  0
 29105  1  0  0  0
 29106  1  0  0  0
 33 34  1  0  0  0
 33 66  1  0  0  0
 33 70  2  0  0  0
 34 36  1  0  0  0
 34 59  1  0  0  0
 34107  1  0  0  0
 35 44  2  0  0  0
 35 45  1  0  0  0
 35 68  1  0  0  0
 36 56  1  0  0  0
 36108  1  0  0  0
 37 39  1  0  0  0
 37 47  1  0  0  0
 37 66  1  0  0  0
 37109  1  0  0  0
 38 43  2  0  0  0
 38 46  1  0  0  0
 38 47  1  0  0  0
 39 64  1  0  0  0
 39 67  2  0  0  0
 40 52  1  0  0  0
 40 53  2  0  0  0
 40 58  1  0  0  0
 41110  1  0  0  0
 41111  1  0  0  0
 41112  1  0  0  0
 41 48  1  0  0  0
 42 43  1  0  0  0
 42 66  1  0  0  0
 42113  1  0  0  0
 42114  1  0  0  0
 43 44  1  0  0  0
 44115  1  0  0  0
 45 46  2  0  0  0
 45116  1  0  0  0
 46117  1  0  0  0
 47118  1  0  0  0
 47119  1  0  0  0
 48 56  1  0  0  0
 48 65  1  0  0  0
 48120  1  0  0  0
 49 50  1  0  0  0
 49 53  1  0  0  0
 49 64  1  0  0  0
 49121  1  0  0  0
 50 51  1  0  0  0
 50122  1  0  0  0
 50123  1  0  0  0
 51 52  1  0  0  0
 51124  1  0  0  0
 51125  1  0  0  0
 52126  1  0  0  0
 52127  1  0  0  0
 53 54  1  0  0  0
 54 55  2  0  0  0
 54128  1  0  0  0
 55 57  1  0  0  0
 55129  1  0  0  0
 56 69  2  0  0  0
 57 58  2  0  0  0
 57130  1  0  0  0
 58131  1  0  0  0
 59 60  1  0  0  0
 59 61  1  0  0  0
 59 62  1  0  0  0
 60132  1  0  0  0
 60133  1  0  0  0
 60134  1  0  0  0
 61135  1  0  0  0
 61136  1  0  0  0
 61137  1  0  0  0
 62138  1  0  0  0
 62139  1  0  0  0
 62140  1  0  0  0
 63 65  1  0  0  0
 63141  1  0  0  0
 63142  1  0  0  0
 63143  1  0  0  0
 64144  1  0  0  0
 65145  1  0  0  0
 68 78  1  0  0  0
 71 73  2  0  0  0
 71 74  1  0  0  0
 71146  1  0  0  0
 72 73  1  0  0  0
 72 75  2  0  0  0
 72147  1  0  0  0
 73 76  1  0  0  0
 74 77  1  0  0  0
 74 85  2  0  0  0
 75 78  1  0  0  0
 75 85  1  0  0  0
 76148  1  0  0  0
 76149  1  0  0  0
 76150  1  0  0  0
 77 79  1  0  0  0
 77151  1  0  0  0
 77152  1  0  0  0
 78153  1  0  0  0
 78154  1  0  0  0
 79 80  1  0  0  0
 79155  1  0  0  0
 79156  1  0  0  0
 80 81  1  0  0  0
 80157  1  0  0  0
 80158  1  0  0  0
 81 82  1  0  0  0
 81159  1  0  0  0
 81160  1  0  0  0
 82 83  1  0  0  0
 82161  1  0  0  0
 82162  1  0  0  0
 83 84  1  0  0  0
 83163  1  0  0  0
 83164  1  0  0  0
 84 86  1  0  0  0
 84165  1  0  0  0
 84166  1  0  0  0
 86167  1  0  0  0
M  ISO  4   1 100  68 101  78 101  86 100
M  END
> <chiral flag>
0

> <version>
0

> <s_m_source_file>
/data/baiqing/PycharmProjects/Reinvent-master-3.2/result/LINK_invent/BTK/process_docking_weight1_custom_sum_contain_oxygen_bond_distance_aromatic_linkinvent_7_9_3/rearranged_h_0036.sdf

> <i_m_source_file_index>
88

> <r_mmod_Potential_Energy-OPLS-2005>
-125.356666564941

> <r_mmod_Stretch_Energy-OPLS-2005>
35.1379814147949

> <r_mmod_Bend_Energy-OPLS-2005>
94.8081588745117

> <r_mmod_Torsional_Energy-OPLS-2005>
264.2802734375

> <r_mmod_Improper_Torsional_Energy-OPLS-2005>
2.53957200050354

> <r_mmod_Van_der_Waal_Energy-OPLS-2005>
149.151550292969

> <r_mmod_Electrostatic_Energy-OPLS-2005>
-482.110076904297

> <r_mmod_Solvation_Energy-OPLS-2005>
-206.677062988281

> <b_mmod_Minimization_Converged-OPLS-2005>
0

> <r_mmod_RMS_Derivative-OPLS-2005>
13.7667274475098

$$$$
89
                    3D
 Structure written by MMmdl.
165174  0  0  1  0            999 V2000
  -29.5492  -15.6308   20.6458 C   0  0  0  0  0  0
  -30.3152  -13.1820   19.6910 C   0  0  0  0  0  0
  -29.5400  -12.7174   18.4113 C   0  0  0  0  0  0
  -28.1026  -12.2873   18.7585 C   0  0  0  0  0  0
  -27.5214  -13.2350   19.8319 C   0  0  2  0  0  0
  -28.4204  -13.3811   21.0564 C   0  0  0  0  0  0
  -25.1928  -13.8092   20.5589 C   0  0  0  0  0  0
  -24.1371  -13.0342   20.9290 C   0  0  0  0  0  0
  -24.6007  -11.6821   20.8787 C   0  0  0  0  0  0
  -23.8819  -10.4223   21.0471 C   0  0  0  0  0  0
  -24.3488   -9.4174   21.9225 C   0  0  0  0  0  0
  -23.6221   -8.2190   22.0781 C   0  0  0  0  0  0
  -22.4212   -8.0216   21.3558 C   0  0  0  0  0  0
  -21.9774   -9.0154   20.4666 C   0  0  0  0  0  0
  -22.7030  -10.2048   20.3083 C   0  0  0  0  0  0
  -21.6830   -6.0694   22.5288 C   0  0  0  0  0  0
  -21.3989   -6.5618   23.8218 C   0  0  0  0  0  0
  -21.3647   -5.6779   24.9189 C   0  0  0  0  0  0
  -21.6038   -4.3047   24.7243 C   0  0  0  0  0  0
  -21.8826   -3.8123   23.4379 C   0  0  0  0  0  0
  -21.9178   -4.6925   22.3423 C   0  0  0  0  0  0
  -22.7472  -13.5201   21.1988 C   0  0  0  0  0  0
  -22.1667   -4.2116   21.1004 F   0  0  0  0  0  0
  -21.5617   -3.4537   25.7768 F   0  0  0  0  0  0
  -29.4876  -14.1814   20.5394 N   0  0  0  0  0  0
  -26.2052  -12.9177   20.2768 N   0  0  0  0  0  0
  -25.8816  -11.6357   20.5511 N   0  0  0  0  0  0
  -22.0150  -12.8211   22.0564 N   0  0  0  0  0  0
  -25.3683  -15.1833   20.4078 N   0  0  0  0  0  0
  -30.7427  -15.8843   20.3055 O   0  0  0  0  0  0
  -21.6610   -6.8796   21.4245 O   0  0  0  0  0  0
  -22.3216  -14.5525   20.6810 O   0  0  0  0  0  0
  -24.6752  -31.9545   23.2115 C   0  0  0  0  0  0
  -25.9629  -32.5146   23.8583 C   0  0  1  0  0  0
  -26.9722  -27.3138   20.1132 C   0  0  0  0  0  0
  -25.6455  -33.8868   24.2579 N   0  0  0  0  0  0
  -23.4685  -30.6408   21.5615 C   0  0  2  0  0  0
  -24.8421  -29.1001   20.0645 C   0  0  0  0  0  0
  -22.9347  -29.6489   22.5883 C   0  0  0  0  0  0
  -18.2889  -27.5125   22.8645 C   0  0  0  0  0  0
  -24.1509  -36.7331   23.2605 C   0  0  0  0  0  0
  -26.0107  -30.8337   21.4121 C   0  0  0  0  0  0
  -26.0112  -29.4712   20.7392 C   0  0  0  0  0  0
  -27.0995  -28.5540   20.8050 C   0  0  0  0  0  0
  -25.9366  -27.1348   19.2040 C   0  0  0  0  0  0
  -24.8219  -27.9651   19.2629 C   0  0  0  0  0  0
  -23.6234  -29.9786   20.1715 C   0  0  0  0  0  0
  -25.4139  -36.3205   24.0322 C   0  0  1  0  0  0
  -21.2186  -28.2162   23.2236 C   0  0  2  0  0  0
  -22.2359  -26.9590   22.1353 C   0  0  0  0  0  0
  -19.8909  -25.1433   20.9069 C   0  0  0  0  0  0
  -18.3065  -25.9973   21.8426 C   0  0  0  0  0  0
  -19.4708  -28.3821   23.4148 C   0  0  0  0  0  0
  -19.1182  -29.6950   23.9386 C   0  0  0  0  0  0
  -17.8184  -30.2527   23.9893 C   0  0  0  0  0  0
  -25.9184  -34.9643   23.5140 C   0  0  0  0  0  0
  -16.7522  -29.4807   23.5205 C   0  0  0  0  0  0
  -16.9978  -28.1794   22.9835 C   0  0  0  0  0  0
  -26.4653  -31.6667   25.0882 C   0  0  0  0  0  0
  -25.3728  -31.3810   26.1440 C   0  0  0  0  0  0
  -27.0419  -30.3047   24.6351 C   0  0  0  0  0  0
  -27.6193  -32.4258   25.7787 C   0  0  0  0  0  0
  -27.5599  -37.1865   24.8458 C   0  0  0  0  0  0
  -21.6359  -29.4457   22.6144 N   0  0  0  0  0  0
  -26.4290  -37.3906   23.9437 N   0  0  0  0  0  0
  -24.7387  -31.1915   22.0862 N   0  0  0  0  0  0
  -23.6982  -29.0254   23.3332 O   0  0  0  0  0  0
  -27.5125  -26.1116   20.4858 O   0  0  0  0  0  0
  -26.5531  -34.9058   22.4572 O   0  0  0  0  0  0
  -23.5922  -32.2393   23.7503 O   0  0  0  0  0  0
  -21.2119  -26.9230   19.9513 C   0  0  0  0  0  0
  -20.5489  -25.8177   22.8592 C   0  0  0  0  0  0
  -20.2786  -27.2678   21.2100 C   0  0  0  0  0  0
  -22.1980  -25.7169   19.9038 C   0  0  0  0  0  0
  -21.8154  -24.5567   22.3831 C   0  0  0  0  0  0
  -22.6092  -24.7234   21.0262 C   0  0  0  0  0  0
  -23.7774  -22.7259   21.8575 C   0  0  0  0  0  0
  -19.4031  -28.4746   20.6499 C   0  0  0  0  0  0
  -22.6826  -25.3770   18.4984 C   0  0  0  0  0  0
  -24.8098  -21.0976   21.3865 C   0  0  0  0  0  0
  -26.2357  -19.6760   21.7543 C   0  0  0  0  0  0
  -25.2505  -24.3164   20.4158 C   0  0  0  0  0  0
  -27.5281  -18.3285   20.8995 C   0  0  0  0  0  0
  -26.4149  -25.2458   21.1465 C   0  0  0  0  0  0
  -22.5887  -23.1849   22.6856 N   0  0  0  0  0  0
  -23.9198  -23.9311   21.1158 N   0  0  0  0  0  0
  -28.3343  -16.6481   20.9994 N   0  0  0  0  0  0
  -31.2579  -13.6417   19.3879 H   0  0  0  0  0  0
  -30.6071  -12.3183   20.2940 H   0  0  0  0  0  0
  -30.0741  -11.9107   17.9046 H   0  0  0  0  0  0
  -29.4980  -13.5508   17.7094 H   0  0  0  0  0  0
  -28.1303  -11.2683   19.1483 H   0  0  0  0  0  0
  -27.4727  -12.2675   17.8676 H   0  0  0  0  0  0
  -27.4310  -14.1985   19.3253 H   0  0  0  0  0  0
  -28.7464  -12.4260   21.4715 H   0  0  0  0  0  0
  -27.9238  -13.9235   21.8644 H   0  0  0  0  0  0
  -25.2643   -9.5710   22.4779 H   0  0  0  0  0  0
  -23.9953   -7.4598   22.7515 H   0  0  0  0  0  0
  -21.0689   -8.8623   19.9008 H   0  0  0  0  0  0
  -22.3461  -10.9580   19.6196 H   0  0  0  0  0  0
  -21.1990   -7.6131   23.9695 H   0  0  0  0  0  0
  -21.1455   -6.0535   25.9079 H   0  0  0  0  0  0
  -22.0613   -2.7590   23.2884 H   0  0  0  0  0  0
  -22.3748  -11.9868   22.4950 H   0  0  0  0  0  0
  -21.0800  -13.1272   22.2839 H   0  0  0  0  0  0
  -24.5610  -15.7947   20.4736 H   0  0  0  0  0  0
  -26.1091  -15.5783   19.8425 H   0  0  0  0  0  0
  -26.7805  -32.5764   23.1427 H   0  0  0  0  0  0
  -25.0658  -34.0024   25.0769 H   0  0  0  0  0  0
  -22.7444  -31.4524   21.4614 H   0  0  0  0  0  0
  -23.3824  -35.9606   23.3248 H   0  0  0  0  0  0
  -24.3608  -36.8968   22.2023 H   0  0  0  0  0  0
  -23.7215  -37.6510   23.6627 H   0  0  0  0  0  0
  -26.2344  -31.5997   20.6679 H   0  0  0  0  0  0
  -26.8665  -30.8173   22.0736 H   0  0  0  0  0  0
  -27.9252  -28.7297   21.4799 H   0  0  0  0  0  0
  -25.9157  -26.2749   18.5543 H   0  0  0  0  0  0
  -23.9526  -27.7937   18.6534 H   0  0  0  0  0  0
  -23.7049  -30.7570   19.4123 H   0  0  0  0  0  0
  -22.7252  -29.4126   19.9222 H   0  0  0  0  0  0
  -25.1300  -36.2035   25.0805 H   0  0  0  0  0  0
  -21.5923  -28.1535   24.2513 H   0  0  0  0  0  0
  -22.9578  -26.5346   22.8467 H   0  0  0  0  0  0
  -22.9489  -27.4314   21.4523 H   0  0  0  0  0  0
  -19.8847  -24.0659   21.0990 H   0  0  0  0  0  0
  -19.6709  -25.1642   19.8337 H   0  0  0  0  0  0
  -17.5199  -26.1188   21.0983 H   0  0  0  0  0  0
  -17.8996  -25.2300   22.5051 H   0  0  0  0  0  0
  -19.9177  -30.3289   24.3000 H   0  0  0  0  0  0
  -17.6539  -31.2462   24.3873 H   0  0  0  0  0  0
  -15.7448  -29.8723   23.5493 H   0  0  0  0  0  0
  -16.1396  -27.6519   22.5923 H   0  0  0  0  0  0
  -24.5865  -30.7317   25.7572 H   0  0  0  0  0  0
  -24.9008  -32.2998   26.4921 H   0  0  0  0  0  0
  -25.7890  -30.8813   27.0197 H   0  0  0  0  0  0
  -26.3028  -29.6898   24.1208 H   0  0  0  0  0  0
  -27.3873  -29.7219   25.4904 H   0  0  0  0  0  0
  -27.9047  -30.4244   23.9793 H   0  0  0  0  0  0
  -27.2818  -33.3536   26.2416 H   0  0  0  0  0  0
  -28.4060  -32.6841   25.0683 H   0  0  0  0  0  0
  -28.0770  -31.8291   26.5686 H   0  0  0  0  0  0
  -28.2565  -38.0217   24.7614 H   0  0  0  0  0  0
  -28.1163  -36.2767   24.6148 H   0  0  0  0  0  0
  -27.2335  -37.1335   25.8862 H   0  0  0  0  0  0
  -21.0052  -29.9375   21.9993 H   0  0  0  0  0  0
  -26.0156  -38.2949   24.1537 H   0  0  0  0  0  0
  -21.1108  -27.4814   19.0300 H   0  0  0  0  0  0
  -19.9858  -25.7628   23.7820 H   0  0  0  0  0  0
  -19.8885  -28.9554   19.8010 H   0  0  0  0  0  0
  -19.2023  -29.3457   21.2676 H   0  0  0  0  0  0
  -18.4497  -28.1228   20.2562 H   0  0  0  0  0  0
  -21.9345  -25.6732   17.7641 H   0  0  0  0  0  0
  -22.8109  -24.2997   18.3878 H   0  0  0  0  0  0
  -23.6121  -25.8438   18.2012 H   0  0  0  0  0  0
  -23.9722  -20.4300   21.1916 H   0  0  0  0  0  0
  -25.1289  -21.3653   20.3811 H   0  0  0  0  0  0
  -25.8357  -19.1229   22.6052 H   0  0  0  0  0  0
  -26.9653  -20.3212   22.2455 H   0  0  0  0  0  0
  -25.7468  -23.3964   20.1161 H   0  0  0  0  0  0
  -24.9597  -24.7420   19.4742 H   0  0  0  0  0  0
  -28.4306  -18.9344   20.8117 H   0  0  0  0  0  0
  -27.1711  -18.3033   19.8707 H   0  0  0  0  0  0
  -26.9558  -24.5810   21.8194 H   0  0  0  0  0  0
  -25.8745  -25.9063   21.8260 H   0  0  0  0  0  0
  -27.6090  -16.0349   21.3495 H   0  0  0  0  0  0
  1 25  1  0  0  0
  1 30  2  0  0  0
  1 87  1  0  0  0
  2  3  1  0  0  0
  2 25  1  0  0  0
  2 88  1  0  0  0
  2 89  1  0  0  0
  3  4  1  0  0  0
  3 90  1  0  0  0
  3 91  1  0  0  0
  4  5  1  0  0  0
  4 92  1  0  0  0
  4 93  1  0  0  0
  5  6  1  0  0  0
  5 26  1  0  0  0
  5 94  1  0  0  0
  6 25  1  0  0  0
  6 95  1  0  0  0
  6 96  1  0  0  0
  7  8  2  0  0  0
  7 26  1  0  0  0
  7 29  1  0  0  0
  8  9  1  0  0  0
  8 22  1  0  0  0
  9 10  1  0  0  0
  9 27  2  0  0  0
 10 11  2  0  0  0
 10 15  1  0  0  0
 11 12  1  0  0  0
 11 97  1  0  0  0
 12 13  2  0  0  0
 12 98  1  0  0  0
 13 14  1  0  0  0
 13 31  1  0  0  0
 14 15  2  0  0  0
 14 99  1  0  0  0
 15100  1  0  0  0
 16 17  2  0  0  0
 16 21  1  0  0  0
 16 31  1  0  0  0
 17 18  1  0  0  0
 17101  1  0  0  0
 18 19  2  0  0  0
 18102  1  0  0  0
 19 20  1  0  0  0
 19 24  1  0  0  0
 20 21  2  0  0  0
 20103  1  0  0  0
 21 23  1  0  0  0
 22 28  1  0  0  0
 22 32  2  0  0  0
 26 27  1  0  0  0
 28104  1  0  0  0
 28105  1  0  0  0
 29106  1  0  0  0
 29107  1  0  0  0
 33 34  1  0  0  0
 33 66  1  0  0  0
 33 70  2  0  0  0
 34 36  1  0  0  0
 34 59  1  0  0  0
 34108  1  0  0  0
 35 44  2  0  0  0
 35 45  1  0  0  0
 35 68  1  0  0  0
 36 56  1  0  0  0
 36109  1  0  0  0
 37 39  1  0  0  0
 37 47  1  0  0  0
 37 66  1  0  0  0
 37110  1  0  0  0
 38 43  2  0  0  0
 38 46  1  0  0  0
 38 47  1  0  0  0
 39 64  1  0  0  0
 39 67  2  0  0  0
 40 52  1  0  0  0
 40 53  2  0  0  0
 40 58  1  0  0  0
 41111  1  0  0  0
 41112  1  0  0  0
 41113  1  0  0  0
 41 48  1  0  0  0
 42 43  1  0  0  0
 42 66  1  0  0  0
 42114  1  0  0  0
 42115  1  0  0  0
 43 44  1  0  0  0
 44116  1  0  0  0
 45 46  2  0  0  0
 45117  1  0  0  0
 46118  1  0  0  0
 47119  1  0  0  0
 47120  1  0  0  0
 48 56  1  0  0  0
 48 65  1  0  0  0
 48121  1  0  0  0
 49 50  1  0  0  0
 49 53  1  0  0  0
 49 64  1  0  0  0
 49122  1  0  0  0
 50 51  1  0  0  0
 50123  1  0  0  0
 50124  1  0  0  0
 51 52  1  0  0  0
 51125  1  0  0  0
 51126  1  0  0  0
 52127  1  0  0  0
 52128  1  0  0  0
 53 54  1  0  0  0
 54 55  2  0  0  0
 54129  1  0  0  0
 55 57  1  0  0  0
 55130  1  0  0  0
 56 69  2  0  0  0
 57 58  2  0  0  0
 57131  1  0  0  0
 58132  1  0  0  0
 59 60  1  0  0  0
 59 61  1  0  0  0
 59 62  1  0  0  0
 60133  1  0  0  0
 60134  1  0  0  0
 60135  1  0  0  0
 61136  1  0  0  0
 61137  1  0  0  0
 61138  1  0  0  0
 62139  1  0  0  0
 62140  1  0  0  0
 62141  1  0  0  0
 63 65  1  0  0  0
 63142  1  0  0  0
 63143  1  0  0  0
 63144  1  0  0  0
 64145  1  0  0  0
 65146  1  0  0  0
 68 84  1  0  0  0
 71 73  2  0  0  0
 71 74  1  0  0  0
 71147  1  0  0  0
 72 73  1  0  0  0
 72 75  2  0  0  0
 72148  1  0  0  0
 73 78  1  0  0  0
 74 76  2  0  0  0
 74 79  1  0  0  0
 75 76  1  0  0  0
 75 85  1  0  0  0
 76 86  1  0  0  0
 77 80  1  0  0  0
 77 85  2  0  0  0
 77 86  1  0  0  0
 78149  1  0  0  0
 78150  1  0  0  0
 78151  1  0  0  0
 79152  1  0  0  0
 79153  1  0  0  0
 79154  1  0  0  0
 80 81  1  0  0  0
 80155  1  0  0  0
 80156  1  0  0  0
 81 83  1  0  0  0
 81157  1  0  0  0
 81158  1  0  0  0
 82 84  1  0  0  0
 82 86  1  0  0  0
 82159  1  0  0  0
 82160  1  0  0  0
 83 87  1  0  0  0
 83161  1  0  0  0
 83162  1  0  0  0
 84163  1  0  0  0
 84164  1  0  0  0
 87165  1  0  0  0
M  ISO  4   1 100  68 101  84 101  87 100
M  END
> <chiral flag>
0

> <version>
0

> <s_m_source_file>
/data/baiqing/PycharmProjects/Reinvent-master-3.2/result/LINK_invent/BTK/process_docking_weight1_custom_sum_contain_oxygen_bond_distance_aromatic_linkinvent_7_9_3/rearranged_h_0036.sdf

> <i_m_source_file_index>
89

> <r_mmod_Potential_Energy-OPLS-2005>
13145.1533203125

> <r_mmod_Stretch_Energy-OPLS-2005>
7524.22119140625

> <r_mmod_Bend_Energy-OPLS-2005>
1215.02001953125

> <r_mmod_Torsional_Energy-OPLS-2005>
437.714721679688

> <r_mmod_Improper_Torsional_Energy-OPLS-2005>
16.4399452209473

> <r_mmod_Van_der_Waal_Energy-OPLS-2005>
2624.3154296875

> <r_mmod_Electrostatic_Energy-OPLS-2005>
-368.856475830078

> <r_mmod_Solvation_Energy-OPLS-2005>
-219.947708129883

> <b_mmod_Minimization_Converged-OPLS-2005>
0

> <r_mmod_RMS_Derivative-OPLS-2005>
7.04305267333984

$$$$
90
                    3D
 Structure written by MMmdl.
169177  0  0  1  0            999 V2000
  -30.6972  -14.4170   20.3651 C   0  0  0  0  0  0
  -30.4130  -12.2153   19.4240 C   0  0  0  0  0  0
  -29.4864  -12.4020   18.2014 C   0  0  0  0  0  0
  -27.9997  -12.3320   18.6099 C   0  0  0  0  0  0
  -27.6519  -13.1929   19.8562 C   0  0  2  0  0  0
  -28.7076  -13.0305   20.9803 C   0  0  0  0  0  0
  -25.2554  -13.8146   20.5681 C   0  0  0  0  0  0
  -24.1809  -13.0429   20.9181 C   0  0  0  0  0  0
  -24.6353  -11.6894   20.8779 C   0  0  0  0  0  0
  -23.9038  -10.4283   21.0426 C   0  0  0  0  0  0
  -24.3583   -9.4188   21.9200 C   0  0  0  0  0  0
  -23.6252   -8.2231   22.0769 C   0  0  0  0  0  0
  -22.4244   -8.0268   21.3546 C   0  0  0  0  0  0
  -21.9889   -9.0249   20.4646 C   0  0  0  0  0  0
  -22.7222  -10.2122   20.3057 C   0  0  0  0  0  0
  -21.6847   -6.0721   22.5282 C   0  0  0  0  0  0
  -21.4000   -6.5631   23.8212 C   0  0  0  0  0  0
  -21.3638   -5.6785   24.9177 C   0  0  0  0  0  0
  -21.6048   -4.3052   24.7226 C   0  0  0  0  0  0
  -21.8819   -3.8133   23.4358 C   0  0  0  0  0  0
  -21.9184   -4.6954   22.3404 C   0  0  0  0  0  0
  -22.7827  -13.5224   21.1836 C   0  0  0  0  0  0
  -22.1657   -4.2133   21.0985 F   0  0  0  0  0  0
  -21.5621   -3.4537   25.7742 F   0  0  0  0  0  0
  -30.0488  -13.2352   20.4138 N   0  0  0  0  0  0
  -26.2976  -12.9279   20.3347 N   0  0  0  0  0  0
  -25.9271  -11.6468   20.5816 N   0  0  0  0  0  0
  -22.0459  -12.8233   22.0374 N   0  0  0  0  0  0
  -25.4257  -15.1872   20.4066 N   0  0  0  0  0  0
  -31.9168  -14.5451   20.2510 O   0  0  0  0  0  0
  -21.6619   -6.8863   21.4240 O   0  0  0  0  0  0
  -22.3538  -14.5553   20.6690 O   0  0  0  0  0  0
  -24.6163  -31.8725   23.2196 C   0  0  0  0  0  0
  -25.9071  -32.4873   23.8491 C   0  0  1  0  0  0
  -27.2501  -27.4852   20.0874 C   0  0  0  0  0  0
  -25.5978  -33.8661   24.2452 N   0  0  0  0  0  0
  -23.3995  -30.4955   21.5636 C   0  0  2  0  0  0
  -24.8479  -28.9640   20.1278 C   0  0  0  0  0  0
  -22.7436  -29.4658   22.5106 C   0  0  0  0  0  0
  -18.0225  -28.1393   22.8488 C   0  0  0  0  0  0
  -24.1484  -36.7288   23.2633 C   0  0  0  0  0  0
  -25.9254  -30.8544   21.3600 C   0  0  0  0  0  0
  -26.0064  -29.4886   20.7164 C   0  0  0  0  0  0
  -27.2118  -28.7557   20.6893 C   0  0  0  0  0  0
  -26.0756  -26.9616   19.4991 C   0  0  0  0  0  0
  -24.8760  -27.6975   19.5159 C   0  0  0  0  0  0
  -23.6104  -29.8347   20.1763 C   0  0  0  0  0  0
  -25.4091  -36.3134   24.0376 C   0  0  1  0  0  0
  -20.5826  -28.3671   23.1355 C   0  0  2  0  0  0
  -20.6764  -26.9439   22.5400 C   0  0  0  0  0  0
  -19.5735  -26.6425   21.5206 C   0  0  0  0  0  0
  -18.1873  -26.7958   22.1576 C   0  0  0  0  0  0
  -19.1477  -28.8851   23.2908 C   0  0  0  0  0  0
  -18.9410  -30.1455   23.8929 C   0  0  0  0  0  0
  -17.6423  -30.6610   24.0572 C   0  0  0  0  0  0
  -25.9055  -34.9499   23.5199 C   0  0  0  0  0  0
  -16.5312  -29.9107   23.6356 C   0  0  0  0  0  0
  -16.7220  -28.6525   23.0363 C   0  0  0  0  0  0
  -26.4551  -31.6628   25.0775 C   0  0  0  0  0  0
  -25.3841  -31.3532   26.1514 C   0  0  0  0  0  0
  -27.0470  -30.3171   24.5987 C   0  0  0  0  0  0
  -27.6159  -32.4361   25.7502 C   0  0  0  0  0  0
  -27.5578  -37.1728   24.8459 C   0  0  0  0  0  0
  -21.4160  -29.3042   22.3840 N   0  0  0  0  0  0
  -26.4245  -37.3850   23.9497 N   0  0  0  0  0  0
  -24.6652  -31.0848   22.1105 N   0  0  0  0  0  0
  -23.4258  -28.8158   23.3070 O   0  0  0  0  0  0
  -28.4514  -26.8201   20.0525 O   0  0  0  0  0  0
  -26.5569  -34.8941   22.4727 O   0  0  0  0  0  0
  -23.5371  -32.1480   23.7623 O   0  0  0  0  0  0
  -27.2904  -21.1645   19.0142 C   0  0  0  0  0  0
  -27.2528  -21.7760   20.2820 C   0  0  0  0  0  0
  -29.6039  -22.3643   20.0526 C   0  0  0  0  0  0
  -28.4884  -21.1334   18.2656 C   0  0  0  0  0  0
  -29.6352  -21.8043   18.7628 C   0  0  0  0  0  0
  -28.4283  -22.3408   20.8223 C   0  0  0  0  0  0
  -30.9327  -21.9023   17.9809 C   0  0  0  0  0  0
  -28.5428  -20.2773   17.0040 C   0  0  0  0  0  0
  -29.5197  -19.0831   17.1226 C   0  0  0  0  0  0
  -29.5515  -18.3851   18.5034 C   0  0  0  0  0  0
  -30.7044  -17.3794   18.6246 C   0  0  0  0  0  0
  -28.3090  -25.2669   21.9322 C   0  0  0  0  0  0
  -30.2418  -15.9292   18.5220 C   0  0  0  0  0  0
  -28.4363  -25.4457   20.4052 C   0  0  0  0  0  0
  -27.6270  -23.9562   22.3574 C   0  0  0  0  0  0
  -29.9048  -15.3493   19.8249 N   0  0  0  0  0  0
  -28.4792  -22.8492   22.0942 O   0  0  0  0  0  0
  -31.4580  -12.2921   19.1123 H   0  0  0  0  0  0
  -30.2965  -11.2169   19.8469 H   0  0  0  0  0  0
  -29.6946  -11.6315   17.4567 H   0  0  0  0  0  0
  -29.6925  -13.3487   17.7035 H   0  0  0  0  0  0
  -27.7653  -11.2867   18.8084 H   0  0  0  0  0  0
  -27.3698  -12.6256   17.7691 H   0  0  0  0  0  0
  -27.6553  -14.2245   19.5112 H   0  0  0  0  0  0
  -28.6483  -12.0354   21.4254 H   0  0  0  0  0  0
  -28.5233  -13.7456   21.7841 H   0  0  0  0  0  0
  -25.2729   -9.5663   22.4769 H   0  0  0  0  0  0
  -23.9961   -7.4621   22.7495 H   0  0  0  0  0  0
  -21.0824   -8.8747   19.8950 H   0  0  0  0  0  0
  -22.3685  -10.9643   19.6151 H   0  0  0  0  0  0
  -21.2003   -7.6142   23.9710 H   0  0  0  0  0  0
  -21.1457   -6.0521   25.9075 H   0  0  0  0  0  0
  -22.0616   -2.7598   23.2865 H   0  0  0  0  0  0
  -22.4032  -11.9855   22.4737 H   0  0  0  0  0  0
  -21.1071  -13.1266   22.2569 H   0  0  0  0  0  0
  -24.6550  -15.8390   20.5079 H   0  0  0  0  0  0
  -26.2805  -15.6372   20.1044 H   0  0  0  0  0  0
  -26.7129  -32.5631   23.1261 H   0  0  0  0  0  0
  -25.0292  -33.9851   25.0716 H   0  0  0  0  0  0
  -22.6861  -31.3111   21.4330 H   0  0  0  0  0  0
  -23.3838  -35.9523   23.3201 H   0  0  0  0  0  0
  -24.3608  -36.8998   22.2069 H   0  0  0  0  0  0
  -23.7126  -37.6406   23.6727 H   0  0  0  0  0  0
  -26.0010  -31.6049   20.5724 H   0  0  0  0  0  0
  -26.8342  -30.9444   21.9449 H   0  0  0  0  0  0
  -28.1177  -29.1597   21.1215 H   0  0  0  0  0  0
  -26.0797  -26.0049   18.9987 H   0  0  0  0  0  0
  -23.9911  -27.2912   19.0445 H   0  0  0  0  0  0
  -23.7416  -30.6251   19.4370 H   0  0  0  0  0  0
  -22.7281  -29.2734   19.8611 H   0  0  0  0  0  0
  -25.1221  -36.1993   25.0863 H   0  0  0  0  0  0
  -20.9836  -28.3219   24.1508 H   0  0  0  0  0  0
  -20.5744  -26.2269   23.3562 H   0  0  0  0  0  0
  -21.6619  -26.7565   22.1116 H   0  0  0  0  0  0
  -19.6936  -25.6354   21.1182 H   0  0  0  0  0  0
  -19.6681  -27.3276   20.6778 H   0  0  0  0  0  0
  -17.4170  -26.6732   21.3936 H   0  0  0  0  0  0
  -18.0236  -26.0088   22.8952 H   0  0  0  0  0  0
  -19.7891  -30.7219   24.2362 H   0  0  0  0  0  0
  -17.4991  -31.6290   24.5181 H   0  0  0  0  0  0
  -15.5311  -30.3006   23.7762 H   0  0  0  0  0  0
  -15.8590  -28.0876   22.7110 H   0  0  0  0  0  0
  -24.6028  -30.6939   25.7718 H   0  0  0  0  0  0
  -24.8989  -32.2574   26.5198 H   0  0  0  0  0  0
  -25.8190  -30.8462   27.0143 H   0  0  0  0  0  0
  -26.2935  -29.6699   24.1487 H   0  0  0  0  0  0
  -27.4910  -29.7605   25.4249 H   0  0  0  0  0  0
  -27.8435  -30.4670   23.8697 H   0  0  0  0  0  0
  -27.2864  -33.3673   26.2127 H   0  0  0  0  0  0
  -28.3903  -32.6910   25.0254 H   0  0  0  0  0  0
  -28.0969  -31.8487   26.5333 H   0  0  0  0  0  0
  -28.2472  -38.0147   24.7784 H   0  0  0  0  0  0
  -28.1184  -36.2705   24.5969 H   0  0  0  0  0  0
  -27.2313  -37.0985   25.8843 H   0  0  0  0  0  0
  -20.9398  -29.8823   21.7056 H   0  0  0  0  0  0
  -26.0131  -38.2886   24.1682 H   0  0  0  0  0  0
  -26.4035  -20.6743   18.6362 H   0  0  0  0  0  0
  -26.3327  -21.7581   20.8513 H   0  0  0  0  0  0
  -30.4934  -22.8291   20.4566 H   0  0  0  0  0  0
  -31.4542  -22.8279   18.2273 H   0  0  0  0  0  0
  -30.7621  -21.9119   16.9046 H   0  0  0  0  0  0
  -31.5940  -21.0716   18.2316 H   0  0  0  0  0  0
  -28.8039  -20.8947   16.1427 H   0  0  0  0  0  0
  -27.5449  -19.8912   16.7921 H   0  0  0  0  0  0
  -30.5235  -19.4507   16.9133 H   0  0  0  0  0  0
  -29.3181  -18.3587   16.3310 H   0  0  0  0  0  0
  -28.5869  -17.9215   18.7190 H   0  0  0  0  0  0
  -29.7001  -19.1170   19.2946 H   0  0  0  0  0  0
  -31.2387  -17.5281   19.5634 H   0  0  0  0  0  0
  -31.4455  -17.5680   17.8466 H   0  0  0  0  0  0
  -27.7383  -26.0908   22.3597 H   0  0  0  0  0  0
  -29.2967  -25.3334   22.3894 H   0  0  0  0  0  0
  -31.0189  -15.3421   18.0261 H   0  0  0  0  0  0
  -29.3764  -15.8428   17.8616 H   0  0  0  0  0  0
  -27.6694  -24.8886   19.8685 H   0  0  0  0  0  0
  -29.3905  -25.0356   20.0773 H   0  0  0  0  0  0
  -26.6429  -23.8563   21.9001 H   0  0  0  0  0  0
  -27.4502  -23.9796   23.4325 H   0  0  0  0  0  0
  -28.9216  -15.1804   19.9704 H   0  0  0  0  0  0
  1 25  1  0  0  0
  1 30  2  0  0  0
  1 86  1  0  0  0
  2  3  1  0  0  0
  2 25  1  0  0  0
  2 88  1  0  0  0
  2 89  1  0  0  0
  3  4  1  0  0  0
  3 90  1  0  0  0
  3 91  1  0  0  0
  4  5  1  0  0  0
  4 92  1  0  0  0
  4 93  1  0  0  0
  5  6  1  0  0  0
  5 26  1  0  0  0
  5 94  1  0  0  0
  6 25  1  0  0  0
  6 95  1  0  0  0
  6 96  1  0  0  0
  7  8  2  0  0  0
  7 26  1  0  0  0
  7 29  1  0  0  0
  8  9  1  0  0  0
  8 22  1  0  0  0
  9 10  1  0  0  0
  9 27  2  0  0  0
 10 11  2  0  0  0
 10 15  1  0  0  0
 11 12  1  0  0  0
 11 97  1  0  0  0
 12 13  2  0  0  0
 12 98  1  0  0  0
 13 14  1  0  0  0
 13 31  1  0  0  0
 14 15  2  0  0  0
 14 99  1  0  0  0
 15100  1  0  0  0
 16 17  2  0  0  0
 16 21  1  0  0  0
 16 31  1  0  0  0
 17 18  1  0  0  0
 17101  1  0  0  0
 18 19  2  0  0  0
 18102  1  0  0  0
 19 20  1  0  0  0
 19 24  1  0  0  0
 20 21  2  0  0  0
 20103  1  0  0  0
 21 23  1  0  0  0
 22 28  1  0  0  0
 22 32  2  0  0  0
 26 27  1  0  0  0
 28104  1  0  0  0
 28105  1  0  0  0
 29106  1  0  0  0
 29107  1  0  0  0
 33 34  1  0  0  0
 33 66  1  0  0  0
 33 70  2  0  0  0
 34 36  1  0  0  0
 34 59  1  0  0  0
 34108  1  0  0  0
 35 44  2  0  0  0
 35 45  1  0  0  0
 35 68  1  0  0  0
 36 56  1  0  0  0
 36109  1  0  0  0
 37 39  1  0  0  0
 37 47  1  0  0  0
 37 66  1  0  0  0
 37110  1  0  0  0
 38 43  2  0  0  0
 38 46  1  0  0  0
 38 47  1  0  0  0
 39 64  1  0  0  0
 39 67  2  0  0  0
 40 52  1  0  0  0
 40 53  2  0  0  0
 40 58  1  0  0  0
 41111  1  0  0  0
 41112  1  0  0  0
 41113  1  0  0  0
 41 48  1  0  0  0
 42 43  1  0  0  0
 42 66  1  0  0  0
 42114  1  0  0  0
 42115  1  0  0  0
 43 44  1  0  0  0
 44116  1  0  0  0
 45 46  2  0  0  0
 45117  1  0  0  0
 46118  1  0  0  0
 47119  1  0  0  0
 47120  1  0  0  0
 48 56  1  0  0  0
 48 65  1  0  0  0
 48121  1  0  0  0
 49 50  1  0  0  0
 49 53  1  0  0  0
 49 64  1  0  0  0
 49122  1  0  0  0
 50 51  1  0  0  0
 50123  1  0  0  0
 50124  1  0  0  0
 51 52  1  0  0  0
 51125  1  0  0  0
 51126  1  0  0  0
 52127  1  0  0  0
 52128  1  0  0  0
 53 54  1  0  0  0
 54 55  2  0  0  0
 54129  1  0  0  0
 55 57  1  0  0  0
 55130  1  0  0  0
 56 69  2  0  0  0
 57 58  2  0  0  0
 57131  1  0  0  0
 58132  1  0  0  0
 59 60  1  0  0  0
 59 61  1  0  0  0
 59 62  1  0  0  0
 60133  1  0  0  0
 60134  1  0  0  0
 60135  1  0  0  0
 61136  1  0  0  0
 61137  1  0  0  0
 61138  1  0  0  0
 62139  1  0  0  0
 62140  1  0  0  0
 62141  1  0  0  0
 63 65  1  0  0  0
 63142  1  0  0  0
 63143  1  0  0  0
 63144  1  0  0  0
 64145  1  0  0  0
 65146  1  0  0  0
 68 84  1  0  0  0
 71 72  2  0  0  0
 71 74  1  0  0  0
 71147  1  0  0  0
 72 76  1  0  0  0
 72148  1  0  0  0
 73 75  1  0  0  0
 73 76  2  0  0  0
 73149  1  0  0  0
 74 75  2  0  0  0
 74 78  1  0  0  0
 75 77  1  0  0  0
 76 87  1  0  0  0
 77150  1  0  0  0
 77151  1  0  0  0
 77152  1  0  0  0
 78 79  1  0  0  0
 78153  1  0  0  0
 78154  1  0  0  0
 79 80  1  0  0  0
 79155  1  0  0  0
 79156  1  0  0  0
 80 81  1  0  0  0
 80157  1  0  0  0
 80158  1  0  0  0
 81 83  1  0  0  0
 81159  1  0  0  0
 81160  1  0  0  0
 82 84  1  0  0  0
 82 85  1  0  0  0
 82161  1  0  0  0
 82162  1  0  0  0
 83 86  1  0  0  0
 83163  1  0  0  0
 83164  1  0  0  0
 84165  1  0  0  0
 84166  1  0  0  0
 85 87  1  0  0  0
 85167  1  0  0  0
 85168  1  0  0  0
 86169  1  0  0  0
M  ISO  4   1 100  68 101  84 101  86 100
M  END
> <chiral flag>
0

> <version>
0

> <s_m_source_file>
/data/baiqing/PycharmProjects/Reinvent-master-3.2/result/LINK_invent/BTK/process_docking_weight1_custom_sum_contain_oxygen_bond_distance_aromatic_linkinvent_7_9_3/rearranged_h_0036.sdf

> <i_m_source_file_index>
90

> <r_mmod_Potential_Energy-OPLS-2005>
60.4136352539062

> <r_mmod_Stretch_Energy-OPLS-2005>
31.9616584777832

> <r_mmod_Bend_Energy-OPLS-2005>
98.5658111572266

> <r_mmod_Torsional_Energy-OPLS-2005>
313.871429443359

> <r_mmod_Improper_Torsional_Energy-OPLS-2005>
25.2694549560547

> <r_mmod_Van_der_Waal_Energy-OPLS-2005>
162.624404907227

> <r_mmod_Electrostatic_Energy-OPLS-2005>
-390.433532714844

> <r_mmod_Solvation_Energy-OPLS-2005>
-208.801162719727

> <b_mmod_Minimization_Converged-OPLS-2005>
0

> <r_mmod_RMS_Derivative-OPLS-2005>
4.36274814605713

$$$$
92
                    3D
 Structure written by MMmdl.
171179  0  0  1  0            999 V2000
  -30.7034  -14.3915   20.6098 C   0  0  0  0  0  0
  -30.4228  -12.2638   19.4115 C   0  0  0  0  0  0
  -29.4966  -12.5183   18.2043 C   0  0  0  0  0  0
  -28.0133  -12.3832   18.6080 C   0  0  0  0  0  0
  -27.6696  -13.1938   19.8865 C   0  0  2  0  0  0
  -28.7064  -12.9100   21.0003 C   0  0  0  0  0  0
  -25.2609  -13.8137   20.5671 C   0  0  0  0  0  0
  -24.1841  -13.0447   20.9152 C   0  0  0  0  0  0
  -24.6379  -11.6897   20.8721 C   0  0  0  0  0  0
  -23.9042  -10.4297   21.0411 C   0  0  0  0  0  0
  -24.3598   -9.4212   21.9178 C   0  0  0  0  0  0
  -23.6279   -8.2250   22.0757 C   0  0  0  0  0  0
  -22.4255   -8.0276   21.3553 C   0  0  0  0  0  0
  -21.9887   -9.0255   20.4648 C   0  0  0  0  0  0
  -22.7225  -10.2135   20.3055 C   0  0  0  0  0  0
  -21.6847   -6.0735   22.5278 C   0  0  0  0  0  0
  -21.4011   -6.5636   23.8210 C   0  0  0  0  0  0
  -21.3670   -5.6787   24.9174 C   0  0  0  0  0  0
  -21.6047   -4.3052   24.7216 C   0  0  0  0  0  0
  -21.8819   -3.8143   23.4334 C   0  0  0  0  0  0
  -21.9188   -4.6965   22.3394 C   0  0  0  0  0  0
  -22.7870  -13.5254   21.1808 C   0  0  0  0  0  0
  -22.1656   -4.2153   21.0975 F   0  0  0  0  0  0
  -21.5633   -3.4531   25.7729 F   0  0  0  0  0  0
  -30.0498  -13.2110   20.4686 N   0  0  0  0  0  0
  -26.3042  -12.9289   20.3386 N   0  0  0  0  0  0
  -25.9294  -11.6459   20.5755 N   0  0  0  0  0  0
  -22.0495  -12.8279   22.0372 N   0  0  0  0  0  0
  -25.4358  -15.1860   20.4091 N   0  0  0  0  0  0
  -31.7749  -14.6584   20.0550 O   0  0  0  0  0  0
  -21.6630   -6.8873   21.4237 O   0  0  0  0  0  0
  -22.3568  -14.5579   20.6669 O   0  0  0  0  0  0
  -24.6029  -31.8745   23.2142 C   0  0  0  0  0  0
  -25.8971  -32.4855   23.8410 C   0  0  1  0  0  0
  -27.2655  -27.5061   20.0973 C   0  0  0  0  0  0
  -25.5862  -33.8653   24.2359 N   0  0  0  0  0  0
  -23.3882  -30.4927   21.5518 C   0  0  2  0  0  0
  -24.8413  -28.9656   20.1109 C   0  0  0  0  0  0
  -22.7341  -29.4659   22.5022 C   0  0  0  0  0  0
  -18.0254  -28.1365   22.8477 C   0  0  0  0  0  0
  -24.1467  -36.7354   23.2634 C   0  0  0  0  0  0
  -25.9022  -30.8674   21.3498 C   0  0  0  0  0  0
  -25.9895  -29.5081   20.6951 C   0  0  0  0  0  0
  -27.1979  -28.7952   20.6788 C   0  0  0  0  0  0
  -26.1026  -26.9735   19.4996 C   0  0  0  0  0  0
  -24.8903  -27.6952   19.5054 C   0  0  0  0  0  0
  -23.5960  -29.8194   20.1656 C   0  0  0  0  0  0
  -25.4092  -36.3146   24.0332 C   0  0  1  0  0  0
  -20.5829  -28.3636   23.1352 C   0  0  2  0  0  0
  -20.6747  -26.9388   22.5428 C   0  0  0  0  0  0
  -19.5751  -26.6379   21.5197 C   0  0  0  0  0  0
  -18.1924  -26.7917   22.1604 C   0  0  0  0  0  0
  -19.1492  -28.8819   23.2917 C   0  0  0  0  0  0
  -18.9429  -30.1424   23.8934 C   0  0  0  0  0  0
  -17.6435  -30.6580   24.0562 C   0  0  0  0  0  0
  -25.9011  -34.9496   23.5149 C   0  0  0  0  0  0
  -16.5331  -29.9084   23.6323 C   0  0  0  0  0  0
  -16.7247  -28.6497   23.0337 C   0  0  0  0  0  0
  -26.4468  -31.6580   25.0680 C   0  0  0  0  0  0
  -25.3780  -31.3518   26.1410 C   0  0  0  0  0  0
  -27.0363  -30.3094   24.5917 C   0  0  0  0  0  0
  -27.6034  -32.4242   25.7518 C   0  0  0  0  0  0
  -27.5574  -37.1805   24.8450 C   0  0  0  0  0  0
  -21.4078  -29.3027   22.3774 N   0  0  0  0  0  0
  -26.4287  -37.3820   23.9400 N   0  0  0  0  0  0
  -24.6484  -31.0904   22.0999 N   0  0  0  0  0  0
  -23.4158  -28.8187   23.3017 O   0  0  0  0  0  0
  -28.4172  -26.7450   20.0988 O   0  0  0  0  0  0
  -26.5568  -34.8940   22.4713 O   0  0  0  0  0  0
  -23.5252  -32.1469   23.7600 O   0  0  0  0  0  0
  -30.9765  -26.8688   23.8209 C   0  0  0  0  0  0
  -30.3734  -25.8959   23.0733 C   0  0  0  0  0  0
  -29.8871  -24.9754   24.0467 C   0  0  0  0  0  0
  -30.0283  -28.1738   26.7962 C   0  0  0  0  0  0
  -30.1830  -25.8485   21.5741 C   0  0  0  0  0  0
  -29.1497  -23.6884   23.8053 C   0  0  0  0  0  0
  -30.1075  -22.4859   23.7942 C   0  0  0  0  0  0
  -29.5606  -21.3297   22.9491 C   0  0  0  0  0  0
  -30.4074  -20.0499   23.0123 C   0  0  0  0  0  0
  -29.9654  -19.0630   21.9225 C   0  0  0  0  0  0
  -30.4337  -17.6170   22.1343 C   0  0  0  0  0  0
  -31.1926  -27.2977   26.3170 C   0  0  0  0  0  0
  -29.9895  -16.7389   20.9566 C   0  0  0  0  0  0
  -29.3657  -27.0659   21.1222 C   0  0  0  0  0  0
  -30.1648  -25.3561   25.2857 N   0  0  0  0  0  0
  -30.8150  -26.5321   25.1462 N   0  0  0  0  0  0
  -30.0040  -15.3163   21.2736 N   0  0  0  0  0  0
  -31.4708  -12.3515   19.1208 H   0  0  0  0  0  0
  -30.3008  -11.2430   19.7729 H   0  0  0  0  0  0
  -29.7283  -11.8256   17.3949 H   0  0  0  0  0  0
  -29.6784  -13.5179   17.8091 H   0  0  0  0  0  0
  -27.8092  -11.3243   18.7762 H   0  0  0  0  0  0
  -27.3688  -12.6917   17.7843 H   0  0  0  0  0  0
  -27.7332  -14.2504   19.6235 H   0  0  0  0  0  0
  -28.6636  -11.8598   21.2932 H   0  0  0  0  0  0
  -28.4658  -13.4639   21.9083 H   0  0  0  0  0  0
  -25.2745   -9.5693   22.4741 H   0  0  0  0  0  0
  -23.9988   -7.4643   22.7476 H   0  0  0  0  0  0
  -21.0817   -8.8785   19.8943 H   0  0  0  0  0  0
  -22.3693  -10.9674   19.6151 H   0  0  0  0  0  0
  -21.2014   -7.6144   23.9723 H   0  0  0  0  0  0
  -21.1486   -6.0511   25.9082 H   0  0  0  0  0  0
  -22.0588   -2.7601   23.2833 H   0  0  0  0  0  0
  -22.4086  -11.9942   22.4779 H   0  0  0  0  0  0
  -21.1120  -13.1330   22.2573 H   0  0  0  0  0  0
  -24.6738  -15.8455   20.5219 H   0  0  0  0  0  0
  -26.2957  -15.6235   20.1028 H   0  0  0  0  0  0
  -26.7036  -32.5634   23.1184 H   0  0  0  0  0  0
  -24.9945  -33.9859   25.0444 H   0  0  0  0  0  0
  -22.6706  -31.3045   21.4120 H   0  0  0  0  0  0
  -23.3726  -35.9690   23.3325 H   0  0  0  0  0  0
  -24.3523  -36.8954   22.2038 H   0  0  0  0  0  0
  -23.7225  -37.6569   23.6641 H   0  0  0  0  0  0
  -25.9975  -31.6417   20.5873 H   0  0  0  0  0  0
  -26.7921  -30.9249   21.9637 H   0  0  0  0  0  0
  -28.0677  -29.2610   21.1198 H   0  0  0  0  0  0
  -26.1355  -25.9948   19.0420 H   0  0  0  0  0  0
  -24.0073  -27.2698   19.0473 H   0  0  0  0  0  0
  -23.7003  -30.5937   19.4044 H   0  0  0  0  0  0
  -22.7261  -29.2308   19.8719 H   0  0  0  0  0  0
  -25.1280  -36.2034   25.0827 H   0  0  0  0  0  0
  -20.9902  -28.3181   24.1471 H   0  0  0  0  0  0
  -20.5614  -26.2236   23.3591 H   0  0  0  0  0  0
  -21.6631  -26.7443   22.1241 H   0  0  0  0  0  0
  -19.6913  -25.6286   21.1229 H   0  0  0  0  0  0
  -19.6702  -27.3191   20.6726 H   0  0  0  0  0  0
  -17.4191  -26.6639   21.4010 H   0  0  0  0  0  0
  -18.0343  -26.0062   22.9007 H   0  0  0  0  0  0
  -19.7906  -30.7219   24.2328 H   0  0  0  0  0  0
  -17.5004  -31.6275   24.5145 H   0  0  0  0  0  0
  -15.5335  -30.3007   23.7633 H   0  0  0  0  0  0
  -15.8635  -28.0842   22.7035 H   0  0  0  0  0  0
  -24.5991  -30.6888   25.7645 H   0  0  0  0  0  0
  -24.8936  -32.2591   26.5020 H   0  0  0  0  0  0
  -25.8186  -30.8522   27.0055 H   0  0  0  0  0  0
  -26.2885  -29.6834   24.1022 H   0  0  0  0  0  0
  -27.4295  -29.7326   25.4294 H   0  0  0  0  0  0
  -27.8652  -30.4513   23.8962 H   0  0  0  0  0  0
  -27.2696  -33.3496   26.2214 H   0  0  0  0  0  0
  -28.3867  -32.6856   25.0399 H   0  0  0  0  0  0
  -28.0680  -31.8252   26.5359 H   0  0  0  0  0  0
  -28.2638  -38.0068   24.7510 H   0  0  0  0  0  0
  -28.1025  -36.2614   24.6271 H   0  0  0  0  0  0
  -27.2280  -37.1452   25.8848 H   0  0  0  0  0  0
  -20.9214  -29.8738   21.7011 H   0  0  0  0  0  0
  -26.0198  -38.2908   24.1404 H   0  0  0  0  0  0
  -31.4645  -27.7882   23.5273 H   0  0  0  0  0  0
  -30.3128  -28.7769   27.6571 H   0  0  0  0  0  0
  -29.1732  -27.5645   27.0877 H   0  0  0  0  0  0
  -29.7031  -28.8514   26.0064 H   0  0  0  0  0  0
  -29.6617  -24.9402   21.2751 H   0  0  0  0  0  0
  -31.1345  -25.8209   21.0416 H   0  0  0  0  0  0
  -28.6167  -23.7478   22.8564 H   0  0  0  0  0  0
  -28.3732  -23.5350   24.5569 H   0  0  0  0  0  0
  -30.3174  -22.1709   24.8169 H   0  0  0  0  0  0
  -31.0635  -22.7907   23.3635 H   0  0  0  0  0  0
  -29.4875  -21.6644   21.9127 H   0  0  0  0  0  0
  -28.5427  -21.0946   23.2643 H   0  0  0  0  0  0
  -30.3046  -19.5973   23.9992 H   0  0  0  0  0  0
  -31.4661  -20.2795   22.8861 H   0  0  0  0  0  0
  -30.3173  -19.4241   20.9552 H   0  0  0  0  0  0
  -28.8752  -19.0624   21.8656 H   0  0  0  0  0  0
  -30.0110  -17.2364   23.0652 H   0  0  0  0  0  0
  -31.5203  -17.5746   22.2338 H   0  0  0  0  0  0
  -31.5136  -26.6208   27.1097 H   0  0  0  0  0  0
  -32.0539  -27.9167   26.0631 H   0  0  0  0  0  0
  -30.5812  -16.9675   20.0671 H   0  0  0  0  0  0
  -28.9579  -16.9763   20.6893 H   0  0  0  0  0  0
  -28.8292  -27.4185   22.0055 H   0  0  0  0  0  0
  -30.0232  -27.8784   20.8073 H   0  0  0  0  0  0
  -29.1917  -14.9649   21.7578 H   0  0  0  0  0  0
  1 25  1  0  0  0
  1 30  2  0  0  0
  1 87  1  0  0  0
  2  3  1  0  0  0
  2 25  1  0  0  0
  2 88  1  0  0  0
  2 89  1  0  0  0
  3  4  1  0  0  0
  3 90  1  0  0  0
  3 91  1  0  0  0
  4  5  1  0  0  0
  4 92  1  0  0  0
  4 93  1  0  0  0
  5  6  1  0  0  0
  5 26  1  0  0  0
  5 94  1  0  0  0
  6 25  1  0  0  0
  6 95  1  0  0  0
  6 96  1  0  0  0
  7  8  2  0  0  0
  7 26  1  0  0  0
  7 29  1  0  0  0
  8  9  1  0  0  0
  8 22  1  0  0  0
  9 10  1  0  0  0
  9 27  2  0  0  0
 10 11  2  0  0  0
 10 15  1  0  0  0
 11 12  1  0  0  0
 11 97  1  0  0  0
 12 13  2  0  0  0
 12 98  1  0  0  0
 13 14  1  0  0  0
 13 31  1  0  0  0
 14 15  2  0  0  0
 14 99  1  0  0  0
 15100  1  0  0  0
 16 17  2  0  0  0
 16 21  1  0  0  0
 16 31  1  0  0  0
 17 18  1  0  0  0
 17101  1  0  0  0
 18 19  2  0  0  0
 18102  1  0  0  0
 19 20  1  0  0  0
 19 24  1  0  0  0
 20 21  2  0  0  0
 20103  1  0  0  0
 21 23  1  0  0  0
 22 28  1  0  0  0
 22 32  2  0  0  0
 26 27  1  0  0  0
 28104  1  0  0  0
 28105  1  0  0  0
 29106  1  0  0  0
 29107  1  0  0  0
 33 34  1  0  0  0
 33 66  1  0  0  0
 33 70  2  0  0  0
 34 36  1  0  0  0
 34 59  1  0  0  0
 34108  1  0  0  0
 35 44  2  0  0  0
 35 45  1  0  0  0
 35 68  1  0  0  0
 36 56  1  0  0  0
 36109  1  0  0  0
 37 39  1  0  0  0
 37 47  1  0  0  0
 37 66  1  0  0  0
 37110  1  0  0  0
 38 43  2  0  0  0
 38 46  1  0  0  0
 38 47  1  0  0  0
 39 64  1  0  0  0
 39 67  2  0  0  0
 40 52  1  0  0  0
 40 53  2  0  0  0
 40 58  1  0  0  0
 41111  1  0  0  0
 41112  1  0  0  0
 41113  1  0  0  0
 41 48  1  0  0  0
 42 43  1  0  0  0
 42 66  1  0  0  0
 42114  1  0  0  0
 42115  1  0  0  0
 43 44  1  0  0  0
 44116  1  0  0  0
 45 46  2  0  0  0
 45117  1  0  0  0
 46118  1  0  0  0
 47119  1  0  0  0
 47120  1  0  0  0
 48 56  1  0  0  0
 48 65  1  0  0  0
 48121  1  0  0  0
 49 50  1  0  0  0
 49 53  1  0  0  0
 49 64  1  0  0  0
 49122  1  0  0  0
 50 51  1  0  0  0
 50123  1  0  0  0
 50124  1  0  0  0
 51 52  1  0  0  0
 51125  1  0  0  0
 51126  1  0  0  0
 52127  1  0  0  0
 52128  1  0  0  0
 53 54  1  0  0  0
 54 55  2  0  0  0
 54129  1  0  0  0
 55 57  1  0  0  0
 55130  1  0  0  0
 56 69  2  0  0  0
 57 58  2  0  0  0
 57131  1  0  0  0
 58132  1  0  0  0
 59 60  1  0  0  0
 59 61  1  0  0  0
 59 62  1  0  0  0
 60133  1  0  0  0
 60134  1  0  0  0
 60135  1  0  0  0
 61136  1  0  0  0
 61137  1  0  0  0
 61138  1  0  0  0
 62139  1  0  0  0
 62140  1  0  0  0
 62141  1  0  0  0
 63 65  1  0  0  0
 63142  1  0  0  0
 63143  1  0  0  0
 63144  1  0  0  0
 64145  1  0  0  0
 65146  1  0  0  0
 68 84  1  0  0  0
 71 72  2  0  0  0
 71 86  1  0  0  0
 71147  1  0  0  0
 72 73  1  0  0  0
 72 75  1  0  0  0
 73 76  1  0  0  0
 73 85  2  0  0  0
 74 82  1  0  0  0
 74148  1  0  0  0
 74149  1  0  0  0
 74150  1  0  0  0
 75 84  1  0  0  0
 75151  1  0  0  0
 75152  1  0  0  0
 76 77  1  0  0  0
 76153  1  0  0  0
 76154  1  0  0  0
 77 78  1  0  0  0
 77155  1  0  0  0
 77156  1  0  0  0
 78 79  1  0  0  0
 78157  1  0  0  0
 78158  1  0  0  0
 79 80  1  0  0  0
 79159  1  0  0  0
 79160  1  0  0  0
 80 81  1  0  0  0
 80161  1  0  0  0
 80162  1  0  0  0
 81 83  1  0  0  0
 81163  1  0  0  0
 81164  1  0  0  0
 82 86  1  0  0  0
 82165  1  0  0  0
 82166  1  0  0  0
 83 87  1  0  0  0
 83167  1  0  0  0
 83168  1  0  0  0
 84169  1  0  0  0
 84170  1  0  0  0
 85 86  1  0  0  0
 87171  1  0  0  0
M  ISO  4   1 100  68 101  84 101  87 100
M  END
> <chiral flag>
0

> <version>
0

> <s_m_source_file>
/data/baiqing/PycharmProjects/Reinvent-master-3.2/result/LINK_invent/BTK/process_docking_weight1_custom_sum_contain_oxygen_bond_distance_aromatic_linkinvent_7_9_3/rearranged_h_0036.sdf

> <i_m_source_file_index>
91

> <r_mmod_Potential_Energy-OPLS-2005>
-112.97891998291

> <r_mmod_Stretch_Energy-OPLS-2005>
30.464879989624

> <r_mmod_Bend_Energy-OPLS-2005>
91.0893020629883

> <r_mmod_Torsional_Energy-OPLS-2005>
228.755584716797

> <r_mmod_Improper_Torsional_Energy-OPLS-2005>
5.60762596130371

> <r_mmod_Van_der_Waal_Energy-OPLS-2005>
134.935791015625

> <r_mmod_Electrostatic_Energy-OPLS-2005>
-388.768157958984

> <r_mmod_Solvation_Energy-OPLS-2005>
-222.251007080078

> <b_mmod_Minimization_Converged-OPLS-2005>
0

> <r_mmod_RMS_Derivative-OPLS-2005>
2.65850758552551

$$$$
93
                    3D
 Structure written by MMmdl.
162170  0  0  1  0            999 V2000
  -30.6585  -14.6926   20.4658 C   0  0  0  0  0  0
  -30.4354  -12.4214   19.4740 C   0  0  0  0  0  0
  -29.5042  -12.5004   18.2414 C   0  0  0  0  0  0
  -28.0305  -12.3474   18.6580 C   0  0  0  0  0  0
  -27.6548  -13.2330   19.8773 C   0  0  2  0  0  0
  -28.7046  -13.1415   21.0109 C   0  0  0  0  0  0
  -25.2560  -13.8246   20.5786 C   0  0  0  0  0  0
  -24.1806  -13.0459   20.9207 C   0  0  0  0  0  0
  -24.6401  -11.6942   20.8751 C   0  0  0  0  0  0
  -23.9081  -10.4295   21.0413 C   0  0  0  0  0  0
  -24.3626   -9.4194   21.9181 C   0  0  0  0  0  0
  -23.6293   -8.2222   22.0752 C   0  0  0  0  0  0
  -22.4289   -8.0262   21.3529 C   0  0  0  0  0  0
  -21.9938   -9.0237   20.4622 C   0  0  0  0  0  0
  -22.7269  -10.2125   20.3041 C   0  0  0  0  0  0
  -21.6834   -6.0718   22.5275 C   0  0  0  0  0  0
  -21.4013   -6.5642   23.8211 C   0  0  0  0  0  0
  -21.3661   -5.6806   24.9181 C   0  0  0  0  0  0
  -21.6032   -4.3065   24.7224 C   0  0  0  0  0  0
  -21.8819   -3.8130   23.4363 C   0  0  0  0  0  0
  -21.9201   -4.6937   22.3406 C   0  0  0  0  0  0
  -22.7809  -13.5220   21.1868 C   0  0  0  0  0  0
  -22.1665   -4.2117   21.0984 F   0  0  0  0  0  0
  -21.5636   -3.4558   25.7737 F   0  0  0  0  0  0
  -30.0186  -13.4738   20.4327 N   0  0  0  0  0  0
  -26.3017  -12.9447   20.3478 N   0  0  0  0  0  0
  -25.9359  -11.6597   20.5868 N   0  0  0  0  0  0
  -22.0499  -12.8131   22.0411 N   0  0  0  0  0  0
  -25.4304  -15.1942   20.4185 N   0  0  0  0  0  0
  -31.8048  -14.7973   20.0268 O   0  0  0  0  0  0
  -21.6644   -6.8854   21.4233 O   0  0  0  0  0  0
  -22.3453  -14.5513   20.6755 O   0  0  0  0  0  0
  -24.6277  -31.8605   23.2024 C   0  0  0  0  0  0
  -25.9123  -32.4755   23.8353 C   0  0  1  0  0  0
  -27.2161  -27.3102   20.0954 C   0  0  0  0  0  0
  -25.5946  -33.8563   24.2288 N   0  0  0  0  0  0
  -23.4166  -30.4892   21.5493 C   0  0  2  0  0  0
  -24.8584  -28.9433   20.1127 C   0  0  0  0  0  0
  -22.7466  -29.4635   22.4954 C   0  0  0  0  0  0
  -18.0288  -28.1357   22.8495 C   0  0  0  0  0  0
  -24.1500  -36.7301   23.2638 C   0  0  0  0  0  0
  -25.9601  -30.7886   21.3702 C   0  0  0  0  0  0
  -26.0326  -29.4154   20.7130 C   0  0  0  0  0  0
  -27.2119  -28.6094   20.7005 C   0  0  0  0  0  0
  -26.0168  -26.9062   19.4590 C   0  0  0  0  0  0
  -24.8507  -27.6917   19.4829 C   0  0  0  0  0  0
  -23.6288  -29.8281   20.1647 C   0  0  0  0  0  0
  -25.4116  -36.3076   24.0332 C   0  0  1  0  0  0
  -20.5880  -28.3666   23.1293 C   0  0  2  0  0  0
  -20.6759  -26.9383   22.5431 C   0  0  0  0  0  0
  -19.5735  -26.6358   21.5225 C   0  0  0  0  0  0
  -18.1914  -26.7897   22.1620 C   0  0  0  0  0  0
  -19.1537  -28.8835   23.2888 C   0  0  0  0  0  0
  -18.9459  -30.1445   23.8880 C   0  0  0  0  0  0
  -17.6453  -30.6557   24.0555 C   0  0  0  0  0  0
  -25.9075  -34.9445   23.5118 C   0  0  0  0  0  0
  -16.5346  -29.9057   23.6317 C   0  0  0  0  0  0
  -16.7273  -28.6481   23.0331 C   0  0  0  0  0  0
  -26.4510  -31.6520   25.0707 C   0  0  0  0  0  0
  -25.3753  -31.3604   26.1437 C   0  0  0  0  0  0
  -27.0317  -30.2938   24.6106 C   0  0  0  0  0  0
  -27.6106  -32.4198   25.7480 C   0  0  0  0  0  0
  -27.5593  -37.1791   24.8452 C   0  0  0  0  0  0
  -21.4175  -29.3044   22.3697 N   0  0  0  0  0  0
  -26.4290  -37.3779   23.9417 N   0  0  0  0  0  0
  -24.6881  -31.0615   22.0979 N   0  0  0  0  0  0
  -23.4205  -28.8168   23.3020 O   0  0  0  0  0  0
  -28.3254  -26.4391   20.1407 O   0  0  0  0  0  0
  -26.5657  -34.8899   22.4694 O   0  0  0  0  0  0
  -23.5458  -32.1410   23.7375 O   0  0  0  0  0  0
  -30.9776  -21.3420   21.0971 C   0  0  0  0  0  0
  -29.4275  -19.7358   20.1636 C   0  0  0  0  0  0
  -29.7510  -21.1171   20.4408 C   0  0  0  0  0  0
  -31.8400  -20.2726   21.4574 C   0  0  0  0  0  0
  -30.2553  -18.6046   20.5319 C   0  0  0  0  0  0
  -31.4737  -18.9075   21.2092 C   0  0  0  0  0  0
  -32.4019  -17.7653   21.6138 C   0  0  0  0  0  0
  -33.2463  -20.5846   23.5896 C   0  0  0  0  0  0
  -28.8164  -22.3248   20.0007 C   0  0  0  0  0  0
  -33.1973  -20.6603   22.0556 C   0  0  0  0  0  0
  -29.9159  -17.1376   19.9942 C   0  0  0  0  0  0
  -29.1734  -23.8718   20.2904 C   0  0  0  0  0  0
  -28.1076  -24.9915   19.8509 C   0  0  0  0  0  0
  -29.9292  -15.8246   20.7701 N   0  0  0  0  0  0
  -31.4725  -12.5287   19.1582 H   0  0  0  0  0  0
  -30.3756  -11.4336   19.9400 H   0  0  0  0  0  0
  -29.7640  -11.7312   17.5124 H   0  0  0  0  0  0
  -29.6418  -13.4564   17.7380 H   0  0  0  0  0  0
  -27.8686  -11.2959   18.9023 H   0  0  0  0  0  0
  -27.3747  -12.5694   17.8149 H   0  0  0  0  0  0
  -27.6643  -14.2602   19.5158 H   0  0  0  0  0  0
  -28.7202  -12.1413   21.4471 H   0  0  0  0  0  0
  -28.4474  -13.8185   21.8269 H   0  0  0  0  0  0
  -25.2806   -9.5634   22.4714 H   0  0  0  0  0  0
  -23.9999   -7.4603   22.7479 H   0  0  0  0  0  0
  -21.0876   -8.8786   19.8914 H   0  0  0  0  0  0
  -22.3773  -10.9665   19.6113 H   0  0  0  0  0  0
  -21.2011   -7.6145   23.9702 H   0  0  0  0  0  0
  -21.1496   -6.0543   25.9094 H   0  0  0  0  0  0
  -22.0599   -2.7580   23.2886 H   0  0  0  0  0  0
  -22.4224  -11.9784   22.4688 H   0  0  0  0  0  0
  -21.1106  -13.1037   22.2718 H   0  0  0  0  0  0
  -24.6799  -15.8676   20.5400 H   0  0  0  0  0  0
  -26.2916  -15.6143   20.0913 H   0  0  0  0  0  0
  -26.7193  -32.5430   23.1116 H   0  0  0  0  0  0
  -24.9979  -33.9683   25.0357 H   0  0  0  0  0  0
  -22.7111  -31.3122   21.4113 H   0  0  0  0  0  0
  -23.3762  -35.9632   23.3247 H   0  0  0  0  0  0
  -24.3619  -36.8987   22.2066 H   0  0  0  0  0  0
  -23.7234  -37.6481   23.6696 H   0  0  0  0  0  0
  -26.0860  -31.5508   20.5994 H   0  0  0  0  0  0
  -26.8442  -30.8427   21.9925 H   0  0  0  0  0  0
  -28.1082  -28.9685   21.1852 H   0  0  0  0  0  0
  -25.9438  -25.9645   18.9355 H   0  0  0  0  0  0
  -23.9489  -27.3225   19.0114 H   0  0  0  0  0  0
  -23.7509  -30.6078   19.4136 H   0  0  0  0  0  0
  -22.7426  -29.2694   19.8580 H   0  0  0  0  0  0
  -25.1284  -36.1938   25.0822 H   0  0  0  0  0  0
  -20.9985  -28.3238   24.1403 H   0  0  0  0  0  0
  -20.5619  -26.2295   23.3626 H   0  0  0  0  0  0
  -21.6626  -26.7375   22.1243 H   0  0  0  0  0  0
  -19.6885  -25.6278   21.1227 H   0  0  0  0  0  0
  -19.6648  -27.3189   20.6756 H   0  0  0  0  0  0
  -17.4191  -26.6689   21.4008 H   0  0  0  0  0  0
  -18.0275  -26.0024   22.8986 H   0  0  0  0  0  0
  -19.7936  -30.7270   24.2212 H   0  0  0  0  0  0
  -17.5001  -31.6226   24.5173 H   0  0  0  0  0  0
  -15.5340  -30.2951   23.7609 H   0  0  0  0  0  0
  -15.8685  -28.0794   22.7004 H   0  0  0  0  0  0
  -24.6002  -30.6866   25.7759 H   0  0  0  0  0  0
  -24.8861  -32.2729   26.4847 H   0  0  0  0  0  0
  -25.8128  -30.8815   27.0210 H   0  0  0  0  0  0
  -26.2846  -29.6696   24.1180 H   0  0  0  0  0  0
  -27.4072  -29.7168   25.4571 H   0  0  0  0  0  0
  -27.8710  -30.4210   23.9261 H   0  0  0  0  0  0
  -27.2757  -33.3483   26.2107 H   0  0  0  0  0  0
  -28.3903  -32.6744   25.0290 H   0  0  0  0  0  0
  -28.0775  -31.8255   26.5345 H   0  0  0  0  0  0
  -28.2569  -38.0128   24.7550 H   0  0  0  0  0  0
  -28.1117  -36.2659   24.6198 H   0  0  0  0  0  0
  -27.2321  -37.1360   25.8855 H   0  0  0  0  0  0
  -20.9326  -29.8859   21.6993 H   0  0  0  0  0  0
  -26.0162  -38.2853   24.1437 H   0  0  0  0  0  0
  -31.2921  -22.3588   21.2933 H   0  0  0  0  0  0
  -28.5214  -19.5424   19.6049 H   0  0  0  0  0  0
  -33.2472  -18.0713   22.2202 H   0  0  0  0  0  0
  -32.8114  -17.2682   20.7352 H   0  0  0  0  0  0
  -31.8637  -17.0297   22.2145 H   0  0  0  0  0  0
  -34.1897  -20.9913   23.9592 H   0  0  0  0  0  0
  -33.1766  -19.5612   23.9555 H   0  0  0  0  0  0
  -32.4382  -21.1631   24.0350 H   0  0  0  0  0  0
  -27.8373  -22.1258   20.4436 H   0  0  0  0  0  0
  -28.6683  -22.2178   18.9259 H   0  0  0  0  0  0
  -33.4492  -21.6777   21.7503 H   0  0  0  0  0  0
  -33.9951  -20.0580   21.6226 H   0  0  0  0  0  0
  -30.5505  -16.9969   19.1188 H   0  0  0  0  0  0
  -28.9040  -17.1918   19.5845 H   0  0  0  0  0  0
  -30.1190  -24.1086   19.8082 H   0  0  0  0  0  0
  -29.3417  -23.9904   21.3596 H   0  0  0  0  0  0
  -27.1631  -24.6931   20.3082 H   0  0  0  0  0  0
  -27.9568  -24.9089   18.7718 H   0  0  0  0  0  0
  -29.0641  -15.6293   21.2527 H   0  0  0  0  0  0
  1 25  1  0  0  0
  1 30  2  0  0  0
  1 84  1  0  0  0
  2  3  1  0  0  0
  2 25  1  0  0  0
  2 85  1  0  0  0
  2 86  1  0  0  0
  3  4  1  0  0  0
  3 87  1  0  0  0
  3 88  1  0  0  0
  4  5  1  0  0  0
  4 89  1  0  0  0
  4 90  1  0  0  0
  5  6  1  0  0  0
  5 26  1  0  0  0
  5 91  1  0  0  0
  6 25  1  0  0  0
  6 92  1  0  0  0
  6 93  1  0  0  0
  7  8  2  0  0  0
  7 26  1  0  0  0
  7 29  1  0  0  0
  8  9  1  0  0  0
  8 22  1  0  0  0
  9 10  1  0  0  0
  9 27  2  0  0  0
 10 11  2  0  0  0
 10 15  1  0  0  0
 11 12  1  0  0  0
 11 94  1  0  0  0
 12 13  2  0  0  0
 12 95  1  0  0  0
 13 14  1  0  0  0
 13 31  1  0  0  0
 14 15  2  0  0  0
 14 96  1  0  0  0
 15 97  1  0  0  0
 16 17  2  0  0  0
 16 21  1  0  0  0
 16 31  1  0  0  0
 17 18  1  0  0  0
 17 98  1  0  0  0
 18 19  2  0  0  0
 18 99  1  0  0  0
 19 20  1  0  0  0
 19 24  1  0  0  0
 20 21  2  0  0  0
 20100  1  0  0  0
 21 23  1  0  0  0
 22 28  1  0  0  0
 22 32  2  0  0  0
 26 27  1  0  0  0
 28101  1  0  0  0
 28102  1  0  0  0
 29103  1  0  0  0
 29104  1  0  0  0
 33 34  1  0  0  0
 33 66  1  0  0  0
 33 70  2  0  0  0
 34 36  1  0  0  0
 34 59  1  0  0  0
 34105  1  0  0  0
 35 44  2  0  0  0
 35 45  1  0  0  0
 35 68  1  0  0  0
 36 56  1  0  0  0
 36106  1  0  0  0
 37 39  1  0  0  0
 37 47  1  0  0  0
 37 66  1  0  0  0
 37107  1  0  0  0
 38 43  2  0  0  0
 38 46  1  0  0  0
 38 47  1  0  0  0
 39 64  1  0  0  0
 39 67  2  0  0  0
 40 52  1  0  0  0
 40 53  2  0  0  0
 40 58  1  0  0  0
 41108  1  0  0  0
 41109  1  0  0  0
 41110  1  0  0  0
 41 48  1  0  0  0
 42 43  1  0  0  0
 42 66  1  0  0  0
 42111  1  0  0  0
 42112  1  0  0  0
 43 44  1  0  0  0
 44113  1  0  0  0
 45 46  2  0  0  0
 45114  1  0  0  0
 46115  1  0  0  0
 47116  1  0  0  0
 47117  1  0  0  0
 48 56  1  0  0  0
 48 65  1  0  0  0
 48118  1  0  0  0
 49 50  1  0  0  0
 49 53  1  0  0  0
 49 64  1  0  0  0
 49119  1  0  0  0
 50 51  1  0  0  0
 50120  1  0  0  0
 50121  1  0  0  0
 51 52  1  0  0  0
 51122  1  0  0  0
 51123  1  0  0  0
 52124  1  0  0  0
 52125  1  0  0  0
 53 54  1  0  0  0
 54 55  2  0  0  0
 54126  1  0  0  0
 55 57  1  0  0  0
 55127  1  0  0  0
 56 69  2  0  0  0
 57 58  2  0  0  0
 57128  1  0  0  0
 58129  1  0  0  0
 59 60  1  0  0  0
 59 61  1  0  0  0
 59 62  1  0  0  0
 60130  1  0  0  0
 60131  1  0  0  0
 60132  1  0  0  0
 61133  1  0  0  0
 61134  1  0  0  0
 61135  1  0  0  0
 62136  1  0  0  0
 62137  1  0  0  0
 62138  1  0  0  0
 63 65  1  0  0  0
 63139  1  0  0  0
 63140  1  0  0  0
 63141  1  0  0  0
 64142  1  0  0  0
 65143  1  0  0  0
 68 83  1  0  0  0
 71 73  2  0  0  0
 71 74  1  0  0  0
 71144  1  0  0  0
 72 73  1  0  0  0
 72 75  2  0  0  0
 72145  1  0  0  0
 73 79  1  0  0  0
 74 76  2  0  0  0
 74 80  1  0  0  0
 75 76  1  0  0  0
 75 81  1  0  0  0
 76 77  1  0  0  0
 77146  1  0  0  0
 77147  1  0  0  0
 77148  1  0  0  0
 78 80  1  0  0  0
 78149  1  0  0  0
 78150  1  0  0  0
 78151  1  0  0  0
 79 82  1  0  0  0
 79152  1  0  0  0
 79153  1  0  0  0
 80154  1  0  0  0
 80155  1  0  0  0
 81 84  1  0  0  0
 81156  1  0  0  0
 81157  1  0  0  0
 82 83  1  0  0  0
 82158  1  0  0  0
 82159  1  0  0  0
 83160  1  0  0  0
 83161  1  0  0  0
 84162  1  0  0  0
M  ISO  4   1 100  68 101  83 101  84 100
M  END
> <chiral flag>
0

> <version>
0

> <s_m_source_file>
/data/baiqing/PycharmProjects/Reinvent-master-3.2/result/LINK_invent/BTK/process_docking_weight1_custom_sum_contain_oxygen_bond_distance_aromatic_linkinvent_7_9_3/rearranged_h_0036.sdf

> <i_m_source_file_index>
92

> <r_mmod_Potential_Energy-OPLS-2005>
73.3111801147461

> <r_mmod_Stretch_Energy-OPLS-2005>
111.757797241211

> <r_mmod_Bend_Energy-OPLS-2005>
165.940460205078

> <r_mmod_Torsional_Energy-OPLS-2005>
219.341369628906

> <r_mmod_Improper_Torsional_Energy-OPLS-2005>
8.45324325561523

> <r_mmod_Van_der_Waal_Energy-OPLS-2005>
142.303955078125

> <r_mmod_Electrostatic_Energy-OPLS-2005>
-425.258392333984

> <r_mmod_Solvation_Energy-OPLS-2005>
-209.92155456543

> <b_mmod_Minimization_Converged-OPLS-2005>
0

> <r_mmod_RMS_Derivative-OPLS-2005>
5.35082197189331

$$$$
94
                    3D
 Structure written by MMmdl.
156164  0  0  1  0            999 V2000
  -30.6664  -14.7624   20.4416 C   0  0  0  0  0  0
  -30.4021  -12.4743   19.4669 C   0  0  0  0  0  0
  -29.4844  -12.4868   18.2290 C   0  0  0  0  0  0
  -28.0184  -12.3089   18.6609 C   0  0  0  0  0  0
  -27.6250  -13.2415   19.8376 C   0  0  2  0  0  0
  -28.6767  -13.2444   20.9658 C   0  0  0  0  0  0
  -25.2448  -13.8229   20.5752 C   0  0  0  0  0  0
  -24.1758  -13.0473   20.9258 C   0  0  0  0  0  0
  -24.6360  -11.6944   20.8790 C   0  0  0  0  0  0
  -23.9055  -10.4314   21.0425 C   0  0  0  0  0  0
  -24.3615   -9.4221   21.9190 C   0  0  0  0  0  0
  -23.6302   -8.2248   22.0747 C   0  0  0  0  0  0
  -22.4284   -8.0285   21.3541 C   0  0  0  0  0  0
  -21.9922   -9.0258   20.4641 C   0  0  0  0  0  0
  -22.7238  -10.2147   20.3059 C   0  0  0  0  0  0
  -21.6860   -6.0747   22.5281 C   0  0  0  0  0  0
  -21.4020   -6.5646   23.8217 C   0  0  0  0  0  0
  -21.3654   -5.6792   24.9171 C   0  0  0  0  0  0
  -21.6043   -4.3057   24.7221 C   0  0  0  0  0  0
  -21.8820   -3.8155   23.4340 C   0  0  0  0  0  0
  -21.9195   -4.6974   22.3396 C   0  0  0  0  0  0
  -22.7774  -13.5235   21.1912 C   0  0  0  0  0  0
  -22.1663   -4.2162   21.0970 F   0  0  0  0  0  0
  -21.5621   -3.4535   25.7729 F   0  0  0  0  0  0
  -29.9551  -13.5862   20.3409 N   0  0  0  0  0  0
  -26.2859  -12.9457   20.3304 N   0  0  0  0  0  0
  -25.9291  -11.6594   20.5815 N   0  0  0  0  0  0
  -22.0440  -12.8192   22.0450 N   0  0  0  0  0  0
  -25.4184  -15.1952   20.4135 N   0  0  0  0  0  0
  -31.8803  -14.7259   20.2495 O   0  0  0  0  0  0
  -21.6643   -6.8889   21.4246 O   0  0  0  0  0  0
  -22.3442  -14.5538   20.6754 O   0  0  0  0  0  0
  -24.6323  -31.8509   23.1973 C   0  0  0  0  0  0
  -25.9124  -32.4737   23.8338 C   0  0  1  0  0  0
  -27.2162  -27.2437   20.1451 C   0  0  0  0  0  0
  -25.5896  -33.8539   24.2255 N   0  0  0  0  0  0
  -23.4305  -30.4718   21.5390 C   0  0  2  0  0  0
  -24.8774  -28.9067   20.1178 C   0  0  0  0  0  0
  -22.7499  -29.4579   22.4912 C   0  0  0  0  0  0
  -18.0283  -28.1394   22.8472 C   0  0  0  0  0  0
  -24.1484  -36.7305   23.2641 C   0  0  0  0  0  0
  -25.9753  -30.7627   21.3737 C   0  0  0  0  0  0
  -26.0487  -29.3777   20.7265 C   0  0  0  0  0  0
  -27.2267  -28.5620   20.7169 C   0  0  0  0  0  0
  -26.0236  -26.8321   19.5225 C   0  0  0  0  0  0
  -24.8703  -27.6441   19.5005 C   0  0  0  0  0  0
  -23.6497  -29.7978   20.1581 C   0  0  0  0  0  0
  -25.4102  -36.3060   24.0329 C   0  0  1  0  0  0
  -20.5879  -28.3707   23.1265 C   0  0  2  0  0  0
  -20.6759  -26.9423   22.5406 C   0  0  0  0  0  0
  -19.5747  -26.6394   21.5193 C   0  0  0  0  0  0
  -18.1927  -26.7938   22.1609 C   0  0  0  0  0  0
  -19.1534  -28.8870   23.2863 C   0  0  0  0  0  0
  -18.9449  -30.1460   23.8898 C   0  0  0  0  0  0
  -17.6444  -30.6586   24.0564 C   0  0  0  0  0  0
  -25.9038  -34.9425   23.5108 C   0  0  0  0  0  0
  -16.5339  -29.9084   23.6317 C   0  0  0  0  0  0
  -16.7268  -28.6502   23.0345 C   0  0  0  0  0  0
  -26.4491  -31.6569   25.0739 C   0  0  0  0  0  0
  -25.3744  -31.3678   26.1489 C   0  0  0  0  0  0
  -27.0329  -30.2992   24.6199 C   0  0  0  0  0  0
  -27.6052  -32.4309   25.7511 C   0  0  0  0  0  0
  -27.5573  -37.1804   24.8457 C   0  0  0  0  0  0
  -21.4201  -29.3046   22.3657 N   0  0  0  0  0  0
  -26.4280  -37.3753   23.9413 N   0  0  0  0  0  0
  -24.6988  -31.0472   22.0937 N   0  0  0  0  0  0
  -23.4188  -28.8116   23.3019 O   0  0  0  0  0  0
  -28.3303  -26.3835   20.0672 O   0  0  0  0  0  0
  -26.5620  -34.8900   22.4680 O   0  0  0  0  0  0
  -23.5467  -32.1315   23.7269 O   0  0  0  0  0  0
  -30.2850  -21.3169   21.3513 C   0  0  0  0  0  0
  -30.9893  -20.2444   21.9350 C   0  0  0  0  0  0
  -28.8495  -19.6893   20.2574 C   0  0  0  0  0  0
  -29.1980  -21.0914   20.4888 C   0  0  0  0  0  0
  -30.6448  -18.8923   21.6996 C   0  0  0  0  0  0
  -29.5555  -18.5537   20.8522 C   0  0  0  0  0  0
  -31.4656  -17.8250   22.4062 C   0  0  0  0  0  0
  -28.6141  -22.3660   19.7179 C   0  0  0  0  0  0
  -29.1339  -17.0074   20.6945 C   0  0  0  0  0  0
  -27.8134  -23.6140   20.3907 C   0  0  0  0  0  0
  -28.4169  -25.0700   20.7980 C   0  0  0  0  0  0
  -30.0975  -15.9868   20.1127 N   0  0  0  0  0  0
  -31.4443  -12.5645   19.1585 H   0  0  0  0  0  0
  -30.3288  -11.5205   19.9919 H   0  0  0  0  0  0
  -29.7669  -11.6938   17.5360 H   0  0  0  0  0  0
  -29.5958  -13.4282   17.6907 H   0  0  0  0  0  0
  -27.8941  -11.2679   18.9604 H   0  0  0  0  0  0
  -27.3473  -12.4592   17.8148 H   0  0  0  0  0  0
  -27.6034  -14.2481   19.4207 H   0  0  0  0  0  0
  -28.7301  -12.2717   21.4567 H   0  0  0  0  0  0
  -28.4190  -13.9728   21.7357 H   0  0  0  0  0  0
  -25.2761   -9.5695   22.4771 H   0  0  0  0  0  0
  -24.0019   -7.4629   22.7446 H   0  0  0  0  0  0
  -21.0868   -8.8774   19.8930 H   0  0  0  0  0  0
  -22.3705  -10.9686   19.6164 H   0  0  0  0  0  0
  -21.2024   -7.6158   23.9730 H   0  0  0  0  0  0
  -21.1468   -6.0516   25.9075 H   0  0  0  0  0  0
  -22.0607   -2.7624   23.2830 H   0  0  0  0  0  0
  -22.4084  -11.9833   22.4779 H   0  0  0  0  0  0
  -21.1056  -13.1173   22.2705 H   0  0  0  0  0  0
  -24.6612  -15.8601   20.5257 H   0  0  0  0  0  0
  -26.2728  -15.6205   20.0789 H   0  0  0  0  0  0
  -26.7209  -32.5393   23.1099 H   0  0  0  0  0  0
  -25.0015  -33.9659   25.0384 H   0  0  0  0  0  0
  -22.7293  -31.2952   21.3892 H   0  0  0  0  0  0
  -23.3720  -35.9659   23.3281 H   0  0  0  0  0  0
  -24.3578  -36.8951   22.2057 H   0  0  0  0  0  0
  -23.7268  -37.6513   23.6690 H   0  0  0  0  0  0
  -26.1062  -31.5145   20.5941 H   0  0  0  0  0  0
  -26.8565  -30.8227   22.0017 H   0  0  0  0  0  0
  -28.1408  -28.9258   21.1648 H   0  0  0  0  0  0
  -25.9862  -25.8657   19.0420 H   0  0  0  0  0  0
  -23.9776  -27.2821   19.0090 H   0  0  0  0  0  0
  -23.7772  -30.5696   19.3984 H   0  0  0  0  0  0
  -22.7670  -29.2302   19.8565 H   0  0  0  0  0  0
  -25.1285  -36.1897   25.0820 H   0  0  0  0  0  0
  -20.9974  -28.3285   24.1382 H   0  0  0  0  0  0
  -20.5612  -26.2324   23.3610 H   0  0  0  0  0  0
  -21.6636  -26.7420   22.1231 H   0  0  0  0  0  0
  -19.6905  -25.6302   21.1227 H   0  0  0  0  0  0
  -19.6686  -27.3199   20.6718 H   0  0  0  0  0  0
  -17.4187  -26.6664   21.4025 H   0  0  0  0  0  0
  -18.0354  -26.0088   22.9020 H   0  0  0  0  0  0
  -19.7918  -30.7270   24.2294 H   0  0  0  0  0  0
  -17.4990  -31.6266   24.5168 H   0  0  0  0  0  0
  -15.5339  -30.2982   23.7644 H   0  0  0  0  0  0
  -15.8666  -28.0815   22.7073 H   0  0  0  0  0  0
  -24.5951  -30.6980   25.7842 H   0  0  0  0  0  0
  -24.8897  -32.2810   26.4945 H   0  0  0  0  0  0
  -25.8101  -30.8871   27.0259 H   0  0  0  0  0  0
  -26.2899  -29.6755   24.1219 H   0  0  0  0  0  0
  -27.4010  -29.7240   25.4704 H   0  0  0  0  0  0
  -27.8778  -30.4273   23.9432 H   0  0  0  0  0  0
  -27.2672  -33.3621   26.2069 H   0  0  0  0  0  0
  -28.3867  -32.6837   25.0336 H   0  0  0  0  0  0
  -28.0719  -31.8450   26.5438 H   0  0  0  0  0  0
  -28.2571  -38.0114   24.7486 H   0  0  0  0  0  0
  -28.1082  -36.2640   24.6290 H   0  0  0  0  0  0
  -27.2298  -37.1466   25.8861 H   0  0  0  0  0  0
  -20.9402  -29.8781   21.6863 H   0  0  0  0  0  0
  -26.0150  -38.2826   24.1401 H   0  0  0  0  0  0
  -30.6155  -22.3296   21.5385 H   0  0  0  0  0  0
  -31.8259  -20.4781   22.5809 H   0  0  0  0  0  0
  -28.0250  -19.4709   19.5916 H   0  0  0  0  0  0
  -32.0854  -18.2661   23.1892 H   0  0  0  0  0  0
  -32.1302  -17.3233   21.7034 H   0  0  0  0  0  0
  -30.8297  -17.0782   22.8814 H   0  0  0  0  0  0
  -27.9330  -21.9394   18.9814 H   0  0  0  0  0  0
  -29.4214  -22.7755   19.1113 H   0  0  0  0  0  0
  -28.2387  -16.9786   20.0735 H   0  0  0  0  0  0
  -28.8115  -16.6483   21.6722 H   0  0  0  0  0  0
  -27.3240  -23.2032   21.2748 H   0  0  0  0  0  0
  -26.9807  -23.8348   19.7240 H   0  0  0  0  0  0
  -29.4806  -24.9152   20.9809 H   0  0  0  0  0  0
  -28.0169  -25.2875   21.7889 H   0  0  0  0  0  0
  -30.8045  -16.5018   19.6096 H   0  0  0  0  0  0
  1 25  1  0  0  0
  1 30  2  0  0  0
  1 82  1  0  0  0
  2  3  1  0  0  0
  2 25  1  0  0  0
  2 83  1  0  0  0
  2 84  1  0  0  0
  3  4  1  0  0  0
  3 85  1  0  0  0
  3 86  1  0  0  0
  4  5  1  0  0  0
  4 87  1  0  0  0
  4 88  1  0  0  0
  5  6  1  0  0  0
  5 26  1  0  0  0
  5 89  1  0  0  0
  6 25  1  0  0  0
  6 90  1  0  0  0
  6 91  1  0  0  0
  7  8  2  0  0  0
  7 26  1  0  0  0
  7 29  1  0  0  0
  8  9  1  0  0  0
  8 22  1  0  0  0
  9 10  1  0  0  0
  9 27  2  0  0  0
 10 11  2  0  0  0
 10 15  1  0  0  0
 11 12  1  0  0  0
 11 92  1  0  0  0
 12 13  2  0  0  0
 12 93  1  0  0  0
 13 14  1  0  0  0
 13 31  1  0  0  0
 14 15  2  0  0  0
 14 94  1  0  0  0
 15 95  1  0  0  0
 16 17  2  0  0  0
 16 21  1  0  0  0
 16 31  1  0  0  0
 17 18  1  0  0  0
 17 96  1  0  0  0
 18 19  2  0  0  0
 18 97  1  0  0  0
 19 20  1  0  0  0
 19 24  1  0  0  0
 20 21  2  0  0  0
 20 98  1  0  0  0
 21 23  1  0  0  0
 22 28  1  0  0  0
 22 32  2  0  0  0
 26 27  1  0  0  0
 28 99  1  0  0  0
 28100  1  0  0  0
 29101  1  0  0  0
 29102  1  0  0  0
 33 34  1  0  0  0
 33 66  1  0  0  0
 33 70  2  0  0  0
 34 36  1  0  0  0
 34 59  1  0  0  0
 34103  1  0  0  0
 35 44  2  0  0  0
 35 45  1  0  0  0
 35 68  1  0  0  0
 36 56  1  0  0  0
 36104  1  0  0  0
 37 39  1  0  0  0
 37 47  1  0  0  0
 37 66  1  0  0  0
 37105  1  0  0  0
 38 43  2  0  0  0
 38 46  1  0  0  0
 38 47  1  0  0  0
 39 64  1  0  0  0
 39 67  2  0  0  0
 40 52  1  0  0  0
 40 53  2  0  0  0
 40 58  1  0  0  0
 41106  1  0  0  0
 41107  1  0  0  0
 41108  1  0  0  0
 41 48  1  0  0  0
 42 43  1  0  0  0
 42 66  1  0  0  0
 42109  1  0  0  0
 42110  1  0  0  0
 43 44  1  0  0  0
 44111  1  0  0  0
 45 46  2  0  0  0
 45112  1  0  0  0
 46113  1  0  0  0
 47114  1  0  0  0
 47115  1  0  0  0
 48 56  1  0  0  0
 48 65  1  0  0  0
 48116  1  0  0  0
 49 50  1  0  0  0
 49 53  1  0  0  0
 49 64  1  0  0  0
 49117  1  0  0  0
 50 51  1  0  0  0
 50118  1  0  0  0
 50119  1  0  0  0
 51 52  1  0  0  0
 51120  1  0  0  0
 51121  1  0  0  0
 52122  1  0  0  0
 52123  1  0  0  0
 53 54  1  0  0  0
 54 55  2  0  0  0
 54124  1  0  0  0
 55 57  1  0  0  0
 55125  1  0  0  0
 56 69  2  0  0  0
 57 58  2  0  0  0
 57126  1  0  0  0
 58127  1  0  0  0
 59 60  1  0  0  0
 59 61  1  0  0  0
 59 62  1  0  0  0
 60128  1  0  0  0
 60129  1  0  0  0
 60130  1  0  0  0
 61131  1  0  0  0
 61132  1  0  0  0
 61133  1  0  0  0
 62134  1  0  0  0
 62135  1  0  0  0
 62136  1  0  0  0
 63 65  1  0  0  0
 63137  1  0  0  0
 63138  1  0  0  0
 63139  1  0  0  0
 64140  1  0  0  0
 65141  1  0  0  0
 68 81  1  0  0  0
 71 72  2  0  0  0
 71 74  1  0  0  0
 71142  1  0  0  0
 72 75  1  0  0  0
 72143  1  0  0  0
 73 74  2  0  0  0
 73 76  1  0  0  0
 73144  1  0  0  0
 74 78  1  0  0  0
 75 76  2  0  0  0
 75 77  1  0  0  0
 76 79  1  0  0  0
 77145  1  0  0  0
 77146  1  0  0  0
 77147  1  0  0  0
 78 80  1  0  0  0
 78148  1  0  0  0
 78149  1  0  0  0
 79 82  1  0  0  0
 79150  1  0  0  0
 79151  1  0  0  0
 80 81  1  0  0  0
 80152  1  0  0  0
 80153  1  0  0  0
 81154  1  0  0  0
 81155  1  0  0  0
 82156  1  0  0  0
M  ISO  4   1 100  68 101  81 101  82 100
M  END
> <chiral flag>
0

> <version>
0

> <s_m_source_file>
/data/baiqing/PycharmProjects/Reinvent-master-3.2/result/LINK_invent/BTK/process_docking_weight1_custom_sum_contain_oxygen_bond_distance_aromatic_linkinvent_7_9_3/rearranged_h_0036.sdf

> <i_m_source_file_index>
93

> <r_mmod_Potential_Energy-OPLS-2005>
306.078796386719

> <r_mmod_Stretch_Energy-OPLS-2005>
130.996109008789

> <r_mmod_Bend_Energy-OPLS-2005>
253.633193969727

> <r_mmod_Torsional_Energy-OPLS-2005>
295.576629638672

> <r_mmod_Improper_Torsional_Energy-OPLS-2005>
27.3879241943359

> <r_mmod_Van_der_Waal_Energy-OPLS-2005>
122.298042297363

> <r_mmod_Electrostatic_Energy-OPLS-2005>
-423.401123046875

> <r_mmod_Solvation_Energy-OPLS-2005>
-198.597366333008

> <b_mmod_Minimization_Converged-OPLS-2005>
0

> <r_mmod_RMS_Derivative-OPLS-2005>
2.32137417793274

$$$$
95
                    3D
 Structure written by MMmdl.
165173  0  0  1  0            999 V2000
  -30.7661  -14.3693   20.6596 C   0  0  0  0  0  0
  -30.4146  -12.2918   19.3830 C   0  0  0  0  0  0
  -29.4731  -12.5249   18.1833 C   0  0  0  0  0  0
  -27.9987  -12.4015   18.6086 C   0  0  0  0  0  0
  -27.6665  -13.2073   19.8910 C   0  0  2  0  0  0
  -28.7096  -12.9401   20.9959 C   0  0  0  0  0  0
  -25.2583  -13.8163   20.5724 C   0  0  0  0  0  0
  -24.1830  -13.0426   20.9166 C   0  0  0  0  0  0
  -24.6382  -11.6888   20.8731 C   0  0  0  0  0  0
  -23.9046  -10.4286   21.0420 C   0  0  0  0  0  0
  -24.3589   -9.4200   21.9204 C   0  0  0  0  0  0
  -23.6291   -8.2212   22.0773 C   0  0  0  0  0  0
  -22.4283   -8.0234   21.3540 C   0  0  0  0  0  0
  -21.9900   -9.0223   20.4653 C   0  0  0  0  0  0
  -22.7206  -10.2117   20.3093 C   0  0  0  0  0  0
  -21.6840   -6.0713   22.5261 C   0  0  0  0  0  0
  -21.4023   -6.5628   23.8196 C   0  0  0  0  0  0
  -21.3669   -5.6794   24.9165 C   0  0  0  0  0  0
  -21.6012   -4.3057   24.7228 C   0  0  0  0  0  0
  -21.8826   -3.8144   23.4371 C   0  0  0  0  0  0
  -21.9186   -4.6934   22.3414 C   0  0  0  0  0  0
  -22.7847  -13.5234   21.1850 C   0  0  0  0  0  0
  -22.1656   -4.2099   21.0999 F   0  0  0  0  0  0
  -21.5655   -3.4573   25.7780 F   0  0  0  0  0  0
  -30.0486  -13.2346   20.4496 N   0  0  0  0  0  0
  -26.3044  -12.9313   20.3491 N   0  0  0  0  0  0
  -25.9333  -11.6450   20.5828 N   0  0  0  0  0  0
  -22.0533  -12.8180   22.0403 N   0  0  0  0  0  0
  -25.4262  -15.1888   20.4143 N   0  0  0  0  0  0
  -31.8182  -14.6311   20.0745 O   0  0  0  0  0  0
  -21.6620   -6.8852   21.4241 O   0  0  0  0  0  0
  -22.3501  -14.5547   20.6724 O   0  0  0  0  0  0
  -24.6155  -31.8673   23.2067 C   0  0  0  0  0  0
  -25.9058  -32.4808   23.8386 C   0  0  1  0  0  0
  -27.2517  -27.4300   20.0596 C   0  0  0  0  0  0
  -25.5912  -33.8613   24.2313 N   0  0  0  0  0  0
  -23.4041  -30.4914   21.5477 C   0  0  2  0  0  0
  -24.8523  -28.9588   20.1090 C   0  0  0  0  0  0
  -22.7413  -29.4681   22.4976 C   0  0  0  0  0  0
  -18.0279  -28.1385   22.8481 C   0  0  0  0  0  0
  -24.1490  -36.7295   23.2640 C   0  0  0  0  0  0
  -25.9366  -30.8251   21.3676 C   0  0  0  0  0  0
  -26.0131  -29.4611   20.7092 C   0  0  0  0  0  0
  -27.2064  -28.6991   20.6903 C   0  0  0  0  0  0
  -26.0608  -26.9485   19.4591 C   0  0  0  0  0  0
  -24.8726  -27.7022   19.4851 C   0  0  0  0  0  0
  -23.6109  -29.8210   20.1640 C   0  0  0  0  0  0
  -25.4110  -36.3100   24.0335 C   0  0  1  0  0  0
  -20.5868  -28.3686   23.1297 C   0  0  2  0  0  0
  -20.6767  -26.9427   22.5406 C   0  0  0  0  0  0
  -19.5751  -26.6390   21.5204 C   0  0  0  0  0  0
  -18.1926  -26.7934   22.1615 C   0  0  0  0  0  0
  -19.1520  -28.8850   23.2885 C   0  0  0  0  0  0
  -18.9462  -30.1449   23.8892 C   0  0  0  0  0  0
  -17.6462  -30.6604   24.0556 C   0  0  0  0  0  0
  -25.9037  -34.9464   23.5119 C   0  0  0  0  0  0
  -16.5355  -29.9096   23.6342 C   0  0  0  0  0  0
  -16.7258  -28.6517   23.0359 C   0  0  0  0  0  0
  -26.4490  -31.6589   25.0711 C   0  0  0  0  0  0
  -25.3738  -31.3708   26.1442 C   0  0  0  0  0  0
  -27.0335  -30.3022   24.6126 C   0  0  0  0  0  0
  -27.6066  -32.4315   25.7462 C   0  0  0  0  0  0
  -27.5585  -37.1795   24.8467 C   0  0  0  0  0  0
  -21.4132  -29.3047   22.3702 N   0  0  0  0  0  0
  -26.4294  -37.3778   23.9415 N   0  0  0  0  0  0
  -24.6702  -31.0763   22.0991 N   0  0  0  0  0  0
  -23.4154  -28.8223   23.3040 O   0  0  0  0  0  0
  -28.4419  -26.7136   20.0802 O   0  0  0  0  0  0
  -26.5600  -34.8922   22.4684 O   0  0  0  0  0  0
  -23.5342  -32.1456   23.7453 O   0  0  0  0  0  0
  -28.1532  -20.4434   18.1893 C   0  0  0  0  0  0
  -28.7991  -19.5767   19.0769 C   0  0  0  0  0  0
  -28.5965  -21.7657   18.0220 C   0  0  0  0  0  0
  -29.9257  -19.9977   19.8136 C   0  0  0  0  0  0
  -30.4408  -21.3098   19.5866 C   0  0  0  0  0  0
  -29.7550  -22.2218   18.7138 C   0  0  0  0  0  0
  -27.7857  -22.6496   17.0796 C   0  0  0  0  0  0
  -31.7476  -21.6877   20.2813 C   0  0  0  0  0  0
  -30.5295  -19.0510   20.8762 C   0  0  0  0  0  0
  -30.2628  -23.6619   18.4887 C   0  0  0  0  0  0
  -30.1841  -17.5483   20.7147 C   0  0  0  0  0  0
  -29.8336  -24.7069   19.5625 C   0  0  0  0  0  0
  -30.7028  -16.5929   21.8044 C   0  0  0  0  0  0
  -28.6548  -25.6329   19.1511 C   0  0  0  0  0  0
  -30.2246  -15.2346   21.5300 N   0  0  0  0  0  0
  -31.4544  -12.3936   19.0612 H   0  0  0  0  0  0
  -30.3226  -11.2681   19.7478 H   0  0  0  0  0  0
  -29.6849  -11.8108   17.3848 H   0  0  0  0  0  0
  -29.6465  -13.5219   17.7656 H   0  0  0  0  0  0
  -27.7853  -11.3458   18.7629 H   0  0  0  0  0  0
  -27.3472  -12.7246   17.7945 H   0  0  0  0  0  0
  -27.7288  -14.2649   19.6355 H   0  0  0  0  0  0
  -28.6719  -11.8996   21.3143 H   0  0  0  0  0  0
  -28.4686  -13.5090   21.8955 H   0  0  0  0  0  0
  -25.2767   -9.5662   22.4739 H   0  0  0  0  0  0
  -23.9966   -7.4624   22.7518 H   0  0  0  0  0  0
  -21.0825   -8.8799   19.8968 H   0  0  0  0  0  0
  -22.3721  -10.9660   19.6195 H   0  0  0  0  0  0
  -21.2004   -7.6146   23.9688 H   0  0  0  0  0  0
  -21.1494   -6.0548   25.9051 H   0  0  0  0  0  0
  -22.0588   -2.7604   23.2916 H   0  0  0  0  0  0
  -22.4159  -11.9808   22.4723 H   0  0  0  0  0  0
  -21.1175  -13.1203   22.2729 H   0  0  0  0  0  0
  -24.6622  -15.8489   20.5273 H   0  0  0  0  0  0
  -26.2872  -15.6287   20.1147 H   0  0  0  0  0  0
  -26.7110  -32.5510   23.1134 H   0  0  0  0  0  0
  -25.0082  -33.9782   25.0467 H   0  0  0  0  0  0
  -22.6943  -31.3085   21.4062 H   0  0  0  0  0  0
  -23.3760  -35.9625   23.3304 H   0  0  0  0  0  0
  -24.3585  -36.8908   22.2060 H   0  0  0  0  0  0
  -23.7238  -37.6491   23.6655 H   0  0  0  0  0  0
  -26.0599  -31.5973   20.6059 H   0  0  0  0  0  0
  -26.8199  -30.8687   21.9929 H   0  0  0  0  0  0
  -28.1021  -29.0900   21.1519 H   0  0  0  0  0  0
  -26.0067  -25.9932   18.9624 H   0  0  0  0  0  0
  -23.9789  -27.3125   19.0156 H   0  0  0  0  0  0
  -23.7016  -30.5928   19.3982 H   0  0  0  0  0  0
  -22.7371  -29.2312   19.8791 H   0  0  0  0  0  0
  -25.1291  -36.1966   25.0823 H   0  0  0  0  0  0
  -20.9948  -28.3257   24.1415 H   0  0  0  0  0  0
  -20.5685  -26.2293   23.3588 H   0  0  0  0  0  0
  -21.6637  -26.7475   22.1194 H   0  0  0  0  0  0
  -19.6917  -25.6294   21.1246 H   0  0  0  0  0  0
  -19.6693  -27.3182   20.6720 H   0  0  0  0  0  0
  -17.4194  -26.6679   21.4015 H   0  0  0  0  0  0
  -18.0331  -26.0074   22.9008 H   0  0  0  0  0  0
  -19.7931  -30.7280   24.2242 H   0  0  0  0  0  0
  -17.5021  -31.6278   24.5166 H   0  0  0  0  0  0
  -15.5353  -30.3006   23.7667 H   0  0  0  0  0  0
  -15.8656  -28.0839   22.7072 H   0  0  0  0  0  0
  -24.5907  -30.7072   25.7762 H   0  0  0  0  0  0
  -24.8930  -32.2864   26.4891 H   0  0  0  0  0  0
  -25.8065  -30.8861   27.0196 H   0  0  0  0  0  0
  -26.2888  -29.6745   24.1211 H   0  0  0  0  0  0
  -27.4123  -29.7317   25.4617 H   0  0  0  0  0  0
  -27.8719  -30.4337   23.9278 H   0  0  0  0  0  0
  -27.2702  -33.3624   26.2050 H   0  0  0  0  0  0
  -28.3861  -32.6863   25.0261 H   0  0  0  0  0  0
  -28.0748  -31.8422   26.5359 H   0  0  0  0  0  0
  -28.2599  -38.0097   24.7520 H   0  0  0  0  0  0
  -28.1086  -36.2623   24.6286 H   0  0  0  0  0  0
  -27.2298  -37.1436   25.8869 H   0  0  0  0  0  0
  -20.9303  -29.8738   21.6901 H   0  0  0  0  0  0
  -26.0187  -38.2858   24.1412 H   0  0  0  0  0  0
  -27.2953  -20.0807   17.6390 H   0  0  0  0  0  0
  -28.3900  -18.5826   19.1705 H   0  0  0  0  0  0
  -27.0264  -22.0680   16.5522 H   0  0  0  0  0  0
  -28.4064  -23.1232   16.3186 H   0  0  0  0  0  0
  -27.2521  -23.4192   17.6351 H   0  0  0  0  0  0
  -31.6881  -21.4981   21.3517 H   0  0  0  0  0  0
  -32.0598  -22.7213   20.1605 H   0  0  0  0  0  0
  -32.5529  -21.0702   19.8812 H   0  0  0  0  0  0
  -30.1714  -19.3877   21.8518 H   0  0  0  0  0  0
  -31.6141  -19.1595   20.9010 H   0  0  0  0  0  0
  -30.0050  -24.0229   17.4942 H   0  0  0  0  0  0
  -31.3502  -23.6297   18.4296 H   0  0  0  0  0  0
  -30.5392  -17.2116   19.7407 H   0  0  0  0  0  0
  -29.1037  -17.4162   20.7321 H   0  0  0  0  0  0
  -30.6989  -25.3430   19.7589 H   0  0  0  0  0  0
  -29.6202  -24.2108   20.5083 H   0  0  0  0  0  0
  -30.3057  -16.9024   22.7731 H   0  0  0  0  0  0
  -31.7919  -16.6226   21.8795 H   0  0  0  0  0  0
  -27.7822  -24.9964   19.0516 H   0  0  0  0  0  0
  -28.8648  -26.0787   18.1775 H   0  0  0  0  0  0
  -29.3432  -14.9632   21.9398 H   0  0  0  0  0  0
  1 25  1  0  0  0
  1 30  2  0  0  0
  1 85  1  0  0  0
  2  3  1  0  0  0
  2 25  1  0  0  0
  2 86  1  0  0  0
  2 87  1  0  0  0
  3  4  1  0  0  0
  3 88  1  0  0  0
  3 89  1  0  0  0
  4  5  1  0  0  0
  4 90  1  0  0  0
  4 91  1  0  0  0
  5  6  1  0  0  0
  5 26  1  0  0  0
  5 92  1  0  0  0
  6 25  1  0  0  0
  6 93  1  0  0  0
  6 94  1  0  0  0
  7  8  2  0  0  0
  7 26  1  0  0  0
  7 29  1  0  0  0
  8  9  1  0  0  0
  8 22  1  0  0  0
  9 10  1  0  0  0
  9 27  2  0  0  0
 10 11  2  0  0  0
 10 15  1  0  0  0
 11 12  1  0  0  0
 11 95  1  0  0  0
 12 13  2  0  0  0
 12 96  1  0  0  0
 13 14  1  0  0  0
 13 31  1  0  0  0
 14 15  2  0  0  0
 14 97  1  0  0  0
 15 98  1  0  0  0
 16 17  2  0  0  0
 16 21  1  0  0  0
 16 31  1  0  0  0
 17 18  1  0  0  0
 17 99  1  0  0  0
 18 19  2  0  0  0
 18100  1  0  0  0
 19 20  1  0  0  0
 19 24  1  0  0  0
 20 21  2  0  0  0
 20101  1  0  0  0
 21 23  1  0  0  0
 22 28  1  0  0  0
 22 32  2  0  0  0
 26 27  1  0  0  0
 28102  1  0  0  0
 28103  1  0  0  0
 29104  1  0  0  0
 29105  1  0  0  0
 33 34  1  0  0  0
 33 66  1  0  0  0
 33 70  2  0  0  0
 34 36  1  0  0  0
 34 59  1  0  0  0
 34106  1  0  0  0
 35 44  2  0  0  0
 35 45  1  0  0  0
 35 68  1  0  0  0
 36 56  1  0  0  0
 36107  1  0  0  0
 37 39  1  0  0  0
 37 47  1  0  0  0
 37 66  1  0  0  0
 37108  1  0  0  0
 38 43  2  0  0  0
 38 46  1  0  0  0
 38 47  1  0  0  0
 39 64  1  0  0  0
 39 67  2  0  0  0
 40 52  1  0  0  0
 40 53  2  0  0  0
 40 58  1  0  0  0
 41109  1  0  0  0
 41110  1  0  0  0
 41111  1  0  0  0
 41 48  1  0  0  0
 42 43  1  0  0  0
 42 66  1  0  0  0
 42112  1  0  0  0
 42113  1  0  0  0
 43 44  1  0  0  0
 44114  1  0  0  0
 45 46  2  0  0  0
 45115  1  0  0  0
 46116  1  0  0  0
 47117  1  0  0  0
 47118  1  0  0  0
 48 56  1  0  0  0
 48 65  1  0  0  0
 48119  1  0  0  0
 49 50  1  0  0  0
 49 53  1  0  0  0
 49 64  1  0  0  0
 49120  1  0  0  0
 50 51  1  0  0  0
 50121  1  0  0  0
 50122  1  0  0  0
 51 52  1  0  0  0
 51123  1  0  0  0
 51124  1  0  0  0
 52125  1  0  0  0
 52126  1  0  0  0
 53 54  1  0  0  0
 54 55  2  0  0  0
 54127  1  0  0  0
 55 57  1  0  0  0
 55128  1  0  0  0
 56 69  2  0  0  0
 57 58  2  0  0  0
 57129  1  0  0  0
 58130  1  0  0  0
 59 60  1  0  0  0
 59 61  1  0  0  0
 59 62  1  0  0  0
 60131  1  0  0  0
 60132  1  0  0  0
 60133  1  0  0  0
 61134  1  0  0  0
 61135  1  0  0  0
 61136  1  0  0  0
 62137  1  0  0  0
 62138  1  0  0  0
 62139  1  0  0  0
 63 65  1  0  0  0
 63140  1  0  0  0
 63141  1  0  0  0
 63142  1  0  0  0
 64143  1  0  0  0
 65144  1  0  0  0
 68 84  1  0  0  0
 71 72  2  0  0  0
 71 73  1  0  0  0
 71145  1  0  0  0
 72 74  1  0  0  0
 72146  1  0  0  0
 73 76  2  0  0  0
 73 77  1  0  0  0
 74 75  2  0  0  0
 74 79  1  0  0  0
 75 76  1  0  0  0
 75 78  1  0  0  0
 76 80  1  0  0  0
 77147  1  0  0  0
 77148  1  0  0  0
 77149  1  0  0  0
 78150  1  0  0  0
 78151  1  0  0  0
 78152  1  0  0  0
 79 81  1  0  0  0
 79153  1  0  0  0
 79154  1  0  0  0
 80 82  1  0  0  0
 80155  1  0  0  0
 80156  1  0  0  0
 81 83  1  0  0  0
 81157  1  0  0  0
 81158  1  0  0  0
 82 84  1  0  0  0
 82159  1  0  0  0
 82160  1  0  0  0
 83 85  1  0  0  0
 83161  1  0  0  0
 83162  1  0  0  0
 84163  1  0  0  0
 84164  1  0  0  0
 85165  1  0  0  0
M  ISO  4   1 100  68 101  84 101  85 100
M  END
> <chiral flag>
0

> <version>
0

> <s_m_source_file>
/data/baiqing/PycharmProjects/Reinvent-master-3.2/result/LINK_invent/BTK/process_docking_weight1_custom_sum_contain_oxygen_bond_distance_aromatic_linkinvent_7_9_3/rearranged_h_0036.sdf

> <i_m_source_file_index>
94

> <r_mmod_Potential_Energy-OPLS-2005>
-79.7783508300781

> <r_mmod_Stretch_Energy-OPLS-2005>
44.815128326416

> <r_mmod_Bend_Energy-OPLS-2005>
108.290817260742

> <r_mmod_Torsional_Energy-OPLS-2005>
197.763824462891

> <r_mmod_Improper_Torsional_Energy-OPLS-2005>
1.97653925418854

> <r_mmod_Van_der_Waal_Energy-OPLS-2005>
168.300170898438

> <r_mmod_Electrostatic_Energy-OPLS-2005>
-400.105926513672

> <r_mmod_Solvation_Energy-OPLS-2005>
-210.254959106445

> <b_mmod_Minimization_Converged-OPLS-2005>
0

> <r_mmod_RMS_Derivative-OPLS-2005>
5.58050489425659

$$$$
96
                    3D
 Structure written by MMmdl.
161170  0  0  1  0            999 V2000
  -30.6683  -14.4925   20.5757 C   0  0  0  0  0  0
  -30.4403  -12.3110   19.4205 C   0  0  0  0  0  0
  -29.4997  -12.4699   18.2058 C   0  0  0  0  0  0
  -28.0170  -12.3523   18.6198 C   0  0  0  0  0  0
  -27.6662  -13.1862   19.8817 C   0  0  2  0  0  0
  -28.7140  -12.9558   20.9929 C   0  0  0  0  0  0
  -25.2637  -13.8108   20.5699 C   0  0  0  0  0  0
  -24.1860  -13.0414   20.9175 C   0  0  0  0  0  0
  -24.6388  -11.6875   20.8740 C   0  0  0  0  0  0
  -23.9047  -10.4278   21.0405 C   0  0  0  0  0  0
  -24.3604   -9.4198   21.9180 C   0  0  0  0  0  0
  -23.6286   -8.2232   22.0750 C   0  0  0  0  0  0
  -22.4267   -8.0272   21.3539 C   0  0  0  0  0  0
  -21.9904   -9.0244   20.4637 C   0  0  0  0  0  0
  -22.7225  -10.2128   20.3049 C   0  0  0  0  0  0
  -21.6850   -6.0736   22.5280 C   0  0  0  0  0  0
  -21.4008   -6.5639   23.8213 C   0  0  0  0  0  0
  -21.3655   -5.6792   24.9174 C   0  0  0  0  0  0
  -21.6046   -4.3055   24.7224 C   0  0  0  0  0  0
  -21.8822   -3.8147   23.4344 C   0  0  0  0  0  0
  -21.9193   -4.6965   22.3399 C   0  0  0  0  0  0
  -22.7882  -13.5229   21.1836 C   0  0  0  0  0  0
  -22.1663   -4.2150   21.0974 F   0  0  0  0  0  0
  -21.5633   -3.4538   25.7737 F   0  0  0  0  0  0
  -30.0356  -13.2918   20.4391 N   0  0  0  0  0  0
  -26.3057  -12.9234   20.3420 N   0  0  0  0  0  0
  -25.9314  -11.6419   20.5807 N   0  0  0  0  0  0
  -22.0519  -12.8223   22.0388 N   0  0  0  0  0  0
  -25.4392  -15.1827   20.4125 N   0  0  0  0  0  0
  -31.7936  -14.6903   20.1035 O   0  0  0  0  0  0
  -21.6632   -6.8873   21.4238 O   0  0  0  0  0  0
  -22.3574  -14.5541   20.6689 O   0  0  0  0  0  0
  -24.6125  -31.8702   23.2112 C   0  0  0  0  0  0
  -25.9035  -32.4835   23.8402 C   0  0  1  0  0  0
  -27.2525  -27.4556   20.1045 C   0  0  0  0  0  0
  -25.5907  -33.8632   24.2343 N   0  0  0  0  0  0
  -23.4006  -30.4902   21.5501 C   0  0  2  0  0  0
  -24.8536  -28.9554   20.1180 C   0  0  0  0  0  0
  -22.7397  -29.4667   22.5004 C   0  0  0  0  0  0
  -18.0267  -28.1378   22.8492 C   0  0  0  0  0  0
  -24.1494  -36.7316   23.2635 C   0  0  0  0  0  0
  -25.9252  -30.8412   21.3632 C   0  0  0  0  0  0
  -26.0073  -29.4730   20.7202 C   0  0  0  0  0  0
  -27.2067  -28.7286   20.7215 C   0  0  0  0  0  0
  -26.0883  -26.9557   19.4870 C   0  0  0  0  0  0
  -24.8872  -27.6922   19.5003 C   0  0  0  0  0  0
  -23.6113  -29.8169   20.1661 C   0  0  0  0  0  0
  -25.4118  -36.3122   24.0338 C   0  0  1  0  0  0
  -20.5853  -28.3669   23.1324 C   0  0  2  0  0  0
  -20.6761  -26.9410   22.5420 C   0  0  0  0  0  0
  -19.5745  -26.6390   21.5214 C   0  0  0  0  0  0
  -18.1917  -26.7928   22.1616 C   0  0  0  0  0  0
  -19.1514  -28.8839   23.2905 C   0  0  0  0  0  0
  -18.9444  -30.1447   23.8913 C   0  0  0  0  0  0
  -17.6450  -30.6593   24.0562 C   0  0  0  0  0  0
  -25.9042  -34.9483   23.5139 C   0  0  0  0  0  0
  -16.5341  -29.9094   23.6328 C   0  0  0  0  0  0
  -16.7256  -28.6507   23.0354 C   0  0  0  0  0  0
  -26.4477  -31.6590   25.0710 C   0  0  0  0  0  0
  -25.3755  -31.3675   26.1458 C   0  0  0  0  0  0
  -27.0300  -30.3036   24.6059 C   0  0  0  0  0  0
  -27.6055  -32.4294   25.7487 C   0  0  0  0  0  0
  -27.5590  -37.1816   24.8466 C   0  0  0  0  0  0
  -21.4128  -29.3038   22.3738 N   0  0  0  0  0  0
  -26.4307  -37.3804   23.9404 N   0  0  0  0  0  0
  -24.6636  -31.0811   22.1007 N   0  0  0  0  0  0
  -23.4174  -28.8225   23.3053 O   0  0  0  0  0  0
  -28.3890  -26.6769   20.0510 O   0  0  0  0  0  0
  -26.5592  -34.8930   22.4693 O   0  0  0  0  0  0
  -23.5324  -32.1441   23.7520 O   0  0  0  0  0  0
  -30.2829  -21.1358   19.5719 C   0  0  0  0  0  0
  -30.9402  -20.6029   21.6706 C   0  0  0  0  0  0
  -30.7666  -21.6499   20.7965 C   0  0  0  0  0  0
  -30.1693  -19.7746   19.7225 C   0  0  0  0  0  0
  -29.7347  -18.7406   18.8615 C   0  0  0  0  0  0
  -30.5596  -18.1178   21.4562 C   0  0  0  0  0  0
  -29.6823  -17.4359   19.3032 C   0  0  0  0  0  0
  -30.1043  -17.0978   20.6320 C   0  0  0  0  0  0
  -29.1107  -16.4147   18.3388 C   0  0  0  0  0  0
  -31.0794  -23.1019   21.0668 C   0  0  0  0  0  0
  -29.9157  -15.6849   21.2400 C   0  0  0  0  0  0
  -29.8632  -24.0557   20.9906 C   0  0  0  0  0  0
  -30.2800  -25.5389   21.1344 C   0  0  0  0  0  0
  -29.1295  -26.5603   21.2647 C   0  0  0  0  0  0
  -30.5779  -19.4182   21.0274 N   0  0  0  0  0  0
  -31.4804  -12.4324   19.1133 H   0  0  0  0  0  0
  -30.3687  -11.3013   19.8277 H   0  0  0  0  0  0
  -29.7338  -11.7133   17.4559 H   0  0  0  0  0  0
  -29.6766  -13.4267   17.7193 H   0  0  0  0  0  0
  -27.8147  -11.2976   18.8109 H   0  0  0  0  0  0
  -27.3711  -12.6363   17.7884 H   0  0  0  0  0  0
  -27.7085  -14.2310   19.5940 H   0  0  0  0  0  0
  -28.7038  -11.9098   21.3034 H   0  0  0  0  0  0
  -28.4787  -13.5165   21.8973 H   0  0  0  0  0  0
  -25.2757   -9.5675   22.4745 H   0  0  0  0  0  0
  -24.0001   -7.4626   22.7467 H   0  0  0  0  0  0
  -21.0840   -8.8759   19.8937 H   0  0  0  0  0  0
  -22.3690  -10.9665   19.6154 H   0  0  0  0  0  0
  -21.1993   -7.6147   23.9712 H   0  0  0  0  0  0
  -21.1476   -6.0522   25.9075 H   0  0  0  0  0  0
  -22.0605   -2.7610   23.2845 H   0  0  0  0  0  0
  -22.4138  -11.9883   22.4769 H   0  0  0  0  0  0
  -21.1134  -13.1240   22.2588 H   0  0  0  0  0  0
  -24.6777  -15.8418   20.5315 H   0  0  0  0  0  0
  -26.3016  -15.6251   20.1224 H   0  0  0  0  0  0
  -26.7116  -32.5570   23.1178 H   0  0  0  0  0  0
  -25.0077  -33.9804   25.0500 H   0  0  0  0  0  0
  -22.6888  -31.3058   21.4080 H   0  0  0  0  0  0
  -23.3759  -35.9648   23.3313 H   0  0  0  0  0  0
  -24.3586  -36.8914   22.2046 H   0  0  0  0  0  0
  -23.7239  -37.6525   23.6634 H   0  0  0  0  0  0
  -26.0309  -31.6043   20.5906 H   0  0  0  0  0  0
  -26.8149  -30.9025   21.9780 H   0  0  0  0  0  0
  -28.0906  -29.1468   21.1806 H   0  0  0  0  0  0
  -26.1122  -25.9877   19.0059 H   0  0  0  0  0  0
  -24.0021  -27.2866   19.0305 H   0  0  0  0  0  0
  -23.7148  -30.5883   19.4025 H   0  0  0  0  0  0
  -22.7382  -29.2311   19.8739 H   0  0  0  0  0  0
  -25.1295  -36.1999   25.0831 H   0  0  0  0  0  0
  -20.9938  -28.3233   24.1447 H   0  0  0  0  0  0
  -20.5669  -26.2279   23.3605 H   0  0  0  0  0  0
  -21.6634  -26.7462   22.1212 H   0  0  0  0  0  0
  -19.6912  -25.6305   21.1238 H   0  0  0  0  0  0
  -19.6690  -27.3204   20.6747 H   0  0  0  0  0  0
  -17.4197  -26.6685   21.4009 H   0  0  0  0  0  0
  -18.0310  -26.0065   22.9001 H   0  0  0  0  0  0
  -19.7922  -30.7257   24.2290 H   0  0  0  0  0  0
  -17.5007  -31.6276   24.5157 H   0  0  0  0  0  0
  -15.5345  -30.3005   23.7643 H   0  0  0  0  0  0
  -15.8649  -28.0832   22.7067 H   0  0  0  0  0  0
  -24.5940  -30.7015   25.7782 H   0  0  0  0  0  0
  -24.8938  -32.2824   26.4919 H   0  0  0  0  0  0
  -25.8125  -30.8831   27.0200 H   0  0  0  0  0  0
  -26.2831  -29.6809   24.1122 H   0  0  0  0  0  0
  -27.4080  -29.7258   25.4503 H   0  0  0  0  0  0
  -27.8663  -30.4351   23.9190 H   0  0  0  0  0  0
  -27.2673  -33.3567   26.2120 H   0  0  0  0  0  0
  -28.3855  -32.6893   25.0317 H   0  0  0  0  0  0
  -28.0735  -31.8376   26.5365 H   0  0  0  0  0  0
  -28.2620  -38.0104   24.7521 H   0  0  0  0  0  0
  -28.1080  -36.2640   24.6298 H   0  0  0  0  0  0
  -27.2301  -37.1471   25.8867 H   0  0  0  0  0  0
  -20.9295  -29.8753   21.6949 H   0  0  0  0  0  0
  -26.0206  -38.2888   24.1401 H   0  0  0  0  0  0
  -30.0491  -21.7069   18.6816 H   0  0  0  0  0  0
  -31.2924  -20.5609   22.6931 H   0  0  0  0  0  0
  -29.4105  -19.0091   17.8601 H   0  0  0  0  0  0
  -30.8729  -17.9575   22.4831 H   0  0  0  0  0  0
  -29.0258  -16.8205   17.3299 H   0  0  0  0  0  0
  -28.1090  -16.1236   18.6475 H   0  0  0  0  0  0
  -29.7479  -15.5398   18.2639 H   0  0  0  0  0  0
  -31.8329  -23.4396   20.3532 H   0  0  0  0  0  0
  -31.5478  -23.2052   22.0467 H   0  0  0  0  0  0
  -28.8402  -15.5267   21.2270 H   0  0  0  0  0  0
  -30.1961  -15.6952   22.2935 H   0  0  0  0  0  0
  -29.1496  -23.7898   21.7711 H   0  0  0  0  0  0
  -29.3454  -23.9231   20.0403 H   0  0  0  0  0  0
  -30.9192  -25.8235   20.2978 H   0  0  0  0  0  0
  -30.9021  -25.6330   22.0257 H   0  0  0  0  0  0
  -29.5633  -27.5266   21.5245 H   0  0  0  0  0  0
  -28.4673  -26.2760   22.0846 H   0  0  0  0  0  0
  1 25  1  0  0  0
  1 30  2  0  0  0
  1 81  1  0  0  0
  2  3  1  0  0  0
  2 25  1  0  0  0
  2 86  1  0  0  0
  2 87  1  0  0  0
  3  4  1  0  0  0
  3 88  1  0  0  0
  3 89  1  0  0  0
  4  5  1  0  0  0
  4 90  1  0  0  0
  4 91  1  0  0  0
  5  6  1  0  0  0
  5 26  1  0  0  0
  5 92  1  0  0  0
  6 25  1  0  0  0
  6 93  1  0  0  0
  6 94  1  0  0  0
  7  8  2  0  0  0
  7 26  1  0  0  0
  7 29  1  0  0  0
  8  9  1  0  0  0
  8 22  1  0  0  0
  9 10  1  0  0  0
  9 27  2  0  0  0
 10 11  2  0  0  0
 10 15  1  0  0  0
 11 12  1  0  0  0
 11 95  1  0  0  0
 12 13  2  0  0  0
 12 96  1  0  0  0
 13 14  1  0  0  0
 13 31  1  0  0  0
 14 15  2  0  0  0
 14 97  1  0  0  0
 15 98  1  0  0  0
 16 17  2  0  0  0
 16 21  1  0  0  0
 16 31  1  0  0  0
 17 18  1  0  0  0
 17 99  1  0  0  0
 18 19  2  0  0  0
 18100  1  0  0  0
 19 20  1  0  0  0
 19 24  1  0  0  0
 20 21  2  0  0  0
 20101  1  0  0  0
 21 23  1  0  0  0
 22 28  1  0  0  0
 22 32  2  0  0  0
 26 27  1  0  0  0
 28102  1  0  0  0
 28103  1  0  0  0
 29104  1  0  0  0
 29105  1  0  0  0
 33 34  1  0  0  0
 33 66  1  0  0  0
 33 70  2  0  0  0
 34 36  1  0  0  0
 34 59  1  0  0  0
 34106  1  0  0  0
 35 44  2  0  0  0
 35 45  1  0  0  0
 35 68  1  0  0  0
 36 56  1  0  0  0
 36107  1  0  0  0
 37 39  1  0  0  0
 37 47  1  0  0  0
 37 66  1  0  0  0
 37108  1  0  0  0
 38 43  2  0  0  0
 38 46  1  0  0  0
 38 47  1  0  0  0
 39 64  1  0  0  0
 39 67  2  0  0  0
 40 52  1  0  0  0
 40 53  2  0  0  0
 40 58  1  0  0  0
 41109  1  0  0  0
 41110  1  0  0  0
 41111  1  0  0  0
 41 48  1  0  0  0
 42 43  1  0  0  0
 42 66  1  0  0  0
 42112  1  0  0  0
 42113  1  0  0  0
 43 44  1  0  0  0
 44114  1  0  0  0
 45 46  2  0  0  0
 45115  1  0  0  0
 46116  1  0  0  0
 47117  1  0  0  0
 47118  1  0  0  0
 48 56  1  0  0  0
 48 65  1  0  0  0
 48119  1  0  0  0
 49 50  1  0  0  0
 49 53  1  0  0  0
 49 64  1  0  0  0
 49120  1  0  0  0
 50 51  1  0  0  0
 50121  1  0  0  0
 50122  1  0  0  0
 51 52  1  0  0  0
 51123  1  0  0  0
 51124  1  0  0  0
 52125  1  0  0  0
 52126  1  0  0  0
 53 54  1  0  0  0
 54 55  2  0  0  0
 54127  1  0  0  0
 55 57  1  0  0  0
 55128  1  0  0  0
 56 69  2  0  0  0
 57 58  2  0  0  0
 57129  1  0  0  0
 58130  1  0  0  0
 59 60  1  0  0  0
 59 61  1  0  0  0
 59 62  1  0  0  0
 60131  1  0  0  0
 60132  1  0  0  0
 60133  1  0  0  0
 61134  1  0  0  0
 61135  1  0  0  0
 61136  1  0  0  0
 62137  1  0  0  0
 62138  1  0  0  0
 62139  1  0  0  0
 63 65  1  0  0  0
 63140  1  0  0  0
 63141  1  0  0  0
 63142  1  0  0  0
 64143  1  0  0  0
 65144  1  0  0  0
 68 84  1  0  0  0
 71 73  1  0  0  0
 71 74  2  0  0  0
 71145  1  0  0  0
 72 73  2  0  0  0
 72 85  1  0  0  0
 72146  1  0  0  0
 73 80  1  0  0  0
 74 75  1  0  0  0
 74 85  1  0  0  0
 75 77  2  0  0  0
 75147  1  0  0  0
 76 78  2  0  0  0
 76 85  1  0  0  0
 76148  1  0  0  0
 77 78  1  0  0  0
 77 79  1  0  0  0
 78 81  1  0  0  0
 79149  1  0  0  0
 79150  1  0  0  0
 79151  1  0  0  0
 80 82  1  0  0  0
 80152  1  0  0  0
 80153  1  0  0  0
 81154  1  0  0  0
 81155  1  0  0  0
 82 83  1  0  0  0
 82156  1  0  0  0
 82157  1  0  0  0
 83 84  1  0  0  0
 83158  1  0  0  0
 83159  1  0  0  0
 84160  1  0  0  0
 84161  1  0  0  0
M  ISO  4   1 100  68 101  81 100  84 101
M  END
> <chiral flag>
0

> <version>
0

> <s_m_source_file>
/data/baiqing/PycharmProjects/Reinvent-master-3.2/result/LINK_invent/BTK/process_docking_weight1_custom_sum_contain_oxygen_bond_distance_aromatic_linkinvent_7_9_3/rearranged_h_0036.sdf

> <i_m_source_file_index>
95

> <r_mmod_Potential_Energy-OPLS-2005>
-26.2315921783447

> <r_mmod_Stretch_Energy-OPLS-2005>
39.8633842468262

> <r_mmod_Bend_Energy-OPLS-2005>
105.505088806152

> <r_mmod_Torsional_Energy-OPLS-2005>
182.992858886719

> <r_mmod_Improper_Torsional_Energy-OPLS-2005>
3.19141793251038

> <r_mmod_Van_der_Waal_Energy-OPLS-2005>
141.710861206055

> <r_mmod_Electrostatic_Energy-OPLS-2005>
-309.287139892578

> <r_mmod_Solvation_Energy-OPLS-2005>
-202.362442016602

> <b_mmod_Minimization_Converged-OPLS-2005>
0

> <r_mmod_RMS_Derivative-OPLS-2005>
0.856432855129242

$$$$
97
                    3D
 Structure written by MMmdl.
160168  0  0  1  0            999 V2000
  -30.5760  -14.7581   20.4503 C   0  0  0  0  0  0
  -30.4198  -12.4544   19.4863 C   0  0  0  0  0  0
  -29.4968  -12.4300   18.2485 C   0  0  0  0  0  0
  -28.0352  -12.2301   18.6808 C   0  0  0  0  0  0
  -27.6183  -13.2063   19.8056 C   0  0  2  0  0  0
  -28.6479  -13.2168   20.9523 C   0  0  0  0  0  0
  -25.2446  -13.8146   20.5613 C   0  0  0  0  0  0
  -24.1757  -13.0471   20.9214 C   0  0  0  0  0  0
  -24.6285  -11.6901   20.8760 C   0  0  0  0  0  0
  -23.8976  -10.4302   21.0388 C   0  0  0  0  0  0
  -24.3583   -9.4229   21.9143 C   0  0  0  0  0  0
  -23.6288   -8.2245   22.0710 C   0  0  0  0  0  0
  -22.4260   -8.0263   21.3528 C   0  0  0  0  0  0
  -21.9871   -9.0216   20.4598 C   0  0  0  0  0  0
  -22.7158  -10.2114   20.3004 C   0  0  0  0  0  0
  -21.6856   -6.0711   22.5270 C   0  0  0  0  0  0
  -21.4007   -6.5620   23.8213 C   0  0  0  0  0  0
  -21.3667   -5.6773   24.9178 C   0  0  0  0  0  0
  -21.6074   -4.3039   24.7212 C   0  0  0  0  0  0
  -21.8821   -3.8117   23.4336 C   0  0  0  0  0  0
  -21.9183   -4.6931   22.3391 C   0  0  0  0  0  0
  -22.7787  -13.5228   21.1928 C   0  0  0  0  0  0
  -22.1674   -4.2127   21.0965 F   0  0  0  0  0  0
  -21.5636   -3.4527   25.7722 F   0  0  0  0  0  0
  -29.9471  -13.5416   20.3691 N   0  0  0  0  0  0
  -26.2773  -12.9289   20.3042 N   0  0  0  0  0  0
  -25.9184  -11.6495   20.5686 N   0  0  0  0  0  0
  -22.0465  -12.8197   22.0463 N   0  0  0  0  0  0
  -25.4234  -15.1877   20.4070 N   0  0  0  0  0  0
  -31.7761  -14.8483   20.1988 O   0  0  0  0  0  0
  -21.6655   -6.8845   21.4222 O   0  0  0  0  0  0
  -22.3445  -14.5528   20.6702 O   0  0  0  0  0  0
  -24.6321  -31.8502   23.1986 C   0  0  0  0  0  0
  -25.9114  -32.4747   23.8342 C   0  0  1  0  0  0
  -27.2449  -27.2521   20.0880 C   0  0  0  0  0  0
  -25.5902  -33.8561   24.2256 N   0  0  0  0  0  0
  -23.4343  -30.4686   21.5399 C   0  0  2  0  0  0
  -24.8811  -28.9143   20.1122 C   0  0  0  0  0  0
  -22.7525  -29.4551   22.4882 C   0  0  0  0  0  0
  -18.0276  -28.1390   22.8496 C   0  0  0  0  0  0
  -24.1457  -36.7267   23.2662 C   0  0  0  0  0  0
  -25.9812  -30.7446   21.3880 C   0  0  0  0  0  0
  -26.0518  -29.3682   20.7321 C   0  0  0  0  0  0
  -27.2276  -28.5454   20.7186 C   0  0  0  0  0  0
  -26.0475  -26.8809   19.4284 C   0  0  0  0  0  0
  -24.8853  -27.6775   19.4556 C   0  0  0  0  0  0
  -23.6534  -29.8038   20.1555 C   0  0  0  0  0  0
  -25.4088  -36.3085   24.0358 C   0  0  1  0  0  0
  -20.5890  -28.3691   23.1259 C   0  0  2  0  0  0
  -20.6755  -26.9391   22.5426 C   0  0  0  0  0  0
  -19.5736  -26.6377   21.5228 C   0  0  0  0  0  0
  -18.1912  -26.7941   22.1622 C   0  0  0  0  0  0
  -19.1548  -28.8868   23.2868 C   0  0  0  0  0  0
  -18.9471  -30.1465   23.8882 C   0  0  0  0  0  0
  -17.6474  -30.6588   24.0567 C   0  0  0  0  0  0
  -25.9033  -34.9444   23.5109 C   0  0  0  0  0  0
  -16.5349  -29.9091   23.6357 C   0  0  0  0  0  0
  -16.7283  -28.6504   23.0377 C   0  0  0  0  0  0
  -26.4492  -31.6611   25.0752 C   0  0  0  0  0  0
  -25.3745  -31.3767   26.1515 C   0  0  0  0  0  0
  -27.0362  -30.3044   24.6243 C   0  0  0  0  0  0
  -27.6064  -32.4372   25.7467 C   0  0  0  0  0  0
  -27.5562  -37.1775   24.8474 C   0  0  0  0  0  0
  -21.4222  -29.3019   22.3648 N   0  0  0  0  0  0
  -26.4261  -37.3786   23.9441 N   0  0  0  0  0  0
  -24.7016  -31.0422   22.0967 N   0  0  0  0  0  0
  -23.4212  -28.8034   23.2962 O   0  0  0  0  0  0
  -28.3614  -26.3683   20.1329 O   0  0  0  0  0  0
  -26.5625  -34.8923   22.4691 O   0  0  0  0  0  0
  -23.5445  -32.1328   23.7227 O   0  0  0  0  0  0
  -31.7237  -21.2071   17.7704 C   0  0  0  0  0  0
  -29.9920  -19.6854   19.2076 C   0  0  0  0  0  0
  -30.7849  -19.1743   18.1514 C   0  0  0  0  0  0
  -29.9527  -21.1601   19.2652 C   0  0  0  0  0  0
  -29.7511  -17.9973   16.1959 C   0  0  0  0  0  0
  -29.2994  -18.5953   20.1196 C   0  0  0  0  0  0
  -30.5452  -17.8167   17.4977 C   0  0  0  0  0  0
  -28.8632  -22.1420   19.8711 C   0  0  0  0  0  0
  -29.2022  -23.7148   20.2004 C   0  0  0  0  0  0
  -30.2304  -17.3548   20.6682 C   0  0  0  0  0  0
  -28.2596  -24.9321   19.6652 C   0  0  0  0  0  0
  -31.6935  -19.9168   17.5021 N   0  0  0  0  0  0
  -30.8477  -21.8542   18.5289 N   0  0  0  0  0  0
  -29.7886  -15.8979   20.6083 N   0  0  0  0  0  0
  -31.4576  -12.6006   19.1860 H   0  0  0  0  0  0
  -30.3745  -11.5074   20.0277 H   0  0  0  0  0  0
  -29.7979  -11.6201   17.5800 H   0  0  0  0  0  0
  -29.5864  -13.3580   17.6851 H   0  0  0  0  0  0
  -27.9592  -11.2098   19.0574 H   0  0  0  0  0  0
  -27.3629  -12.3009   17.8239 H   0  0  0  0  0  0
  -27.5907  -14.1868   19.3298 H   0  0  0  0  0  0
  -28.6930  -12.2583   21.4689 H   0  0  0  0  0  0
  -28.3683  -13.9651   21.6948 H   0  0  0  0  0  0
  -25.2729   -9.5744   22.4727 H   0  0  0  0  0  0
  -24.0018   -7.4617   22.7388 H   0  0  0  0  0  0
  -21.0827   -8.8667   19.8910 H   0  0  0  0  0  0
  -22.3557  -10.9635   19.6121 H   0  0  0  0  0  0
  -21.2011   -7.6126   23.9708 H   0  0  0  0  0  0
  -21.1512   -6.0509   25.9095 H   0  0  0  0  0  0
  -22.0586   -2.7562   23.2838 H   0  0  0  0  0  0
  -22.4121  -11.9904   22.4943 H   0  0  0  0  0  0
  -21.1039  -13.1127   22.2626 H   0  0  0  0  0  0
  -24.6651  -15.8466   20.5370 H   0  0  0  0  0  0
  -26.2707  -15.6217   20.0722 H   0  0  0  0  0  0
  -26.7151  -32.5336   23.1036 H   0  0  0  0  0  0
  -25.0078  -33.9666   25.0431 H   0  0  0  0  0  0
  -22.7370  -31.2941   21.3938 H   0  0  0  0  0  0
  -23.3742  -35.9577   23.3334 H   0  0  0  0  0  0
  -24.3530  -36.8858   22.2074 H   0  0  0  0  0  0
  -23.7163  -37.6459   23.6658 H   0  0  0  0  0  0
  -26.1236  -31.4879   20.6050 H   0  0  0  0  0  0
  -26.8646  -30.8000   22.0114 H   0  0  0  0  0  0
  -28.1137  -28.8817   21.2366 H   0  0  0  0  0  0
  -25.9709  -25.9565   18.8765 H   0  0  0  0  0  0
  -23.9908  -27.3514   18.9400 H   0  0  0  0  0  0
  -23.7666  -30.5808   19.3961 H   0  0  0  0  0  0
  -22.7758  -29.2259   19.8572 H   0  0  0  0  0  0
  -25.1244  -36.1957   25.0852 H   0  0  0  0  0  0
  -20.9985  -28.3266   24.1374 H   0  0  0  0  0  0
  -20.5644  -26.2276   23.3623 H   0  0  0  0  0  0
  -21.6619  -26.7387   22.1210 H   0  0  0  0  0  0
  -19.6882  -25.6306   21.1228 H   0  0  0  0  0  0
  -19.6691  -27.3205   20.6787 H   0  0  0  0  0  0
  -17.4182  -26.6721   21.4016 H   0  0  0  0  0  0
  -18.0288  -26.0080   22.9017 H   0  0  0  0  0  0
  -19.7948  -30.7295   24.2231 H   0  0  0  0  0  0
  -17.5024  -31.6275   24.5162 H   0  0  0  0  0  0
  -15.5358  -30.2977   23.7718 H   0  0  0  0  0  0
  -15.8664  -28.0819   22.7120 H   0  0  0  0  0  0
  -24.5914  -30.7100   25.7875 H   0  0  0  0  0  0
  -24.8962  -32.2958   26.4947 H   0  0  0  0  0  0
  -25.8123  -30.8970   27.0295 H   0  0  0  0  0  0
  -26.2958  -29.6772   24.1287 H   0  0  0  0  0  0
  -27.4089  -29.7310   25.4742 H   0  0  0  0  0  0
  -27.8815  -30.4338   23.9478 H   0  0  0  0  0  0
  -27.2708  -33.3689   26.2025 H   0  0  0  0  0  0
  -28.3876  -32.6914   25.0291 H   0  0  0  0  0  0
  -28.0770  -31.8547   26.5391 H   0  0  0  0  0  0
  -28.2605  -38.0045   24.7529 H   0  0  0  0  0  0
  -28.1018  -36.2590   24.6285 H   0  0  0  0  0  0
  -27.2292  -37.1428   25.8875 H   0  0  0  0  0  0
  -20.9415  -29.8715   21.6820 H   0  0  0  0  0  0
  -26.0148  -38.2849   24.1505 H   0  0  0  0  0  0
  -32.4898  -21.7807   17.2641 H   0  0  0  0  0  0
  -29.5055  -17.0380   15.7427 H   0  0  0  0  0  0
  -30.3544  -18.5460   15.4698 H   0  0  0  0  0  0
  -28.8177  -18.5514   16.3380 H   0  0  0  0  0  0
  -28.3750  -18.2280   19.6513 H   0  0  0  0  0  0
  -28.9801  -19.1819   20.9814 H   0  0  0  0  0  0
  -30.0170  -17.1064   18.1295 H   0  0  0  0  0  0
  -31.5050  -17.3637   17.2484 H   0  0  0  0  0  0
  -28.0245  -22.1143   19.1732 H   0  0  0  0  0  0
  -28.4765  -21.6741   20.7765 H   0  0  0  0  0  0
  -30.2423  -23.8995   19.9315 H   0  0  0  0  0  0
  -29.2163  -23.7900   21.2866 H   0  0  0  0  0  0
  -30.4249  -17.5775   21.7169 H   0  0  0  0  0  0
  -31.2478  -17.3781   20.2851 H   0  0  0  0  0  0
  -28.3902  -24.9727   18.5818 H   0  0  0  0  0  0
  -27.2478  -24.5851   19.8633 H   0  0  0  0  0  0
  -28.7949  -15.7394   20.6792 H   0  0  0  0  0  0
  1 25  1  0  0  0
  1 30  2  0  0  0
  1 84  1  0  0  0
  2  3  1  0  0  0
  2 25  1  0  0  0
  2 85  1  0  0  0
  2 86  1  0  0  0
  3  4  1  0  0  0
  3 87  1  0  0  0
  3 88  1  0  0  0
  4  5  1  0  0  0
  4 89  1  0  0  0
  4 90  1  0  0  0
  5  6  1  0  0  0
  5 26  1  0  0  0
  5 91  1  0  0  0
  6 25  1  0  0  0
  6 92  1  0  0  0
  6 93  1  0  0  0
  7  8  2  0  0  0
  7 26  1  0  0  0
  7 29  1  0  0  0
  8  9  1  0  0  0
  8 22  1  0  0  0
  9 10  1  0  0  0
  9 27  2  0  0  0
 10 11  2  0  0  0
 10 15  1  0  0  0
 11 12  1  0  0  0
 11 94  1  0  0  0
 12 13  2  0  0  0
 12 95  1  0  0  0
 13 14  1  0  0  0
 13 31  1  0  0  0
 14 15  2  0  0  0
 14 96  1  0  0  0
 15 97  1  0  0  0
 16 17  2  0  0  0
 16 21  1  0  0  0
 16 31  1  0  0  0
 17 18  1  0  0  0
 17 98  1  0  0  0
 18 19  2  0  0  0
 18 99  1  0  0  0
 19 20  1  0  0  0
 19 24  1  0  0  0
 20 21  2  0  0  0
 20100  1  0  0  0
 21 23  1  0  0  0
 22 28  1  0  0  0
 22 32  2  0  0  0
 26 27  1  0  0  0
 28101  1  0  0  0
 28102  1  0  0  0
 29103  1  0  0  0
 29104  1  0  0  0
 33 34  1  0  0  0
 33 66  1  0  0  0
 33 70  2  0  0  0
 34 36  1  0  0  0
 34 59  1  0  0  0
 34105  1  0  0  0
 35 44  2  0  0  0
 35 45  1  0  0  0
 35 68  1  0  0  0
 36 56  1  0  0  0
 36106  1  0  0  0
 37 39  1  0  0  0
 37 47  1  0  0  0
 37 66  1  0  0  0
 37107  1  0  0  0
 38 43  2  0  0  0
 38 46  1  0  0  0
 38 47  1  0  0  0
 39 64  1  0  0  0
 39 67  2  0  0  0
 40 52  1  0  0  0
 40 53  2  0  0  0
 40 58  1  0  0  0
 41108  1  0  0  0
 41109  1  0  0  0
 41110  1  0  0  0
 41 48  1  0  0  0
 42 43  1  0  0  0
 42 66  1  0  0  0
 42111  1  0  0  0
 42112  1  0  0  0
 43 44  1  0  0  0
 44113  1  0  0  0
 45 46  2  0  0  0
 45114  1  0  0  0
 46115  1  0  0  0
 47116  1  0  0  0
 47117  1  0  0  0
 48 56  1  0  0  0
 48 65  1  0  0  0
 48118  1  0  0  0
 49 50  1  0  0  0
 49 53  1  0  0  0
 49 64  1  0  0  0
 49119  1  0  0  0
 50 51  1  0  0  0
 50120  1  0  0  0
 50121  1  0  0  0
 51 52  1  0  0  0
 51122  1  0  0  0
 51123  1  0  0  0
 52124  1  0  0  0
 52125  1  0  0  0
 53 54  1  0  0  0
 54 55  2  0  0  0
 54126  1  0  0  0
 55 57  1  0  0  0
 55127  1  0  0  0
 56 69  2  0  0  0
 57 58  2  0  0  0
 57128  1  0  0  0
 58129  1  0  0  0
 59 60  1  0  0  0
 59 61  1  0  0  0
 59 62  1  0  0  0
 60130  1  0  0  0
 60131  1  0  0  0
 60132  1  0  0  0
 61133  1  0  0  0
 61134  1  0  0  0
 61135  1  0  0  0
 62136  1  0  0  0
 62137  1  0  0  0
 62138  1  0  0  0
 63 65  1  0  0  0
 63139  1  0  0  0
 63140  1  0  0  0
 63141  1  0  0  0
 64142  1  0  0  0
 65143  1  0  0  0
 68 81  1  0  0  0
 71 82  2  0  0  0
 71 83  1  0  0  0
 71144  1  0  0  0
 72 73  2  0  0  0
 72 74  1  0  0  0
 72 76  1  0  0  0
 73 77  1  0  0  0
 73 82  1  0  0  0
 74 78  1  0  0  0
 74 83  2  0  0  0
 75 77  1  0  0  0
 75145  1  0  0  0
 75146  1  0  0  0
 75147  1  0  0  0
 76 80  1  0  0  0
 76148  1  0  0  0
 76149  1  0  0  0
 77150  1  0  0  0
 77151  1  0  0  0
 78 79  1  0  0  0
 78152  1  0  0  0
 78153  1  0  0  0
 79 81  1  0  0  0
 79154  1  0  0  0
 79155  1  0  0  0
 80 84  1  0  0  0
 80156  1  0  0  0
 80157  1  0  0  0
 81158  1  0  0  0
 81159  1  0  0  0
 84160  1  0  0  0
M  ISO  4   1 100  68 101  81 101  84 100
M  END
> <chiral flag>
0

> <version>
0

> <s_m_source_file>
/data/baiqing/PycharmProjects/Reinvent-master-3.2/result/LINK_invent/BTK/process_docking_weight1_custom_sum_contain_oxygen_bond_distance_aromatic_linkinvent_7_9_3/rearranged_h_0036.sdf

> <i_m_source_file_index>
96

> <r_mmod_Potential_Energy-OPLS-2005>
-207.825790405273

> <r_mmod_Stretch_Energy-OPLS-2005>
141.97883605957

> <r_mmod_Bend_Energy-OPLS-2005>
202.445587158203

> <r_mmod_Torsional_Energy-OPLS-2005>
260.365020751953

> <r_mmod_Improper_Torsional_Energy-OPLS-2005>
6.08367395401001

> <r_mmod_Van_der_Waal_Energy-OPLS-2005>
153.062545776367

> <r_mmod_Electrostatic_Energy-OPLS-2005>
-837.290893554688

> <r_mmod_Solvation_Energy-OPLS-2005>
-236.214279174805

> <b_mmod_Minimization_Converged-OPLS-2005>
0

> <r_mmod_RMS_Derivative-OPLS-2005>
11.7672185897827

$$$$
98
                    3D
 Structure written by MMmdl.
161170  0  0  1  0            999 V2000
  -30.7888  -14.3515   20.6816 C   0  0  0  0  0  0
  -30.4100  -12.2812   19.3994 C   0  0  0  0  0  0
  -29.4819  -12.5188   18.1950 C   0  0  0  0  0  0
  -28.0078  -12.3698   18.6129 C   0  0  0  0  0  0
  -27.6617  -13.1997   19.8759 C   0  0  2  0  0  0
  -28.6994  -12.9618   20.9948 C   0  0  0  0  0  0
  -25.2590  -13.8144   20.5678 C   0  0  0  0  0  0
  -24.1835  -13.0429   20.9170 C   0  0  0  0  0  0
  -24.6382  -11.6894   20.8730 C   0  0  0  0  0  0
  -23.9050  -10.4282   21.0398 C   0  0  0  0  0  0
  -24.3608   -9.4202   21.9179 C   0  0  0  0  0  0
  -23.6285   -8.2238   22.0750 C   0  0  0  0  0  0
  -22.4268   -8.0278   21.3540 C   0  0  0  0  0  0
  -21.9900   -9.0250   20.4645 C   0  0  0  0  0  0
  -22.7222  -10.2131   20.3050 C   0  0  0  0  0  0
  -21.6854   -6.0733   22.5278 C   0  0  0  0  0  0
  -21.4015   -6.5638   23.8210 C   0  0  0  0  0  0
  -21.3657   -5.6792   24.9173 C   0  0  0  0  0  0
  -21.6041   -4.3055   24.7224 C   0  0  0  0  0  0
  -21.8822   -3.8144   23.4346 C   0  0  0  0  0  0
  -21.9191   -4.6960   22.3402 C   0  0  0  0  0  0
  -22.7860  -13.5234   21.1838 C   0  0  0  0  0  0
  -22.1660   -4.2146   21.0980 F   0  0  0  0  0  0
  -21.5624   -3.4541   25.7737 F   0  0  0  0  0  0
  -30.0456  -13.2352   20.4567 N   0  0  0  0  0  0
  -26.3018  -12.9302   20.3367 N   0  0  0  0  0  0
  -25.9304  -11.6468   20.5757 N   0  0  0  0  0  0
  -22.0500  -12.8237   22.0403 N   0  0  0  0  0  0
  -25.4313  -15.1864   20.4097 N   0  0  0  0  0  0
  -31.8247  -14.6081   20.0573 O   0  0  0  0  0  0
  -21.6634   -6.8875   21.4238 O   0  0  0  0  0  0
  -22.3547  -14.5538   20.6682 O   0  0  0  0  0  0
  -24.6110  -31.8710   23.2129 C   0  0  0  0  0  0
  -25.9023  -32.4834   23.8408 C   0  0  1  0  0  0
  -27.2325  -27.4676   20.0870 C   0  0  0  0  0  0
  -25.5901  -33.8631   24.2347 N   0  0  0  0  0  0
  -23.3961  -30.4960   21.5534 C   0  0  2  0  0  0
  -24.8399  -28.9672   20.1143 C   0  0  0  0  0  0
  -22.7389  -29.4674   22.5010 C   0  0  0  0  0  0
  -18.0268  -28.1371   22.8491 C   0  0  0  0  0  0
  -24.1491  -36.7319   23.2638 C   0  0  0  0  0  0
  -25.9215  -30.8473   21.3598 C   0  0  0  0  0  0
  -25.9985  -29.4853   20.7052 C   0  0  0  0  0  0
  -27.1976  -28.7435   20.6858 C   0  0  0  0  0  0
  -26.0550  -26.9571   19.4913 C   0  0  0  0  0  0
  -24.8612  -27.7005   19.5059 C   0  0  0  0  0  0
  -23.6008  -29.8297   20.1668 C   0  0  0  0  0  0
  -25.4109  -36.3118   24.0340 C   0  0  1  0  0  0
  -20.5853  -28.3652   23.1329 C   0  0  2  0  0  0
  -20.6759  -26.9394   22.5419 C   0  0  0  0  0  0
  -19.5743  -26.6383   21.5208 C   0  0  0  0  0  0
  -18.1918  -26.7920   22.1614 C   0  0  0  0  0  0
  -19.1515  -28.8828   23.2907 C   0  0  0  0  0  0
  -18.9445  -30.1437   23.8917 C   0  0  0  0  0  0
  -17.6450  -30.6579   24.0564 C   0  0  0  0  0  0
  -25.9033  -34.9482   23.5137 C   0  0  0  0  0  0
  -16.5340  -29.9083   23.6323 C   0  0  0  0  0  0
  -16.7258  -28.6496   23.0345 C   0  0  0  0  0  0
  -26.4470  -31.6599   25.0719 C   0  0  0  0  0  0
  -25.3752  -31.3688   26.1480 C   0  0  0  0  0  0
  -27.0289  -30.3048   24.6059 C   0  0  0  0  0  0
  -27.6057  -32.4306   25.7471 C   0  0  0  0  0  0
  -27.5583  -37.1813   24.8465 C   0  0  0  0  0  0
  -21.4122  -29.3027   22.3744 N   0  0  0  0  0  0
  -26.4300  -37.3796   23.9405 N   0  0  0  0  0  0
  -24.6611  -31.0847   22.1010 N   0  0  0  0  0  0
  -23.4177  -28.8215   23.3036 O   0  0  0  0  0  0
  -28.4188  -26.7707   20.1019 O   0  0  0  0  0  0
  -26.5585  -34.8924   22.4692 O   0  0  0  0  0  0
  -23.5317  -32.1450   23.7554 O   0  0  0  0  0  0
  -29.6338  -20.4215   19.9424 C   0  0  0  0  0  0
  -29.8043  -19.1489   20.5156 C   0  0  0  0  0  0
  -28.9589  -20.0601   18.7245 C   0  0  0  0  0  0
  -30.4057  -18.8359   21.7429 C   0  0  0  0  0  0
  -29.4033  -16.8130   20.0341 C   0  0  0  0  0  0
  -30.0853  -16.5678   21.2739 C   0  0  0  0  0  0
  -30.6655  -14.8818   23.0156 C   0  0  0  0  0  0
  -28.4581  -20.9478   17.6105 C   0  0  0  0  0  0
  -28.9008  -22.4199   17.7009 C   0  0  0  0  0  0
  -28.1944  -23.2218   18.8076 C   0  0  0  0  0  0
  -28.5886  -24.7053   18.8153 C   0  0  0  0  0  0
  -28.3346  -25.3512   20.1840 C   0  0  0  0  0  0
  -28.7716  -18.7285   18.5921 N   0  0  0  0  0  0
  -30.5309  -17.5471   22.1140 N   0  0  0  0  0  0
  -29.3097  -18.1632   19.7099 N   0  0  0  0  0  0
  -30.3270  -15.2017   21.6232 N   0  0  0  0  0  0
  -31.4548  -12.3680   19.0950 H   0  0  0  0  0  0
  -30.2979  -11.2618   19.7719 H   0  0  0  0  0  0
  -29.7157  -11.8146   17.3954 H   0  0  0  0  0  0
  -29.6521  -13.5155   17.7855 H   0  0  0  0  0  0
  -27.8225  -11.3115   18.8032 H   0  0  0  0  0  0
  -27.3518  -12.6488   17.7874 H   0  0  0  0  0  0
  -27.7097  -14.2487   19.5895 H   0  0  0  0  0  0
  -28.6540  -11.9275   21.3392 H   0  0  0  0  0  0
  -28.4472  -13.5674   21.8654 H   0  0  0  0  0  0
  -25.2758   -9.5680   22.4746 H   0  0  0  0  0  0
  -23.9994   -7.4633   22.7473 H   0  0  0  0  0  0
  -21.0826   -8.8768   19.8958 H   0  0  0  0  0  0
  -22.3678  -10.9667   19.6157 H   0  0  0  0  0  0
  -21.2012   -7.6147   23.9712 H   0  0  0  0  0  0
  -21.1474   -6.0523   25.9076 H   0  0  0  0  0  0
  -22.0602   -2.7606   23.2848 H   0  0  0  0  0  0
  -22.4113  -11.9899   22.4799 H   0  0  0  0  0  0
  -21.1119  -13.1270   22.2610 H   0  0  0  0  0  0
  -24.6643  -15.8416   20.5161 H   0  0  0  0  0  0
  -26.2852  -15.6280   20.0948 H   0  0  0  0  0  0
  -26.7091  -32.5562   23.1173 H   0  0  0  0  0  0
  -25.0079  -33.9800   25.0511 H   0  0  0  0  0  0
  -22.6828  -31.3115   21.4176 H   0  0  0  0  0  0
  -23.3744  -35.9661   23.3320 H   0  0  0  0  0  0
  -24.3590  -36.8913   22.2049 H   0  0  0  0  0  0
  -23.7252  -37.6534   23.6638 H   0  0  0  0  0  0
  -26.0301  -31.6161   20.5935 H   0  0  0  0  0  0
  -26.8108  -30.8992   21.9758 H   0  0  0  0  0  0
  -28.0939  -29.1413   21.1412 H   0  0  0  0  0  0
  -26.0455  -25.9912   19.0077 H   0  0  0  0  0  0
  -23.9701  -27.2956   19.0462 H   0  0  0  0  0  0
  -23.7050  -30.6045   19.4063 H   0  0  0  0  0  0
  -22.7252  -29.2473   19.8739 H   0  0  0  0  0  0
  -25.1281  -36.1992   25.0832 H   0  0  0  0  0  0
  -20.9946  -28.3214   24.1450 H   0  0  0  0  0  0
  -20.5663  -26.2257   23.3599 H   0  0  0  0  0  0
  -21.6634  -26.7448   22.1214 H   0  0  0  0  0  0
  -19.6908  -25.6300   21.1223 H   0  0  0  0  0  0
  -19.6684  -27.3205   20.6747 H   0  0  0  0  0  0
  -17.4193  -26.6677   21.4009 H   0  0  0  0  0  0
  -18.0312  -26.0054   22.9002 H   0  0  0  0  0  0
  -19.7924  -30.7241   24.2296 H   0  0  0  0  0  0
  -17.5008  -31.6263   24.5161 H   0  0  0  0  0  0
  -15.5340  -30.2989   23.7641 H   0  0  0  0  0  0
  -15.8656  -28.0823   22.7050 H   0  0  0  0  0  0
  -24.5925  -30.7032   25.7825 H   0  0  0  0  0  0
  -24.8942  -32.2837   26.4949 H   0  0  0  0  0  0
  -25.8126  -30.8849   27.0221 H   0  0  0  0  0  0
  -26.2811  -29.6807   24.1148 H   0  0  0  0  0  0
  -27.4116  -29.7278   25.4488 H   0  0  0  0  0  0
  -27.8623  -30.4374   23.9154 H   0  0  0  0  0  0
  -27.2687  -33.3589   26.2090 H   0  0  0  0  0  0
  -28.3839  -32.6889   25.0278 H   0  0  0  0  0  0
  -28.0755  -31.8405   26.5349 H   0  0  0  0  0  0
  -28.2612  -38.0099   24.7502 H   0  0  0  0  0  0
  -28.1065  -36.2630   24.6300 H   0  0  0  0  0  0
  -27.2305  -37.1486   25.8871 H   0  0  0  0  0  0
  -20.9277  -29.8745   21.6969 H   0  0  0  0  0  0
  -26.0194  -38.2879   24.1391 H   0  0  0  0  0  0
  -29.9690  -21.3431   20.3955 H   0  0  0  0  0  0
  -30.7895  -19.6088   22.3933 H   0  0  0  0  0  0
  -29.0258  -16.0762   19.3423 H   0  0  0  0  0  0
  -31.6858  -15.1974   23.2414 H   0  0  0  0  0  0
  -30.5923  -13.8125   23.2223 H   0  0  0  0  0  0
  -29.9916  -15.3909   23.7059 H   0  0  0  0  0  0
  -27.3699  -20.8990   17.5602 H   0  0  0  0  0  0
  -28.8102  -20.5478   16.6588 H   0  0  0  0  0  0
  -28.6839  -22.8969   16.7446 H   0  0  0  0  0  0
  -29.9836  -22.4703   17.8225 H   0  0  0  0  0  0
  -28.4215  -22.7924   19.7809 H   0  0  0  0  0  0
  -27.1122  -23.1384   18.6971 H   0  0  0  0  0  0
  -28.0368  -25.2270   18.0332 H   0  0  0  0  0  0
  -29.6449  -24.8220   18.5704 H   0  0  0  0  0  0
  -29.0996  -25.0127   20.8838 H   0  0  0  0  0  0
  -27.3888  -25.0184   20.6162 H   0  0  0  0  0  0
  1 25  1  0  0  0
  1 30  2  0  0  0
  1 86  1  0  0  0
  2  3  1  0  0  0
  2 25  1  0  0  0
  2 87  1  0  0  0
  2 88  1  0  0  0
  3  4  1  0  0  0
  3 89  1  0  0  0
  3 90  1  0  0  0
  4  5  1  0  0  0
  4 91  1  0  0  0
  4 92  1  0  0  0
  5  6  1  0  0  0
  5 26  1  0  0  0
  5 93  1  0  0  0
  6 25  1  0  0  0
  6 94  1  0  0  0
  6 95  1  0  0  0
  7  8  2  0  0  0
  7 26  1  0  0  0
  7 29  1  0  0  0
  8  9  1  0  0  0
  8 22  1  0  0  0
  9 10  1  0  0  0
  9 27  2  0  0  0
 10 11  2  0  0  0
 10 15  1  0  0  0
 11 12  1  0  0  0
 11 96  1  0  0  0
 12 13  2  0  0  0
 12 97  1  0  0  0
 13 14  1  0  0  0
 13 31  1  0  0  0
 14 15  2  0  0  0
 14 98  1  0  0  0
 15 99  1  0  0  0
 16 17  2  0  0  0
 16 21  1  0  0  0
 16 31  1  0  0  0
 17 18  1  0  0  0
 17100  1  0  0  0
 18 19  2  0  0  0
 18101  1  0  0  0
 19 20  1  0  0  0
 19 24  1  0  0  0
 20 21  2  0  0  0
 20102  1  0  0  0
 21 23  1  0  0  0
 22 28  1  0  0  0
 22 32  2  0  0  0
 26 27  1  0  0  0
 28103  1  0  0  0
 28104  1  0  0  0
 29105  1  0  0  0
 29106  1  0  0  0
 33 34  1  0  0  0
 33 66  1  0  0  0
 33 70  2  0  0  0
 34 36  1  0  0  0
 34 59  1  0  0  0
 34107  1  0  0  0
 35 44  2  0  0  0
 35 45  1  0  0  0
 35 68  1  0  0  0
 36 56  1  0  0  0
 36108  1  0  0  0
 37 39  1  0  0  0
 37 47  1  0  0  0
 37 66  1  0  0  0
 37109  1  0  0  0
 38 43  2  0  0  0
 38 46  1  0  0  0
 38 47  1  0  0  0
 39 64  1  0  0  0
 39 67  2  0  0  0
 40 52  1  0  0  0
 40 53  2  0  0  0
 40 58  1  0  0  0
 41110  1  0  0  0
 41111  1  0  0  0
 41112  1  0  0  0
 41 48  1  0  0  0
 42 43  1  0  0  0
 42 66  1  0  0  0
 42113  1  0  0  0
 42114  1  0  0  0
 43 44  1  0  0  0
 44115  1  0  0  0
 45 46  2  0  0  0
 45116  1  0  0  0
 46117  1  0  0  0
 47118  1  0  0  0
 47119  1  0  0  0
 48 56  1  0  0  0
 48 65  1  0  0  0
 48120  1  0  0  0
 49 50  1  0  0  0
 49 53  1  0  0  0
 49 64  1  0  0  0
 49121  1  0  0  0
 50 51  1  0  0  0
 50122  1  0  0  0
 50123  1  0  0  0
 51 52  1  0  0  0
 51124  1  0  0  0
 51125  1  0  0  0
 52126  1  0  0  0
 52127  1  0  0  0
 53 54  1  0  0  0
 54 55  2  0  0  0
 54128  1  0  0  0
 55 57  1  0  0  0
 55129  1  0  0  0
 56 69  2  0  0  0
 57 58  2  0  0  0
 57130  1  0  0  0
 58131  1  0  0  0
 59 60  1  0  0  0
 59 61  1  0  0  0
 59 62  1  0  0  0
 60132  1  0  0  0
 60133  1  0  0  0
 60134  1  0  0  0
 61135  1  0  0  0
 61136  1  0  0  0
 61137  1  0  0  0
 62138  1  0  0  0
 62139  1  0  0  0
 62140  1  0  0  0
 63 65  1  0  0  0
 63141  1  0  0  0
 63142  1  0  0  0
 63143  1  0  0  0
 64144  1  0  0  0
 65145  1  0  0  0
 68 82  1  0  0  0
 71 72  2  0  0  0
 71 73  1  0  0  0
 71146  1  0  0  0
 72 74  1  0  0  0
 72 85  1  0  0  0
 73 78  1  0  0  0
 73 83  2  0  0  0
 74 84  2  0  0  0
 74147  1  0  0  0
 75 76  2  0  0  0
 75 85  1  0  0  0
 75148  1  0  0  0
 76 84  1  0  0  0
 76 86  1  0  0  0
 77 86  1  0  0  0
 77149  1  0  0  0
 77150  1  0  0  0
 77151  1  0  0  0
 78 79  1  0  0  0
 78152  1  0  0  0
 78153  1  0  0  0
 79 80  1  0  0  0
 79154  1  0  0  0
 79155  1  0  0  0
 80 81  1  0  0  0
 80156  1  0  0  0
 80157  1  0  0  0
 81 82  1  0  0  0
 81158  1  0  0  0
 81159  1  0  0  0
 82160  1  0  0  0
 82161  1  0  0  0
 83 85  1  0  0  0
M  ISO  4   1 100  68 101  82 101  86 100
M  END
> <chiral flag>
0

> <version>
0

> <s_m_source_file>
/data/baiqing/PycharmProjects/Reinvent-master-3.2/result/LINK_invent/BTK/process_docking_weight1_custom_sum_contain_oxygen_bond_distance_aromatic_linkinvent_7_9_3/rearranged_h_0036.sdf

> <i_m_source_file_index>
97

> <r_mmod_Potential_Energy-OPLS-2005>
142.212448120117

> <r_mmod_Stretch_Energy-OPLS-2005>
40.8489761352539

> <r_mmod_Bend_Energy-OPLS-2005>
150.744277954102

> <r_mmod_Torsional_Energy-OPLS-2005>
278.531433105469

> <r_mmod_Improper_Torsional_Energy-OPLS-2005>
3.42798209190369

> <r_mmod_Van_der_Waal_Energy-OPLS-2005>
161.056350708008

> <r_mmod_Electrostatic_Energy-OPLS-2005>
-294.859802246094

> <r_mmod_Solvation_Energy-OPLS-2005>
-205.612335205078

> <b_mmod_Minimization_Converged-OPLS-2005>
0

> <r_mmod_RMS_Derivative-OPLS-2005>
0.791811764240265

$$$$
99
                    3D
 Structure written by MMmdl.
169177  0  0  1  0            999 V2000
  -30.7455  -14.3824   20.6044 C   0  0  0  0  0  0
  -30.3945  -12.2540   19.4094 C   0  0  0  0  0  0
  -29.4837  -12.5243   18.1970 C   0  0  0  0  0  0
  -28.0021  -12.3994   18.5999 C   0  0  0  0  0  0
  -27.6596  -13.2139   19.8799 C   0  0  2  0  0  0
  -28.7034  -12.9723   20.9962 C   0  0  0  0  0  0
  -25.2555  -13.8221   20.5667 C   0  0  0  0  0  0
  -24.1813  -13.0456   20.9150 C   0  0  0  0  0  0
  -24.6385  -11.6942   20.8729 C   0  0  0  0  0  0
  -23.9065  -10.4330   21.0365 C   0  0  0  0  0  0
  -24.3637   -9.4269   21.9138 C   0  0  0  0  0  0
  -23.6336   -8.2293   22.0753 C   0  0  0  0  0  0
  -22.4325   -8.0307   21.3526 C   0  0  0  0  0  0
  -21.9913   -9.0262   20.4622 C   0  0  0  0  0  0
  -22.7234  -10.2151   20.3013 C   0  0  0  0  0  0
  -21.6908   -6.0759   22.5280 C   0  0  0  0  0  0
  -21.4055   -6.5672   23.8211 C   0  0  0  0  0  0
  -21.3645   -5.6825   24.9154 C   0  0  0  0  0  0
  -21.6054   -4.3096   24.7232 C   0  0  0  0  0  0
  -21.8834   -3.8174   23.4360 C   0  0  0  0  0  0
  -21.9228   -4.6979   22.3406 C   0  0  0  0  0  0
  -22.7853  -13.5237   21.1861 C   0  0  0  0  0  0
  -22.1693   -4.2164   21.0978 F   0  0  0  0  0  0
  -21.5582   -3.4578   25.7737 F   0  0  0  0  0  0
  -30.0408  -13.2328   20.4443 N   0  0  0  0  0  0
  -26.3014  -12.9368   20.3420 N   0  0  0  0  0  0
  -25.9317  -11.6541   20.5811 N   0  0  0  0  0  0
  -22.0523  -12.8117   22.0376 N   0  0  0  0  0  0
  -25.4271  -15.1909   20.4002 N   0  0  0  0  0  0
  -31.8560  -14.5458   20.0910 O   0  0  0  0  0  0
  -21.6679   -6.8901   21.4254 O   0  0  0  0  0  0
  -22.3509  -14.5552   20.6794 O   0  0  0  0  0  0
  -24.6087  -31.8754   23.2187 C   0  0  0  0  0  0
  -25.8975  -32.4911   23.8495 C   0  0  1  0  0  0
  -27.2241  -27.4820   20.1033 C   0  0  0  0  0  0
  -25.5884  -33.8723   24.2431 N   0  0  0  0  0  0
  -23.3966  -30.5020   21.5592 C   0  0  2  0  0  0
  -24.8426  -28.9781   20.1159 C   0  0  0  0  0  0
  -22.7408  -29.4693   22.5044 C   0  0  0  0  0  0
  -18.0266  -28.1392   22.8412 C   0  0  0  0  0  0
  -24.1499  -36.7326   23.2625 C   0  0  0  0  0  0
  -25.9202  -30.8736   21.3423 C   0  0  0  0  0  0
  -26.0048  -29.5118   20.6865 C   0  0  0  0  0  0
  -27.2090  -28.7816   20.6499 C   0  0  0  0  0  0
  -26.0572  -26.9637   19.5112 C   0  0  0  0  0  0
  -24.8644  -27.7073   19.5177 C   0  0  0  0  0  0
  -23.5975  -29.8333   20.1743 C   0  0  0  0  0  0
  -25.4107  -36.3174   24.0358 C   0  0  1  0  0  0
  -20.5842  -28.3664   23.1270 C   0  0  2  0  0  0
  -20.6771  -26.9463   22.5274 C   0  0  0  0  0  0
  -19.5722  -26.6425   21.5126 C   0  0  0  0  0  0
  -18.1934  -26.7933   22.1583 C   0  0  0  0  0  0
  -19.1504  -28.8844   23.2821 C   0  0  0  0  0  0
  -18.9452  -30.1444   23.8833 C   0  0  0  0  0  0
  -17.6468  -30.6567   24.0553 C   0  0  0  0  0  0
  -25.9036  -34.9536   23.5168 C   0  0  0  0  0  0
  -16.5355  -29.9062   23.6344 C   0  0  0  0  0  0
  -16.7259  -28.6501   23.0294 C   0  0  0  0  0  0
  -26.4501  -31.6664   25.0761 C   0  0  0  0  0  0
  -25.3807  -31.3587   26.1504 C   0  0  0  0  0  0
  -27.0285  -30.3200   24.5947 C   0  0  0  0  0  0
  -27.6207  -32.4261   25.7443 C   0  0  0  0  0  0
  -27.5585  -37.1810   24.8491 C   0  0  0  0  0  0
  -21.4136  -29.3090   22.3782 N   0  0  0  0  0  0
  -26.4303  -37.3840   23.9445 N   0  0  0  0  0  0
  -24.6627  -31.0958   22.1000 N   0  0  0  0  0  0
  -23.4222  -28.8154   23.2975 O   0  0  0  0  0  0
  -28.3632  -26.7255   20.0863 O   0  0  0  0  0  0
  -26.5578  -34.8944   22.4717 O   0  0  0  0  0  0
  -23.5283  -32.1455   23.7628 O   0  0  0  0  0  0
  -29.5288  -22.7643   19.2381 C   0  0  0  0  0  0
  -30.0770  -22.3995   21.7223 C   0  0  0  0  0  0
  -29.5564  -24.2838   19.4974 C   0  0  0  0  0  0
  -30.0423  -23.9119   21.9001 C   0  0  0  0  0  0
  -30.3318  -21.9303   20.2723 C   0  0  1  0  0  0
  -29.0447  -24.5719   20.9253 C   0  0  1  0  0  0
  -27.5752  -27.3564   23.3048 C   0  0  0  0  0  0
  -30.1055  -15.5630   21.3559 C   0  0  0  0  0  0
  -29.9320  -20.4473   20.1304 C   0  0  0  0  0  0
  -27.8454  -26.0551   22.5425 C   0  0  0  0  0  0
  -30.8695  -16.9059   21.2213 C   0  0  0  0  0  0
  -30.6362  -19.4650   21.0918 C   0  0  0  0  0  0
  -29.9155  -18.1077   21.1771 C   0  0  0  0  0  0
  -28.7919  -26.0619   21.2922 C   0  0  2  0  0  0
  -31.4458  -12.3042   19.1209 H   0  0  0  0  0  0
  -30.2339  -11.2411   19.7862 H   0  0  0  0  0  0
  -29.7058  -11.8272   17.3895 H   0  0  0  0  0  0
  -29.6806  -13.5238   17.8094 H   0  0  0  0  0  0
  -27.7873  -11.3435   18.7659 H   0  0  0  0  0  0
  -27.3611  -12.7109   17.7719 H   0  0  0  0  0  0
  -27.7066  -14.2687   19.6122 H   0  0  0  0  0  0
  -28.6480  -11.9427   21.3527 H   0  0  0  0  0  0
  -28.4796  -13.5860   21.8670 H   0  0  0  0  0  0
  -25.2831   -9.5761   22.4623 H   0  0  0  0  0  0
  -24.0099   -7.4698   22.7483 H   0  0  0  0  0  0
  -21.0847   -8.8772   19.8900 H   0  0  0  0  0  0
  -22.3740  -10.9645   19.6076 H   0  0  0  0  0  0
  -21.2084   -7.6185   23.9732 H   0  0  0  0  0  0
  -21.1407   -6.0526   25.9050 H   0  0  0  0  0  0
  -22.0606   -2.7632   23.2857 H   0  0  0  0  0  0
  -22.4288  -11.9813   22.4704 H   0  0  0  0  0  0
  -21.1095  -13.0985   22.2582 H   0  0  0  0  0  0
  -24.6695  -15.8601   20.4930 H   0  0  0  0  0  0
  -26.2972  -15.6190   20.1051 H   0  0  0  0  0  0
  -26.7053  -32.5656   23.1283 H   0  0  0  0  0  0
  -25.0129  -34.0051   25.0630 H   0  0  0  0  0  0
  -22.6754  -31.3120   21.4229 H   0  0  0  0  0  0
  -23.3820  -35.9606   23.3286 H   0  0  0  0  0  0
  -24.3589  -36.8927   22.2039 H   0  0  0  0  0  0
  -23.7207  -37.6497   23.6639 H   0  0  0  0  0  0
  -25.9943  -31.6386   20.5677 H   0  0  0  0  0  0
  -26.8287  -30.9551   21.9311 H   0  0  0  0  0  0
  -28.1132  -29.1934   21.0704 H   0  0  0  0  0  0
  -26.0736  -25.9888   19.0467 H   0  0  0  0  0  0
  -23.9708  -27.2991   19.0685 H   0  0  0  0  0  0
  -23.6932  -30.6106   19.4157 H   0  0  0  0  0  0
  -22.7216  -29.2450   19.8871 H   0  0  0  0  0  0
  -25.1254  -36.2097   25.0850 H   0  0  0  0  0  0
  -20.9890  -28.3184   24.1402 H   0  0  0  0  0  0
  -20.5747  -26.2302   23.3419 H   0  0  0  0  0  0
  -21.6599  -26.7575   22.0988 H   0  0  0  0  0  0
  -19.6926  -25.6353   21.1128 H   0  0  0  0  0  0
  -19.6622  -27.3215   20.6660 H   0  0  0  0  0  0
  -17.4149  -26.6531   21.4078 H   0  0  0  0  0  0
  -18.0444  -26.0156   22.9065 H   0  0  0  0  0  0
  -19.7957  -30.7225   24.2172 H   0  0  0  0  0  0
  -17.5060  -31.6240   24.5160 H   0  0  0  0  0  0
  -15.5351  -30.2916   23.7778 H   0  0  0  0  0  0
  -15.8656  -28.0826   22.7032 H   0  0  0  0  0  0
  -24.6188  -30.6693   25.7847 H   0  0  0  0  0  0
  -24.8716  -32.2592   26.4907 H   0  0  0  0  0  0
  -25.8236  -30.8880   27.0285 H   0  0  0  0  0  0
  -26.2598  -29.7021   24.1306 H   0  0  0  0  0  0
  -27.4427  -29.7420   25.4220 H   0  0  0  0  0  0
  -27.8346  -30.4602   23.8741 H   0  0  0  0  0  0
  -27.3050  -33.3660   26.1960 H   0  0  0  0  0  0
  -28.4024  -32.6585   25.0202 H   0  0  0  0  0  0
  -28.0838  -31.8338   26.5340 H   0  0  0  0  0  0
  -28.2598  -38.0112   24.7574 H   0  0  0  0  0  0
  -28.1077  -36.2649   24.6281 H   0  0  0  0  0  0
  -27.2298  -37.1372   25.8885 H   0  0  0  0  0  0
  -20.9311  -29.8878   21.7042 H   0  0  0  0  0  0
  -26.0212  -38.2926   24.1431 H   0  0  0  0  0  0
  -29.8873  -22.5624   18.2264 H   0  0  0  0  0  0
  -28.4876  -22.4375   19.2484 H   0  0  0  0  0  0
  -29.1259  -21.9940   22.0656 H   0  0  0  0  0  0
  -30.8452  -22.0123   22.3948 H   0  0  0  0  0  0
  -28.9268  -24.7667   18.7488 H   0  0  0  0  0  0
  -30.5620  -24.6794   19.3472 H   0  0  0  0  0  0
  -31.0355  -24.3434   21.7592 H   0  0  0  0  0  0
  -29.7935  -24.0818   22.9441 H   0  0  0  0  0  0
  -31.3948  -22.0579   20.0534 H   0  0  0  0  0  0
  -28.0797  -24.0625   20.9961 H   0  0  0  0  0  0
  -28.3891  -28.0761   23.2113 H   0  0  0  0  0  0
  -27.4369  -27.1456   24.3656 H   0  0  0  0  0  0
  -26.6448  -27.8176   22.9756 H   0  0  0  0  0  0
  -29.1068  -15.6912   20.9408 H   0  0  0  0  0  0
  -29.9766  -15.3090   22.4085 H   0  0  0  0  0  0
  -30.1006  -20.1183   19.1046 H   0  0  0  0  0  0
  -28.8550  -20.3783   20.2925 H   0  0  0  0  0  0
  -26.9007  -25.5602   22.3110 H   0  0  0  0  0  0
  -28.3064  -25.4295   23.3012 H   0  0  0  0  0  0
  -31.4645  -16.9472   20.3090 H   0  0  0  0  0  0
  -31.5762  -17.0130   22.0485 H   0  0  0  0  0  0
  -30.6759  -19.8510   22.1098 H   0  0  0  0  0  0
  -31.6750  -19.3529   20.7808 H   0  0  0  0  0  0
  -29.2774  -18.1016   22.0648 H   0  0  0  0  0  0
  -29.2447  -17.9841   20.3251 H   0  0  0  0  0  0
  -29.7458  -26.5150   21.5608 H   0  0  0  0  0  0
  1 25  1  0  0  0
  1 30  2  0  0  0
  1 78  1  0  0  0
  2  3  1  0  0  0
  2 25  1  0  0  0
  2 85  1  0  0  0
  2 86  1  0  0  0
  3  4  1  0  0  0
  3 87  1  0  0  0
  3 88  1  0  0  0
  4  5  1  0  0  0
  4 89  1  0  0  0
  4 90  1  0  0  0
  5  6  1  0  0  0
  5 26  1  0  0  0
  5 91  1  0  0  0
  6 25  1  0  0  0
  6 92  1  0  0  0
  6 93  1  0  0  0
  7  8  2  0  0  0
  7 26  1  0  0  0
  7 29  1  0  0  0
  8  9  1  0  0  0
  8 22  1  0  0  0
  9 10  1  0  0  0
  9 27  2  0  0  0
 10 11  2  0  0  0
 10 15  1  0  0  0
 11 12  1  0  0  0
 11 94  1  0  0  0
 12 13  2  0  0  0
 12 95  1  0  0  0
 13 14  1  0  0  0
 13 31  1  0  0  0
 14 15  2  0  0  0
 14 96  1  0  0  0
 15 97  1  0  0  0
 16 17  2  0  0  0
 16 21  1  0  0  0
 16 31  1  0  0  0
 17 18  1  0  0  0
 17 98  1  0  0  0
 18 19  2  0  0  0
 18 99  1  0  0  0
 19 20  1  0  0  0
 19 24  1  0  0  0
 20 21  2  0  0  0
 20100  1  0  0  0
 21 23  1  0  0  0
 22 28  1  0  0  0
 22 32  2  0  0  0
 26 27  1  0  0  0
 28101  1  0  0  0
 28102  1  0  0  0
 29103  1  0  0  0
 29104  1  0  0  0
 33 34  1  0  0  0
 33 66  1  0  0  0
 33 70  2  0  0  0
 34 36  1  0  0  0
 34 59  1  0  0  0
 34105  1  0  0  0
 35 44  2  0  0  0
 35 45  1  0  0  0
 35 68  1  0  0  0
 36 56  1  0  0  0
 36106  1  0  0  0
 37 39  1  0  0  0
 37 47  1  0  0  0
 37 66  1  0  0  0
 37107  1  0  0  0
 38 43  2  0  0  0
 38 46  1  0  0  0
 38 47  1  0  0  0
 39 64  1  0  0  0
 39 67  2  0  0  0
 40 52  1  0  0  0
 40 53  2  0  0  0
 40 58  1  0  0  0
 41108  1  0  0  0
 41109  1  0  0  0
 41110  1  0  0  0
 41 48  1  0  0  0
 42 43  1  0  0  0
 42 66  1  0  0  0
 42111  1  0  0  0
 42112  1  0  0  0
 43 44  1  0  0  0
 44113  1  0  0  0
 45 46  2  0  0  0
 45114  1  0  0  0
 46115  1  0  0  0
 47116  1  0  0  0
 47117  1  0  0  0
 48 56  1  0  0  0
 48 65  1  0  0  0
 48118  1  0  0  0
 49 50  1  0  0  0
 49 53  1  0  0  0
 49 64  1  0  0  0
 49119  1  0  0  0
 50 51  1  0  0  0
 50120  1  0  0  0
 50121  1  0  0  0
 51 52  1  0  0  0
 51122  1  0  0  0
 51123  1  0  0  0
 52124  1  0  0  0
 52125  1  0  0  0
 53 54  1  0  0  0
 54 55  2  0  0  0
 54126  1  0  0  0
 55 57  1  0  0  0
 55127  1  0  0  0
 56 69  2  0  0  0
 57 58  2  0  0  0
 57128  1  0  0  0
 58129  1  0  0  0
 59 60  1  0  0  0
 59 61  1  0  0  0
 59 62  1  0  0  0
 60130  1  0  0  0
 60131  1  0  0  0
 60132  1  0  0  0
 61133  1  0  0  0
 61134  1  0  0  0
 61135  1  0  0  0
 62136  1  0  0  0
 62137  1  0  0  0
 62138  1  0  0  0
 63 65  1  0  0  0
 63139  1  0  0  0
 63140  1  0  0  0
 63141  1  0  0  0
 64142  1  0  0  0
 65143  1  0  0  0
 68 84  1  0  0  0
 71 73  1  0  0  0
 71 75  1  0  0  0
 71144  1  0  0  0
 71145  1  0  0  0
 72 74  1  0  0  0
 72 75  1  0  0  0
 72146  1  0  0  0
 72147  1  0  0  0
 73148  1  0  0  0
 73149  1  0  0  0
 73 76  1  0  0  0
 74 76  1  0  0  0
 74150  1  0  0  0
 74151  1  0  0  0
 75 79  1  0  0  0
 75152  1  0  0  0
 76 84  1  0  0  0
 76153  1  0  0  0
 77 80  1  0  0  0
 77154  1  0  0  0
 77155  1  0  0  0
 77156  1  0  0  0
 78 81  1  0  0  0
 78157  1  0  0  0
 78158  1  0  0  0
 79 82  1  0  0  0
 79159  1  0  0  0
 79160  1  0  0  0
 80161  1  0  0  0
 80162  1  0  0  0
 80 84  1  0  0  0
 81 83  1  0  0  0
 81163  1  0  0  0
 81164  1  0  0  0
 82 83  1  0  0  0
 82165  1  0  0  0
 82166  1  0  0  0
 83167  1  0  0  0
 83168  1  0  0  0
 84169  1  0  0  0
M  ISO  4   1 100  68 101  78 100  84 101
M  END
> <chiral flag>
0

> <version>
0

> <s_m_source_file>
/data/baiqing/PycharmProjects/Reinvent-master-3.2/result/LINK_invent/BTK/process_docking_weight1_custom_sum_contain_oxygen_bond_distance_aromatic_linkinvent_7_9_3/rearranged_h_0036.sdf

> <i_m_source_file_index>
98

> <r_mmod_Potential_Energy-OPLS-2005>
91.387321472168

> <r_mmod_Stretch_Energy-OPLS-2005>
34.7766914367676

> <r_mmod_Bend_Energy-OPLS-2005>
122.697982788086

> <r_mmod_Torsional_Energy-OPLS-2005>
251.523162841797

> <r_mmod_Improper_Torsional_Energy-OPLS-2005>
2.41714191436768

> <r_mmod_Van_der_Waal_Energy-OPLS-2005>
150.793518066406

> <r_mmod_Electrostatic_Energy-OPLS-2005>
-308.668090820312

> <r_mmod_Solvation_Energy-OPLS-2005>
-172.121124267578

> <b_mmod_Minimization_Converged-OPLS-2005>
0

> <r_mmod_RMS_Derivative-OPLS-2005>
6.56936120986938

$$$$
