0
                    3D
 Structure written by MMmdl.
154163  0  0  1  0            999 V2000
  -30.5083  -14.9303   20.4429 C   0  0  0  0  0  0
  -30.4578  -12.5738   19.5000 C   0  0  0  0  0  0
  -29.5296  -12.5402   18.2608 C   0  0  0  0  0  0
  -28.0593  -12.3272   18.6723 C   0  0  0  0  0  0
  -27.6420  -13.2408   19.8538 C   0  0  2  0  0  0
  -28.6875  -13.2190   20.9920 C   0  0  0  0  0  0
  -25.2509  -13.8206   20.5716 C   0  0  0  0  0  0
  -24.1805  -13.0441   20.9217 C   0  0  0  0  0  0
  -24.6409  -11.6919   20.8748 C   0  0  0  0  0  0
  -23.9082  -10.4291   21.0400 C   0  0  0  0  0  0
  -24.3624   -9.4207   21.9183 C   0  0  0  0  0  0
  -23.6292   -8.2246   22.0756 C   0  0  0  0  0  0
  -22.4280   -8.0277   21.3543 C   0  0  0  0  0  0
  -21.9914   -9.0252   20.4651 C   0  0  0  0  0  0
  -22.7245  -10.2130   20.3055 C   0  0  0  0  0  0
  -21.6854   -6.0729   22.5276 C   0  0  0  0  0  0
  -21.4012   -6.5632   23.8206 C   0  0  0  0  0  0
  -21.3662   -5.6785   24.9167 C   0  0  0  0  0  0
  -21.6046   -4.3050   24.7225 C   0  0  0  0  0  0
  -21.8817   -3.8143   23.4347 C   0  0  0  0  0  0
  -21.9193   -4.6957   22.3401 C   0  0  0  0  0  0
  -22.7821  -13.5218   21.1863 C   0  0  0  0  0  0
  -22.1659   -4.2138   21.0981 F   0  0  0  0  0  0
  -21.5632   -3.4537   25.7742 F   0  0  0  0  0  0
  -29.9705  -13.6455   20.4120 N   0  0  0  0  0  0
  -26.2949  -12.9426   20.3302 N   0  0  0  0  0  0
  -25.9353  -11.6560   20.5772 N   0  0  0  0  0  0
  -22.0469  -12.8214   22.0423 N   0  0  0  0  0  0
  -25.4174  -15.1935   20.4126 N   0  0  0  0  0  0
  -31.6841  -15.0809   20.0932 O   0  0  0  0  0  0
  -21.6642   -6.8876   21.4241 O   0  0  0  0  0  0
  -22.3506  -14.5523   20.6707 O   0  0  0  0  0  0
  -24.6437  -31.8420   23.1866 C   0  0  0  0  0  0
  -25.9206  -32.4682   23.8264 C   0  0  1  0  0  0
  -27.2223  -27.1314   20.1538 C   0  0  0  0  0  0
  -25.5943  -33.8489   24.2170 N   0  0  0  0  0  0
  -23.4493  -30.4610   21.5311 C   0  0  2  0  0  0
  -24.9004  -28.8883   20.1084 C   0  0  0  0  0  0
  -22.7587  -29.4522   22.4842 C   0  0  0  0  0  0
  -18.0305  -28.1382   22.8464 C   0  0  0  0  0  0
  -24.1486  -36.7241   23.2653 C   0  0  0  0  0  0
  -26.0057  -30.7170   21.3858 C   0  0  0  0  0  0
  -26.0783  -29.3276   20.7264 C   0  0  0  0  0  0
  -27.2395  -28.4666   20.7290 C   0  0  0  0  0  0
  -26.0173  -26.7955   19.4964 C   0  0  0  0  0  0
  -24.8837  -27.6363   19.4766 C   0  0  0  0  0  0
  -23.6774  -29.7897   20.1508 C   0  0  0  0  0  0
  -25.4115  -36.3015   24.0322 C   0  0  1  0  0  0
  -20.5920  -28.3706   23.1220 C   0  0  2  0  0  0
  -20.6781  -26.9406   22.5391 C   0  0  0  0  0  0
  -19.5757  -26.6360   21.5205 C   0  0  0  0  0  0
  -18.1939  -26.7914   22.1618 C   0  0  0  0  0  0
  -19.1564  -28.8865   23.2832 C   0  0  0  0  0  0
  -18.9483  -30.1465   23.8855 C   0  0  0  0  0  0
  -17.6481  -30.6582   24.0556 C   0  0  0  0  0  0
  -25.9067  -34.9400   23.5053 C   0  0  0  0  0  0
  -16.5375  -29.9070   23.6343 C   0  0  0  0  0  0
  -16.7290  -28.6495   23.0349 C   0  0  0  0  0  0
  -26.4519  -31.6558   25.0717 C   0  0  0  0  0  0
  -25.3705  -31.3745   26.1421 C   0  0  0  0  0  0
  -27.0399  -30.2953   24.6313 C   0  0  0  0  0  0
  -27.6039  -32.4339   25.7496 C   0  0  0  0  0  0
  -27.5562  -37.1777   24.8473 C   0  0  0  0  0  0
  -21.4278  -29.3038   22.3605 N   0  0  0  0  0  0
  -26.4267  -37.3736   23.9426 N   0  0  0  0  0  0
  -24.7192  -31.0275   22.0896 N   0  0  0  0  0  0
  -23.4229  -28.8064   23.2989 O   0  0  0  0  0  0
  -28.2739  -26.1425   20.2344 O   0  0  0  0  0  0
  -26.5660  -34.8908   22.4637 O   0  0  0  0  0  0
  -23.5552  -32.1292   23.7078 O   0  0  0  0  0  0
  -28.4451  -18.1848   21.3083 C   0  0  0  0  0  0
  -30.3178  -18.5315   19.9500 C   0  0  0  0  0  0
  -28.1359  -19.5925   21.2133 C   0  0  0  0  0  0
  -29.5399  -17.5411   20.6557 C   0  0  0  0  0  0
  -28.9491  -20.4952   20.4654 C   0  0  0  0  0  0
  -25.6555  -19.3117   22.1119 C   0  0  0  0  0  0
  -25.6628  -20.4369   21.1048 C   0  0  0  0  0  0
  -26.9115  -20.1306   21.8982 C   0  0  0  0  0  0
  -27.9890  -24.6139   20.0720 C   0  0  0  0  0  0
  -28.9598  -23.2581   20.3845 C   0  0  0  0  0  0
  -30.0390  -19.9105   19.8515 N   0  0  0  0  0  0
  -29.6426  -16.0078   20.7478 N   0  0  0  0  0  0
  -28.4463  -21.8306   20.1173 O   0  0  0  0  0  0
  -31.4901  -12.7475   19.1920 H   0  0  0  0  0  0
  -30.4611  -11.6092   20.0094 H   0  0  0  0  0  0
  -29.8446  -11.7537   17.5738 H   0  0  0  0  0  0
  -29.6211  -13.4802   17.7145 H   0  0  0  0  0  0
  -27.9452  -11.2811   18.9595 H   0  0  0  0  0  0
  -27.3981  -12.4821   17.8189 H   0  0  0  0  0  0
  -27.6194  -14.2529   19.4495 H   0  0  0  0  0  0
  -28.7708  -12.2225   21.4273 H   0  0  0  0  0  0
  -28.3907  -13.8805   21.8074 H   0  0  0  0  0  0
  -25.2766   -9.5676   22.4760 H   0  0  0  0  0  0
  -23.9988   -7.4641   22.7486 H   0  0  0  0  0  0
  -21.0839   -8.8776   19.8966 H   0  0  0  0  0  0
  -22.3702  -10.9667   19.6163 H   0  0  0  0  0  0
  -21.2000   -7.6138   23.9708 H   0  0  0  0  0  0
  -21.1487   -6.0517   25.9067 H   0  0  0  0  0  0
  -22.0599   -2.7607   23.2855 H   0  0  0  0  0  0
  -22.4075  -11.9869   22.4805 H   0  0  0  0  0  0
  -21.1096  -13.1257   22.2654 H   0  0  0  0  0  0
  -24.6360  -15.8347   20.4974 H   0  0  0  0  0  0
  -26.2472  -15.6317   20.0351 H   0  0  0  0  0  0
  -26.7280  -32.5284   23.0997 H   0  0  0  0  0  0
  -25.0082  -33.9611   25.0312 H   0  0  0  0  0  0
  -22.7531  -31.2869   21.3736 H   0  0  0  0  0  0
  -23.3759  -35.9564   23.3279 H   0  0  0  0  0  0
  -24.3577  -36.8903   22.2078 H   0  0  0  0  0  0
  -23.7229  -37.6422   23.6708 H   0  0  0  0  0  0
  -26.1643  -31.4729   20.6155 H   0  0  0  0  0  0
  -26.8762  -30.7642   22.0293 H   0  0  0  0  0  0
  -28.1354  -28.7997   21.2345 H   0  0  0  0  0  0
  -25.9144  -25.8375   19.0097 H   0  0  0  0  0  0
  -23.9845  -27.2951   18.9820 H   0  0  0  0  0  0
  -23.8183  -30.5648   19.3964 H   0  0  0  0  0  0
  -22.7935  -29.2322   19.8353 H   0  0  0  0  0  0
  -25.1297  -36.1829   25.0809 H   0  0  0  0  0  0
  -21.0013  -28.3284   24.1342 H   0  0  0  0  0  0
  -20.5666  -26.2327   23.3615 H   0  0  0  0  0  0
  -21.6644  -26.7390   22.1197 H   0  0  0  0  0  0
  -19.6921  -25.6266   21.1251 H   0  0  0  0  0  0
  -19.6691  -27.3168   20.6734 H   0  0  0  0  0  0
  -17.4209  -26.6666   21.4022 H   0  0  0  0  0  0
  -18.0324  -26.0056   22.9009 H   0  0  0  0  0  0
  -19.7969  -30.7281   24.2199 H   0  0  0  0  0  0
  -17.5045  -31.6264   24.5156 H   0  0  0  0  0  0
  -15.5374  -30.2962   23.7695 H   0  0  0  0  0  0
  -15.8686  -28.0814   22.7067 H   0  0  0  0  0  0
  -24.5867  -30.7111   25.7730 H   0  0  0  0  0  0
  -24.8932  -32.2939   26.4827 H   0  0  0  0  0  0
  -25.7997  -30.8915   27.0210 H   0  0  0  0  0  0
  -26.3028  -29.6657   24.1319 H   0  0  0  0  0  0
  -27.4004  -29.7263   25.4894 H   0  0  0  0  0  0
  -27.8926  -30.4180   23.9634 H   0  0  0  0  0  0
  -27.2623  -33.3677   26.1972 H   0  0  0  0  0  0
  -28.3893  -32.6840   25.0349 H   0  0  0  0  0  0
  -28.0654  -31.8536   26.5497 H   0  0  0  0  0  0
  -28.2555  -38.0095   24.7509 H   0  0  0  0  0  0
  -28.1069  -36.2616   24.6279 H   0  0  0  0  0  0
  -27.2290  -37.1396   25.8881 H   0  0  0  0  0  0
  -20.9497  -29.8775   21.6798 H   0  0  0  0  0  0
  -26.0118  -38.2791   24.1442 H   0  0  0  0  0  0
  -27.7808  -17.5602   21.8874 H   0  0  0  0  0  0
  -31.1852  -18.2089   19.3941 H   0  0  0  0  0  0
  -25.6059  -18.2992   21.7165 H   0  0  0  0  0  0
  -25.0918  -19.4797   23.0282 H   0  0  0  0  0  0
  -25.1003  -21.3322   21.3635 H   0  0  0  0  0  0
  -25.6440  -20.1601   20.0522 H   0  0  0  0  0  0
  -27.1881  -20.8302   22.6848 H   0  0  0  0  0  0
  -27.0786  -24.4375   20.6452 H   0  0  0  0  0  0
  -27.6917  -24.4986   19.0299 H   0  0  0  0  0  0
  -29.2604  -23.2953   21.4316 H   0  0  0  0  0  0
  -29.8816  -23.3672   19.8130 H   0  0  0  0  0  0
  -28.7862  -15.6081   21.1032 H   0  0  0  0  0  0
  1 25  1  0  0  0
  1 30  2  0  0  0
  1 82  1  0  0  0
  2  3  1  0  0  0
  2 25  1  0  0  0
  2 84  1  0  0  0
  2 85  1  0  0  0
  3  4  1  0  0  0
  3 86  1  0  0  0
  3 87  1  0  0  0
  4  5  1  0  0  0
  4 88  1  0  0  0
  4 89  1  0  0  0
  5  6  1  0  0  0
  5 26  1  0  0  0
  5 90  1  0  0  0
  6 25  1  0  0  0
  6 91  1  0  0  0
  6 92  1  0  0  0
  7  8  2  0  0  0
  7 26  1  0  0  0
  7 29  1  0  0  0
  8  9  1  0  0  0
  8 22  1  0  0  0
  9 10  1  0  0  0
  9 27  2  0  0  0
 10 11  2  0  0  0
 10 15  1  0  0  0
 11 12  1  0  0  0
 11 93  1  0  0  0
 12 13  2  0  0  0
 12 94  1  0  0  0
 13 14  1  0  0  0
 13 31  1  0  0  0
 14 15  2  0  0  0
 14 95  1  0  0  0
 15 96  1  0  0  0
 16 17  2  0  0  0
 16 21  1  0  0  0
 16 31  1  0  0  0
 17 18  1  0  0  0
 17 97  1  0  0  0
 18 19  2  0  0  0
 18 98  1  0  0  0
 19 20  1  0  0  0
 19 24  1  0  0  0
 20 21  2  0  0  0
 20 99  1  0  0  0
 21 23  1  0  0  0
 22 28  1  0  0  0
 22 32  2  0  0  0
 26 27  1  0  0  0
 28100  1  0  0  0
 28101  1  0  0  0
 29102  1  0  0  0
 29103  1  0  0  0
 33 34  1  0  0  0
 33 66  1  0  0  0
 33 70  2  0  0  0
 34 36  1  0  0  0
 34 59  1  0  0  0
 34104  1  0  0  0
 35 44  2  0  0  0
 35 45  1  0  0  0
 35 68  1  0  0  0
 36 56  1  0  0  0
 36105  1  0  0  0
 37 39  1  0  0  0
 37 47  1  0  0  0
 37 66  1  0  0  0
 37106  1  0  0  0
 38 43  2  0  0  0
 38 46  1  0  0  0
 38 47  1  0  0  0
 39 64  1  0  0  0
 39 67  2  0  0  0
 40 52  1  0  0  0
 40 53  2  0  0  0
 40 58  1  0  0  0
 41107  1  0  0  0
 41108  1  0  0  0
 41109  1  0  0  0
 41 48  1  0  0  0
 42 43  1  0  0  0
 42 66  1  0  0  0
 42110  1  0  0  0
 42111  1  0  0  0
 43 44  1  0  0  0
 44112  1  0  0  0
 45 46  2  0  0  0
 45113  1  0  0  0
 46114  1  0  0  0
 47115  1  0  0  0
 47116  1  0  0  0
 48 56  1  0  0  0
 48 65  1  0  0  0
 48117  1  0  0  0
 49 50  1  0  0  0
 49 53  1  0  0  0
 49 64  1  0  0  0
 49118  1  0  0  0
 50 51  1  0  0  0
 50119  1  0  0  0
 50120  1  0  0  0
 51 52  1  0  0  0
 51121  1  0  0  0
 51122  1  0  0  0
 52123  1  0  0  0
 52124  1  0  0  0
 53 54  1  0  0  0
 54 55  2  0  0  0
 54125  1  0  0  0
 55 57  1  0  0  0
 55126  1  0  0  0
 56 69  2  0  0  0
 57 58  2  0  0  0
 57127  1  0  0  0
 58128  1  0  0  0
 59 60  1  0  0  0
 59 61  1  0  0  0
 59 62  1  0  0  0
 60129  1  0  0  0
 60130  1  0  0  0
 60131  1  0  0  0
 61132  1  0  0  0
 61133  1  0  0  0
 61134  1  0  0  0
 62135  1  0  0  0
 62136  1  0  0  0
 62137  1  0  0  0
 63 65  1  0  0  0
 63138  1  0  0  0
 63139  1  0  0  0
 63140  1  0  0  0
 64141  1  0  0  0
 65142  1  0  0  0
 68 79  1  0  0  0
 71 73  2  0  0  0
 71 74  1  0  0  0
 71143  1  0  0  0
 72 74  2  0  0  0
 72 81  1  0  0  0
 72144  1  0  0  0
 73 75  1  0  0  0
 73 78  1  0  0  0
 74 82  1  0  0  0
 75 81  2  0  0  0
 75 83  1  0  0  0
 76 77  1  0  0  0
 76 78  1  0  0  0
 76145  1  0  0  0
 76146  1  0  0  0
 77 78  1  0  0  0
 77147  1  0  0  0
 77148  1  0  0  0
 78149  1  0  0  0
 79 80  1  0  0  0
 79150  1  0  0  0
 79151  1  0  0  0
 80 83  1  0  0  0
 80152  1  0  0  0
 80153  1  0  0  0
 82154  1  0  0  0
M  ISO  4   1 100  68 101  79 101  82 100
M  END
> <chiral flag>
0

> <version>
0

> <s_m_source_file>
/data/baiqing/PycharmProjects/Reinvent-master-3.2/result/LINK_invent/BTK/process_docking_weight1_custom_sum_contain_oxygen_bond_distance_aromatic_linkinvent_7_9_3/rearranged_h_0151.sdf

> <i_m_source_file_index>
1

> <r_mmod_Potential_Energy-OPLS-2005>
350.608520507812

> <r_mmod_Stretch_Energy-OPLS-2005>
234.569107055664

> <r_mmod_Bend_Energy-OPLS-2005>
295.467681884766

> <r_mmod_Torsional_Energy-OPLS-2005>
267.817901611328

> <r_mmod_Improper_Torsional_Energy-OPLS-2005>
6.14456081390381

> <r_mmod_Van_der_Waal_Energy-OPLS-2005>
126.091217041016

> <r_mmod_Electrostatic_Energy-OPLS-2005>
-546.470886230469

> <r_mmod_Solvation_Energy-OPLS-2005>
-222.600601196289

> <b_mmod_Minimization_Converged-OPLS-2005>
0

> <r_mmod_RMS_Derivative-OPLS-2005>
1.52927780151367

$$$$
1
                    3D
 Structure written by MMmdl.
155164  0  0  1  0            999 V2000
  -30.5922  -14.7114   20.4845 C   0  0  0  0  0  0
  -30.4425  -12.4329   19.4647 C   0  0  0  0  0  0
  -29.5133  -12.5168   18.2321 C   0  0  0  0  0  0
  -28.0364  -12.3444   18.6418 C   0  0  0  0  0  0
  -27.6497  -13.2229   19.8611 C   0  0  2  0  0  0
  -28.6954  -13.1035   20.9925 C   0  0  0  0  0  0
  -25.2540  -13.8175   20.5690 C   0  0  0  0  0  0
  -24.1819  -13.0434   20.9202 C   0  0  0  0  0  0
  -24.6396  -11.6904   20.8743 C   0  0  0  0  0  0
  -23.9067  -10.4285   21.0401 C   0  0  0  0  0  0
  -24.3615   -9.4197   21.9175 C   0  0  0  0  0  0
  -23.6288   -8.2236   22.0747 C   0  0  0  0  0  0
  -22.4268   -8.0277   21.3547 C   0  0  0  0  0  0
  -21.9908   -9.0249   20.4645 C   0  0  0  0  0  0
  -22.7241  -10.2126   20.3050 C   0  0  0  0  0  0
  -21.6853   -6.0725   22.5277 C   0  0  0  0  0  0
  -21.4017   -6.5631   23.8210 C   0  0  0  0  0  0
  -21.3662   -5.6786   24.9174 C   0  0  0  0  0  0
  -21.6046   -4.3049   24.7227 C   0  0  0  0  0  0
  -21.8820   -3.8138   23.4350 C   0  0  0  0  0  0
  -21.9192   -4.6952   22.3404 C   0  0  0  0  0  0
  -22.7840  -13.5219   21.1865 C   0  0  0  0  0  0
  -22.1658   -4.2136   21.0983 F   0  0  0  0  0  0
  -21.5631   -3.4535   25.7743 F   0  0  0  0  0  0
  -30.0035  -13.4678   20.4264 N   0  0  0  0  0  0
  -26.2972  -12.9368   20.3310 N   0  0  0  0  0  0
  -25.9326  -11.6516   20.5751 N   0  0  0  0  0  0
  -22.0492  -12.8207   22.0422 N   0  0  0  0  0  0
  -25.4243  -15.1900   20.4093 N   0  0  0  0  0  0
  -31.7620  -14.8670   20.1207 O   0  0  0  0  0  0
  -21.6640   -6.8869   21.4239 O   0  0  0  0  0  0
  -22.3517  -14.5520   20.6708 O   0  0  0  0  0  0
  -24.6308  -31.8555   23.1993 C   0  0  0  0  0  0
  -25.9135  -32.4757   23.8329 C   0  0  1  0  0  0
  -27.2218  -27.2712   20.1232 C   0  0  0  0  0  0
  -25.5938  -33.8558   24.2256 N   0  0  0  0  0  0
  -23.4265  -30.4798   21.5420 C   0  0  2  0  0  0
  -24.8743  -28.9310   20.1092 C   0  0  0  0  0  0
  -22.7502  -29.4600   22.4903 C   0  0  0  0  0  0
  -18.0295  -28.1388   22.8492 C   0  0  0  0  0  0
  -24.1491  -36.7281   23.2640 C   0  0  0  0  0  0
  -25.9730  -30.7725   21.3774 C   0  0  0  0  0  0
  -26.0463  -29.3964   20.7183 C   0  0  0  0  0  0
  -27.2227  -28.5798   20.7136 C   0  0  0  0  0  0
  -26.0227  -26.8747   19.4849 C   0  0  0  0  0  0
  -24.8674  -27.6774   19.4822 C   0  0  0  0  0  0
  -23.6445  -29.8161   20.1571 C   0  0  0  0  0  0
  -25.4118  -36.3069   24.0325 C   0  0  1  0  0  0
  -20.5902  -28.3689   23.1278 C   0  0  2  0  0  0
  -20.6780  -26.9403   22.5411 C   0  0  0  0  0  0
  -19.5755  -26.6381   21.5215 C   0  0  0  0  0  0
  -18.1936  -26.7933   22.1624 C   0  0  0  0  0  0
  -19.1549  -28.8857   23.2885 C   0  0  0  0  0  0
  -18.9464  -30.1461   23.8896 C   0  0  0  0  0  0
  -17.6461  -30.6589   24.0560 C   0  0  0  0  0  0
  -25.9056  -34.9438   23.5090 C   0  0  0  0  0  0
  -16.5354  -29.9083   23.6335 C   0  0  0  0  0  0
  -16.7278  -28.6500   23.0356 C   0  0  0  0  0  0
  -26.4500  -31.6587   25.0718 C   0  0  0  0  0  0
  -25.3723  -31.3733   26.1437 C   0  0  0  0  0  0
  -27.0343  -30.3007   24.6198 C   0  0  0  0  0  0
  -27.6052  -32.4326   25.7494 C   0  0  0  0  0  0
  -27.5578  -37.1796   24.8468 C   0  0  0  0  0  0
  -21.4207  -29.3043   22.3665 N   0  0  0  0  0  0
  -26.4293  -37.3768   23.9408 N   0  0  0  0  0  0
  -24.6957  -31.0535   22.0957 N   0  0  0  0  0  0
  -23.4210  -28.8133   23.2988 O   0  0  0  0  0  0
  -28.3193  -26.3790   20.1867 O   0  0  0  0  0  0
  -26.5626  -34.8912   22.4656 O   0  0  0  0  0  0
  -23.5463  -32.1355   23.7305 O   0  0  0  0  0  0
  -28.6542  -19.4627   20.9047 C   0  0  0  0  0  0
  -28.6780  -18.0306   20.9803 C   0  0  0  0  0  0
  -30.9583  -18.0046   20.2756 C   0  0  0  0  0  0
  -29.7864  -20.2311   20.5198 C   0  0  0  0  0  0
  -30.9453  -19.4423   20.2005 C   0  0  0  0  0  0
  -29.8277  -17.2432   20.6770 C   0  0  0  0  0  0
  -29.8106  -22.8205   19.3186 C   0  0  0  0  0  0
  -29.8122  -21.8353   20.5482 C   0  0  1  0  0  0
  -29.1520  -23.7778   20.3880 C   0  0  1  0  0  0
  -32.2383  -20.1231   19.7803 C   0  0  0  0  0  0
  -28.0704  -24.9076   20.0050 C   0  0  0  0  0  0
  -29.7574  -15.7669   20.8009 N   0  0  0  0  0  0
  -28.6533  -22.5670   21.0740 O   0  0  0  0  0  0
  -31.4829  -12.5665   19.1639 H   0  0  0  0  0  0
  -30.3886  -11.4430   19.9213 H   0  0  0  0  0  0
  -29.7884  -11.7588   17.4979 H   0  0  0  0  0  0
  -29.6457  -13.4809   17.7386 H   0  0  0  0  0  0
  -27.8816  -11.2921   18.8822 H   0  0  0  0  0  0
  -27.3818  -12.5615   17.7970 H   0  0  0  0  0  0
  -27.6587  -14.2541   19.5072 H   0  0  0  0  0  0
  -28.7230  -12.0840   21.3810 H   0  0  0  0  0  0
  -28.4322  -13.7388   21.8399 H   0  0  0  0  0  0
  -25.2758   -9.5669   22.4750 H   0  0  0  0  0  0
  -23.9992   -7.4626   22.7466 H   0  0  0  0  0  0
  -21.0837   -8.8767   19.8953 H   0  0  0  0  0  0
  -22.3695  -10.9660   19.6154 H   0  0  0  0  0  0
  -21.2010   -7.6139   23.9708 H   0  0  0  0  0  0
  -21.1488   -6.0519   25.9076 H   0  0  0  0  0  0
  -22.0599   -2.7601   23.2858 H   0  0  0  0  0  0
  -22.4110  -11.9863   22.4802 H   0  0  0  0  0  0
  -21.1109  -13.1223   22.2641 H   0  0  0  0  0  0
  -24.6533  -15.8412   20.5105 H   0  0  0  0  0  0
  -26.2611  -15.6249   20.0433 H   0  0  0  0  0  0
  -26.7201  -32.5405   23.1070 H   0  0  0  0  0  0
  -25.0102  -33.9696   25.0415 H   0  0  0  0  0  0
  -22.7226  -31.3019   21.3976 H   0  0  0  0  0  0
  -23.3755  -35.9615   23.3311 H   0  0  0  0  0  0
  -24.3582  -36.8891   22.2053 H   0  0  0  0  0  0
  -23.7236  -37.6480   23.6661 H   0  0  0  0  0  0
  -26.1134  -31.5351   20.6098 H   0  0  0  0  0  0
  -26.8506  -30.8194   22.0107 H   0  0  0  0  0  0
  -28.1180  -28.9312   21.2073 H   0  0  0  0  0  0
  -25.9410  -25.9189   18.9909 H   0  0  0  0  0  0
  -23.9700  -27.3164   18.9983 H   0  0  0  0  0  0
  -23.7658  -30.5923   19.4006 H   0  0  0  0  0  0
  -22.7637  -29.2480   19.8533 H   0  0  0  0  0  0
  -25.1303  -36.1913   25.0819 H   0  0  0  0  0  0
  -21.0003  -28.3253   24.1396 H   0  0  0  0  0  0
  -20.5678  -26.2281   23.3605 H   0  0  0  0  0  0
  -21.6643  -26.7421   22.1198 H   0  0  0  0  0  0
  -19.6904  -25.6293   21.1240 H   0  0  0  0  0  0
  -19.6700  -27.3196   20.6750 H   0  0  0  0  0  0
  -17.4200  -26.6691   21.4030 H   0  0  0  0  0  0
  -18.0330  -26.0082   22.9024 H   0  0  0  0  0  0
  -19.7937  -30.7284   24.2261 H   0  0  0  0  0  0
  -17.5010  -31.6270   24.5156 H   0  0  0  0  0  0
  -15.5354  -30.2976   23.7665 H   0  0  0  0  0  0
  -15.8681  -28.0814   22.7075 H   0  0  0  0  0  0
  -24.5922  -30.7054   25.7764 H   0  0  0  0  0  0
  -24.8890  -32.2900   26.4829 H   0  0  0  0  0  0
  -25.8044  -30.8935   27.0227 H   0  0  0  0  0  0
  -26.2922  -29.6764   24.1208 H   0  0  0  0  0  0
  -27.4013  -29.7262   25.4713 H   0  0  0  0  0  0
  -27.8809  -30.4289   23.9450 H   0  0  0  0  0  0
  -27.2669  -33.3644   26.2038 H   0  0  0  0  0  0
  -28.3886  -32.6850   25.0335 H   0  0  0  0  0  0
  -28.0696  -31.8464   26.5436 H   0  0  0  0  0  0
  -28.2598  -38.0090   24.7514 H   0  0  0  0  0  0
  -28.1071  -36.2619   24.6308 H   0  0  0  0  0  0
  -27.2298  -37.1462   25.8872 H   0  0  0  0  0  0
  -20.9379  -29.8764   21.6881 H   0  0  0  0  0  0
  -26.0172  -38.2842   24.1410 H   0  0  0  0  0  0
  -27.7449  -19.9816   21.1754 H   0  0  0  0  0  0
  -27.7726  -17.5293   21.2939 H   0  0  0  0  0  0
  -31.8710  -17.4802   20.0297 H   0  0  0  0  0  0
  -30.3859  -23.7144   19.0764 H   0  0  0  0  0  0
  -30.8347  -22.4851   19.1658 H   0  0  0  0  0  0
  -30.6719  -22.0550   21.1911 H   0  0  0  0  0  0
  -29.9183  -24.2456   21.0163 H   0  0  0  0  0  0
  -32.1357  -20.5589   18.7864 H   0  0  0  0  0  0
  -33.0663  -19.4145   19.7399 H   0  0  0  0  0  0
  -32.5261  -20.9064   20.4814 H   0  0  0  0  0  0
  -27.1716  -24.6820   20.5807 H   0  0  0  0  0  0
  -27.7907  -24.7506   18.9630 H   0  0  0  0  0  0
  -28.8556  -15.4314   21.1017 H   0  0  0  0  0  0
  1 25  1  0  0  0
  1 30  2  0  0  0
  1 82  1  0  0  0
  2  3  1  0  0  0
  2 25  1  0  0  0
  2 84  1  0  0  0
  2 85  1  0  0  0
  3  4  1  0  0  0
  3 86  1  0  0  0
  3 87  1  0  0  0
  4  5  1  0  0  0
  4 88  1  0  0  0
  4 89  1  0  0  0
  5  6  1  0  0  0
  5 26  1  0  0  0
  5 90  1  0  0  0
  6 25  1  0  0  0
  6 91  1  0  0  0
  6 92  1  0  0  0
  7  8  2  0  0  0
  7 26  1  0  0  0
  7 29  1  0  0  0
  8  9  1  0  0  0
  8 22  1  0  0  0
  9 10  1  0  0  0
  9 27  2  0  0  0
 10 11  2  0  0  0
 10 15  1  0  0  0
 11 12  1  0  0  0
 11 93  1  0  0  0
 12 13  2  0  0  0
 12 94  1  0  0  0
 13 14  1  0  0  0
 13 31  1  0  0  0
 14 15  2  0  0  0
 14 95  1  0  0  0
 15 96  1  0  0  0
 16 17  2  0  0  0
 16 21  1  0  0  0
 16 31  1  0  0  0
 17 18  1  0  0  0
 17 97  1  0  0  0
 18 19  2  0  0  0
 18 98  1  0  0  0
 19 20  1  0  0  0
 19 24  1  0  0  0
 20 21  2  0  0  0
 20 99  1  0  0  0
 21 23  1  0  0  0
 22 28  1  0  0  0
 22 32  2  0  0  0
 26 27  1  0  0  0
 28100  1  0  0  0
 28101  1  0  0  0
 29102  1  0  0  0
 29103  1  0  0  0
 33 34  1  0  0  0
 33 66  1  0  0  0
 33 70  2  0  0  0
 34 36  1  0  0  0
 34 59  1  0  0  0
 34104  1  0  0  0
 35 44  2  0  0  0
 35 45  1  0  0  0
 35 68  1  0  0  0
 36 56  1  0  0  0
 36105  1  0  0  0
 37 39  1  0  0  0
 37 47  1  0  0  0
 37 66  1  0  0  0
 37106  1  0  0  0
 38 43  2  0  0  0
 38 46  1  0  0  0
 38 47  1  0  0  0
 39 64  1  0  0  0
 39 67  2  0  0  0
 40 52  1  0  0  0
 40 53  2  0  0  0
 40 58  1  0  0  0
 41107  1  0  0  0
 41108  1  0  0  0
 41109  1  0  0  0
 41 48  1  0  0  0
 42 43  1  0  0  0
 42 66  1  0  0  0
 42110  1  0  0  0
 42111  1  0  0  0
 43 44  1  0  0  0
 44112  1  0  0  0
 45 46  2  0  0  0
 45113  1  0  0  0
 46114  1  0  0  0
 47115  1  0  0  0
 47116  1  0  0  0
 48 56  1  0  0  0
 48 65  1  0  0  0
 48117  1  0  0  0
 49 50  1  0  0  0
 49 53  1  0  0  0
 49 64  1  0  0  0
 49118  1  0  0  0
 50 51  1  0  0  0
 50119  1  0  0  0
 50120  1  0  0  0
 51 52  1  0  0  0
 51121  1  0  0  0
 51122  1  0  0  0
 52123  1  0  0  0
 52124  1  0  0  0
 53 54  1  0  0  0
 54 55  2  0  0  0
 54125  1  0  0  0
 55 57  1  0  0  0
 55126  1  0  0  0
 56 69  2  0  0  0
 57 58  2  0  0  0
 57127  1  0  0  0
 58128  1  0  0  0
 59 60  1  0  0  0
 59 61  1  0  0  0
 59 62  1  0  0  0
 60129  1  0  0  0
 60130  1  0  0  0
 60131  1  0  0  0
 61132  1  0  0  0
 61133  1  0  0  0
 61134  1  0  0  0
 62135  1  0  0  0
 62136  1  0  0  0
 62137  1  0  0  0
 63 65  1  0  0  0
 63138  1  0  0  0
 63139  1  0  0  0
 63140  1  0  0  0
 64141  1  0  0  0
 65142  1  0  0  0
 68 81  1  0  0  0
 71 72  2  0  0  0
 71 74  1  0  0  0
 71143  1  0  0  0
 72 76  1  0  0  0
 72144  1  0  0  0
 73 75  1  0  0  0
 73 76  2  0  0  0
 73145  1  0  0  0
 74 75  2  0  0  0
 74 78  1  0  0  0
 75 80  1  0  0  0
 76 82  1  0  0  0
 77 78  1  0  0  0
 77 79  1  0  0  0
 77146  1  0  0  0
 77147  1  0  0  0
 78 83  1  0  0  0
 78148  1  0  0  0
 79 81  1  0  0  0
 79 83  1  0  0  0
 79149  1  0  0  0
 80150  1  0  0  0
 80151  1  0  0  0
 80152  1  0  0  0
 81153  1  0  0  0
 81154  1  0  0  0
 82155  1  0  0  0
M  ISO  4   1 100  68 101  81 101  82 100
M  END
> <chiral flag>
0

> <version>
0

> <s_m_source_file>
/data/baiqing/PycharmProjects/Reinvent-master-3.2/result/LINK_invent/BTK/process_docking_weight1_custom_sum_contain_oxygen_bond_distance_aromatic_linkinvent_7_9_3/rearranged_h_0151.sdf

> <i_m_source_file_index>
2

> <r_mmod_Potential_Energy-OPLS-2005>
323.238555908203

> <r_mmod_Stretch_Energy-OPLS-2005>
109.323577880859

> <r_mmod_Bend_Energy-OPLS-2005>
344.240478515625

> <r_mmod_Torsional_Energy-OPLS-2005>
225.570068359375

> <r_mmod_Improper_Torsional_Energy-OPLS-2005>
4.33710479736328

> <r_mmod_Van_der_Waal_Energy-OPLS-2005>
148.260498046875

> <r_mmod_Electrostatic_Energy-OPLS-2005>
-365.964385986328

> <r_mmod_Solvation_Energy-OPLS-2005>
-216.713272094727

> <b_mmod_Minimization_Converged-OPLS-2005>
0

> <r_mmod_RMS_Derivative-OPLS-2005>
1.02323198318481

$$$$
2
                    3D
 Structure written by MMmdl.
165174  0  0  1  0            999 V2000
  -30.7638  -14.4503   20.5165 C   0  0  0  0  0  0
  -30.3966  -12.2788   19.4411 C   0  0  0  0  0  0
  -29.4885  -12.4794   18.2128 C   0  0  0  0  0  0
  -28.0094  -12.3596   18.6232 C   0  0  0  0  0  0
  -27.6557  -13.2202   19.8673 C   0  0  2  0  0  0
  -28.7007  -13.0609   20.9966 C   0  0  0  0  0  0
  -25.2555  -13.8200   20.5693 C   0  0  0  0  0  0
  -24.1819  -13.0456   20.9184 C   0  0  0  0  0  0
  -24.6394  -11.6927   20.8745 C   0  0  0  0  0  0
  -23.9061  -10.4298   21.0403 C   0  0  0  0  0  0
  -24.3614   -9.4216   21.9181 C   0  0  0  0  0  0
  -23.6290   -8.2250   22.0755 C   0  0  0  0  0  0
  -22.4275   -8.0284   21.3540 C   0  0  0  0  0  0
  -21.9909   -9.0258   20.4640 C   0  0  0  0  0  0
  -22.7232  -10.2139   20.3053 C   0  0  0  0  0  0
  -21.6855   -6.0734   22.5277 C   0  0  0  0  0  0
  -21.4013   -6.5636   23.8213 C   0  0  0  0  0  0
  -21.3662   -5.6791   24.9174 C   0  0  0  0  0  0
  -21.6046   -4.3053   24.7227 C   0  0  0  0  0  0
  -21.8821   -3.8142   23.4349 C   0  0  0  0  0  0
  -21.9191   -4.6959   22.3399 C   0  0  0  0  0  0
  -22.7837  -13.5238   21.1848 C   0  0  0  0  0  0
  -22.1660   -4.2141   21.0979 F   0  0  0  0  0  0
  -21.5633   -3.4541   25.7741 F   0  0  0  0  0  0
  -30.0309  -13.3089   20.4275 N   0  0  0  0  0  0
  -26.3001  -12.9395   20.3362 N   0  0  0  0  0  0
  -25.9327  -11.6540   20.5781 N   0  0  0  0  0  0
  -22.0483  -12.8223   22.0407 N   0  0  0  0  0  0
  -25.4263  -15.1918   20.4096 N   0  0  0  0  0  0
  -31.9277  -14.5074   20.1184 O   0  0  0  0  0  0
  -21.6646   -6.8881   21.4237 O   0  0  0  0  0  0
  -22.3522  -14.5546   20.6699 O   0  0  0  0  0  0
  -24.6130  -31.8679   23.2121 C   0  0  0  0  0  0
  -25.9029  -32.4828   23.8400 C   0  0  1  0  0  0
  -27.2225  -27.4274   20.0885 C   0  0  0  0  0  0
  -25.5868  -33.8621   24.2332 N   0  0  0  0  0  0
  -23.4020  -30.4938   21.5526 C   0  0  2  0  0  0
  -24.8469  -28.9703   20.1056 C   0  0  0  0  0  0
  -22.7428  -29.4633   22.4976 C   0  0  0  0  0  0
  -18.0279  -28.1378   22.8484 C   0  0  0  0  0  0
  -24.1492  -36.7332   23.2640 C   0  0  0  0  0  0
  -25.9325  -30.8317   21.3682 C   0  0  0  0  0  0
  -26.0070  -29.4690   20.7089 C   0  0  0  0  0  0
  -27.1957  -28.7025   20.7008 C   0  0  0  0  0  0
  -26.0473  -26.9629   19.4503 C   0  0  0  0  0  0
  -24.8618  -27.7167   19.4743 C   0  0  0  0  0  0
  -23.6094  -29.8356   20.1635 C   0  0  0  0  0  0
  -25.4104  -36.3118   24.0339 C   0  0  1  0  0  0
  -20.5869  -28.3663   23.1326 C   0  0  2  0  0  0
  -20.6772  -26.9400   22.5426 C   0  0  0  0  0  0
  -19.5751  -26.6383   21.5229 C   0  0  0  0  0  0
  -18.1924  -26.7922   22.1630 C   0  0  0  0  0  0
  -19.1526  -28.8831   23.2911 C   0  0  0  0  0  0
  -18.9454  -30.1438   23.8928 C   0  0  0  0  0  0
  -17.6457  -30.6592   24.0561 C   0  0  0  0  0  0
  -25.9016  -34.9477   23.5140 C   0  0  0  0  0  0
  -16.5345  -29.9084   23.6324 C   0  0  0  0  0  0
  -16.7266  -28.6505   23.0335 C   0  0  0  0  0  0
  -26.4451  -31.6596   25.0719 C   0  0  0  0  0  0
  -25.3713  -31.3702   26.1469 C   0  0  0  0  0  0
  -27.0266  -30.3031   24.6076 C   0  0  0  0  0  0
  -27.6032  -32.4303   25.7469 C   0  0  0  0  0  0
  -27.5591  -37.1811   24.8458 C   0  0  0  0  0  0
  -21.4148  -29.3023   22.3734 N   0  0  0  0  0  0
  -26.4307  -37.3791   23.9396 N   0  0  0  0  0  0
  -24.6679  -31.0776   22.1032 N   0  0  0  0  0  0
  -23.4218  -28.8165   23.2997 O   0  0  0  0  0  0
  -28.3853  -26.6816   20.1531 O   0  0  0  0  0  0
  -26.5609  -34.8926   22.4719 O   0  0  0  0  0  0
  -23.5315  -32.1424   23.7511 O   0  0  0  0  0  0
  -30.4777  -20.1323   22.2627 C   0  0  0  0  0  0
  -29.6153  -20.8330   21.3993 C   0  0  0  0  0  0
  -30.7530  -18.7742   22.0056 C   0  0  0  0  0  0
  -28.9972  -20.1179   20.3513 C   0  0  0  0  0  0
  -30.1616  -18.1689   20.8740 C   0  0  0  0  0  0
  -29.3919  -22.3336   21.5902 C   0  0  0  0  0  0
  -27.9794  -20.7743   19.4283 C   0  0  0  0  0  0
  -27.9596  -22.3125   19.5061 C   0  0  0  0  0  0
  -28.0839  -22.8379   20.9505 C   0  0  2  0  0  0
  -31.7389  -18.0317   22.8926 C   0  0  0  0  0  0
  -26.3769  -24.6150   21.5027 C   0  0  0  0  0  0
  -30.6814  -16.8573   20.3000 C   0  0  0  0  0  0
  -28.3530  -25.2568   19.9239 C   0  0  0  0  0  0
  -27.8522  -24.3789   21.1215 C   0  0  2  0  0  0
  -29.2656  -18.8178   20.1004 N   0  0  0  0  0  0
  -30.1136  -15.5925   20.7962 N   0  0  0  0  0  0
  -31.4457  -12.3206   19.1437 H   0  0  0  0  0  0
  -30.2513  -11.2851   19.8664 H   0  0  0  0  0  0
  -29.7211  -11.7388   17.4465 H   0  0  0  0  0  0
  -29.6740  -13.4562   17.7639 H   0  0  0  0  0  0
  -27.8121  -11.3074   18.8309 H   0  0  0  0  0  0
  -27.3636  -12.6278   17.7858 H   0  0  0  0  0  0
  -27.6851  -14.2594   19.5395 H   0  0  0  0  0  0
  -28.6624  -12.0552   21.4168 H   0  0  0  0  0  0
  -28.4853  -13.7412   21.8218 H   0  0  0  0  0  0
  -25.2760   -9.5699   22.4752 H   0  0  0  0  0  0
  -24.0000   -7.4651   22.7484 H   0  0  0  0  0  0
  -21.0841   -8.8768   19.8950 H   0  0  0  0  0  0
  -22.3683  -10.9674   19.6164 H   0  0  0  0  0  0
  -21.2002   -7.6148   23.9709 H   0  0  0  0  0  0
  -21.1484   -6.0525   25.9077 H   0  0  0  0  0  0
  -22.0596   -2.7603   23.2852 H   0  0  0  0  0  0
  -22.4097  -11.9882   22.4783 H   0  0  0  0  0  0
  -21.1096  -13.1249   22.2611 H   0  0  0  0  0  0
  -24.6617  -15.8490   20.5208 H   0  0  0  0  0  0
  -26.2810  -15.6306   20.0900 H   0  0  0  0  0  0
  -26.7097  -32.5555   23.1157 H   0  0  0  0  0  0
  -24.9936  -33.9764   25.0420 H   0  0  0  0  0  0
  -22.6908  -31.3120   21.4190 H   0  0  0  0  0  0
  -23.3739  -35.9684   23.3304 H   0  0  0  0  0  0
  -24.3576  -36.8938   22.2052 H   0  0  0  0  0  0
  -23.7257  -37.6540   23.6652 H   0  0  0  0  0  0
  -26.0440  -31.6029   20.6059 H   0  0  0  0  0  0
  -26.8229  -30.8840   21.9836 H   0  0  0  0  0  0
  -28.0875  -29.0733   21.1867 H   0  0  0  0  0  0
  -26.0057  -26.0099   18.9479 H   0  0  0  0  0  0
  -23.9711  -27.3305   18.9987 H   0  0  0  0  0  0
  -23.7160  -30.6160   19.4091 H   0  0  0  0  0  0
  -22.7348  -29.2535   19.8664 H   0  0  0  0  0  0
  -25.1278  -36.1999   25.0830 H   0  0  0  0  0  0
  -20.9956  -28.3231   24.1449 H   0  0  0  0  0  0
  -20.5701  -26.2262   23.3613 H   0  0  0  0  0  0
  -21.6642  -26.7458   22.1201 H   0  0  0  0  0  0
  -19.6918  -25.6305   21.1232 H   0  0  0  0  0  0
  -19.6687  -27.3226   20.6791 H   0  0  0  0  0  0
  -17.4195  -26.6674   21.4033 H   0  0  0  0  0  0
  -18.0307  -26.0079   22.9038 H   0  0  0  0  0  0
  -19.7930  -30.7231   24.2323 H   0  0  0  0  0  0
  -17.5013  -31.6274   24.5157 H   0  0  0  0  0  0
  -15.5344  -30.2988   23.7641 H   0  0  0  0  0  0
  -15.8667  -28.0838   22.7017 H   0  0  0  0  0  0
  -24.5881  -30.7054   25.7800 H   0  0  0  0  0  0
  -24.8912  -32.2867   26.4915 H   0  0  0  0  0  0
  -25.8062  -30.8863   27.0226 H   0  0  0  0  0  0
  -26.2802  -29.6803   24.1126 H   0  0  0  0  0  0
  -27.4029  -29.7238   25.4514 H   0  0  0  0  0  0
  -27.8646  -30.4322   23.9221 H   0  0  0  0  0  0
  -27.2653  -33.3595   26.2070 H   0  0  0  0  0  0
  -28.3829  -32.6866   25.0287 H   0  0  0  0  0  0
  -28.0718  -31.8409   26.5362 H   0  0  0  0  0  0
  -28.2601  -38.0113   24.7502 H   0  0  0  0  0  0
  -28.1096  -36.2638   24.6297 H   0  0  0  0  0  0
  -27.2305  -37.1471   25.8861 H   0  0  0  0  0  0
  -20.9316  -29.8764   21.6963 H   0  0  0  0  0  0
  -26.0208  -38.2876   24.1385 H   0  0  0  0  0  0
  -30.9604  -20.6434   23.0842 H   0  0  0  0  0  0
  -30.2421  -22.8574   21.1506 H   0  0  0  0  0  0
  -29.3992  -22.5669   22.6560 H   0  0  0  0  0  0
  -26.9980  -20.3827   19.6979 H   0  0  0  0  0  0
  -28.1615  -20.4597   18.3992 H   0  0  0  0  0  0
  -27.0520  -22.6857   19.0326 H   0  0  0  0  0  0
  -28.7982  -22.6915   18.9214 H   0  0  0  0  0  0
  -27.3001  -22.3308   21.5161 H   0  0  0  0  0  0
  -31.7620  -18.4614   23.8952 H   0  0  0  0  0  0
  -32.7457  -18.0904   22.4796 H   0  0  0  0  0  0
  -31.4692  -16.9803   22.9938 H   0  0  0  0  0  0
  -26.0894  -24.0155   22.3663 H   0  0  0  0  0  0
  -25.7023  -24.3548   20.6866 H   0  0  0  0  0  0
  -26.1931  -25.6480   21.7894 H   0  0  0  0  0  0
  -31.7639  -16.8846   20.4394 H   0  0  0  0  0  0
  -30.5435  -16.8749   19.2174 H   0  0  0  0  0  0
  -27.8423  -25.0121   18.9945 H   0  0  0  0  0  0
  -29.3909  -24.9805   19.7333 H   0  0  0  0  0  0
  -28.4292  -24.6948   21.9919 H   0  0  0  0  0  0
  -29.1423  -15.5728   21.0629 H   0  0  0  0  0  0
  1 25  1  0  0  0
  1 30  2  0  0  0
  1 86  1  0  0  0
  2  3  1  0  0  0
  2 25  1  0  0  0
  2 87  1  0  0  0
  2 88  1  0  0  0
  3  4  1  0  0  0
  3 89  1  0  0  0
  3 90  1  0  0  0
  4  5  1  0  0  0
  4 91  1  0  0  0
  4 92  1  0  0  0
  5  6  1  0  0  0
  5 26  1  0  0  0
  5 93  1  0  0  0
  6 25  1  0  0  0
  6 94  1  0  0  0
  6 95  1  0  0  0
  7  8  2  0  0  0
  7 26  1  0  0  0
  7 29  1  0  0  0
  8  9  1  0  0  0
  8 22  1  0  0  0
  9 10  1  0  0  0
  9 27  2  0  0  0
 10 11  2  0  0  0
 10 15  1  0  0  0
 11 12  1  0  0  0
 11 96  1  0  0  0
 12 13  2  0  0  0
 12 97  1  0  0  0
 13 14  1  0  0  0
 13 31  1  0  0  0
 14 15  2  0  0  0
 14 98  1  0  0  0
 15 99  1  0  0  0
 16 17  2  0  0  0
 16 21  1  0  0  0
 16 31  1  0  0  0
 17 18  1  0  0  0
 17100  1  0  0  0
 18 19  2  0  0  0
 18101  1  0  0  0
 19 20  1  0  0  0
 19 24  1  0  0  0
 20 21  2  0  0  0
 20102  1  0  0  0
 21 23  1  0  0  0
 22 28  1  0  0  0
 22 32  2  0  0  0
 26 27  1  0  0  0
 28103  1  0  0  0
 28104  1  0  0  0
 29105  1  0  0  0
 29106  1  0  0  0
 33 34  1  0  0  0
 33 66  1  0  0  0
 33 70  2  0  0  0
 34 36  1  0  0  0
 34 59  1  0  0  0
 34107  1  0  0  0
 35 44  2  0  0  0
 35 45  1  0  0  0
 35 68  1  0  0  0
 36 56  1  0  0  0
 36108  1  0  0  0
 37 39  1  0  0  0
 37 47  1  0  0  0
 37 66  1  0  0  0
 37109  1  0  0  0
 38 43  2  0  0  0
 38 46  1  0  0  0
 38 47  1  0  0  0
 39 64  1  0  0  0
 39 67  2  0  0  0
 40 52  1  0  0  0
 40 53  2  0  0  0
 40 58  1  0  0  0
 41110  1  0  0  0
 41111  1  0  0  0
 41112  1  0  0  0
 41 48  1  0  0  0
 42 43  1  0  0  0
 42 66  1  0  0  0
 42113  1  0  0  0
 42114  1  0  0  0
 43 44  1  0  0  0
 44115  1  0  0  0
 45 46  2  0  0  0
 45116  1  0  0  0
 46117  1  0  0  0
 47118  1  0  0  0
 47119  1  0  0  0
 48 56  1  0  0  0
 48 65  1  0  0  0
 48120  1  0  0  0
 49 50  1  0  0  0
 49 53  1  0  0  0
 49 64  1  0  0  0
 49121  1  0  0  0
 50 51  1  0  0  0
 50122  1  0  0  0
 50123  1  0  0  0
 51 52  1  0  0  0
 51124  1  0  0  0
 51125  1  0  0  0
 52126  1  0  0  0
 52127  1  0  0  0
 53 54  1  0  0  0
 54 55  2  0  0  0
 54128  1  0  0  0
 55 57  1  0  0  0
 55129  1  0  0  0
 56 69  2  0  0  0
 57 58  2  0  0  0
 57130  1  0  0  0
 58131  1  0  0  0
 59 60  1  0  0  0
 59 61  1  0  0  0
 59 62  1  0  0  0
 60132  1  0  0  0
 60133  1  0  0  0
 60134  1  0  0  0
 61135  1  0  0  0
 61136  1  0  0  0
 61137  1  0  0  0
 62138  1  0  0  0
 62139  1  0  0  0
 62140  1  0  0  0
 63 65  1  0  0  0
 63141  1  0  0  0
 63142  1  0  0  0
 63143  1  0  0  0
 64144  1  0  0  0
 65145  1  0  0  0
 68 83  1  0  0  0
 71 72  2  0  0  0
 71 73  1  0  0  0
 71146  1  0  0  0
 72 74  1  0  0  0
 72 76  1  0  0  0
 73 75  2  0  0  0
 73 80  1  0  0  0
 74 77  1  0  0  0
 74 85  2  0  0  0
 75 82  1  0  0  0
 75 85  1  0  0  0
 76147  1  0  0  0
 76148  1  0  0  0
 76 79  1  0  0  0
 77 78  1  0  0  0
 77149  1  0  0  0
 77150  1  0  0  0
 78 79  1  0  0  0
 78151  1  0  0  0
 78152  1  0  0  0
 79 84  1  0  0  0
 79153  1  0  0  0
 80154  1  0  0  0
 80155  1  0  0  0
 80156  1  0  0  0
 81157  1  0  0  0
 81158  1  0  0  0
 81159  1  0  0  0
 81 84  1  0  0  0
 82 86  1  0  0  0
 82160  1  0  0  0
 82161  1  0  0  0
 83 84  1  0  0  0
 83162  1  0  0  0
 83163  1  0  0  0
 84164  1  0  0  0
 86165  1  0  0  0
M  ISO  4   1 100  68 101  83 101  86 100
M  END
> <chiral flag>
0

> <version>
0

> <s_m_source_file>
/data/baiqing/PycharmProjects/Reinvent-master-3.2/result/LINK_invent/BTK/process_docking_weight1_custom_sum_contain_oxygen_bond_distance_aromatic_linkinvent_7_9_3/rearranged_h_0151.sdf

> <i_m_source_file_index>
3

> <r_mmod_Potential_Energy-OPLS-2005>
-265.491088867188

> <r_mmod_Stretch_Energy-OPLS-2005>
38.4998550415039

> <r_mmod_Bend_Energy-OPLS-2005>
117.411720275879

> <r_mmod_Torsional_Energy-OPLS-2005>
230.866622924805

> <r_mmod_Improper_Torsional_Energy-OPLS-2005>
8.54916191101074

> <r_mmod_Van_der_Waal_Energy-OPLS-2005>
170.234222412109

> <r_mmod_Electrostatic_Energy-OPLS-2005>
-643.371032714844

> <r_mmod_Solvation_Energy-OPLS-2005>
-209.479385375977

> <b_mmod_Minimization_Converged-OPLS-2005>
0

> <r_mmod_RMS_Derivative-OPLS-2005>
1.82034111022949

$$$$
3
                    3D
 Structure written by MMmdl.
160169  0  0  1  0            999 V2000
  -30.7000  -14.4612   20.5906 C   0  0  0  0  0  0
  -30.4149  -12.3050   19.4285 C   0  0  0  0  0  0
  -29.4909  -12.5145   18.2096 C   0  0  0  0  0  0
  -28.0105  -12.3749   18.6140 C   0  0  0  0  0  0
  -27.6570  -13.2072   19.8738 C   0  0  2  0  0  0
  -28.6931  -12.9862   20.9989 C   0  0  0  0  0  0
  -25.2555  -13.8169   20.5675 C   0  0  0  0  0  0
  -24.1792  -13.0455   20.9157 C   0  0  0  0  0  0
  -24.6327  -11.6915   20.8696 C   0  0  0  0  0  0
  -23.8982  -10.4297   21.0377 C   0  0  0  0  0  0
  -24.3550   -9.4223   21.9160 C   0  0  0  0  0  0
  -23.6258   -8.2236   22.0748 C   0  0  0  0  0  0
  -22.4245   -8.0247   21.3531 C   0  0  0  0  0  0
  -21.9851   -9.0214   20.4637 C   0  0  0  0  0  0
  -22.7149  -10.2110   20.3040 C   0  0  0  0  0  0
  -21.6865   -6.0686   22.5262 C   0  0  0  0  0  0
  -21.4018   -6.5600   23.8181 C   0  0  0  0  0  0
  -21.3668   -5.6770   24.9149 C   0  0  0  0  0  0
  -21.6060   -4.3037   24.7220 C   0  0  0  0  0  0
  -21.8818   -3.8107   23.4347 C   0  0  0  0  0  0
  -21.9193   -4.6913   22.3395 C   0  0  0  0  0  0
  -22.7820  -13.5263   21.1808 C   0  0  0  0  0  0
  -22.1665   -4.2093   21.0979 F   0  0  0  0  0  0
  -21.5648   -3.4537   25.7741 F   0  0  0  0  0  0
  -30.0312  -13.2842   20.4585 N   0  0  0  0  0  0
  -26.2969  -12.9321   20.3338 N   0  0  0  0  0  0
  -25.9249  -11.6474   20.5720 N   0  0  0  0  0  0
  -22.0448  -12.8297   22.0379 N   0  0  0  0  0  0
  -25.4350  -15.1882   20.4098 N   0  0  0  0  0  0
  -31.8047  -14.6663   20.0790 O   0  0  0  0  0  0
  -21.6651   -6.8821   21.4213 O   0  0  0  0  0  0
  -22.3506  -14.5546   20.6622 O   0  0  0  0  0  0
  -24.6155  -31.8681   23.2065 C   0  0  0  0  0  0
  -25.9051  -32.4823   23.8359 C   0  0  1  0  0  0
  -27.2466  -27.4347   20.0864 C   0  0  0  0  0  0
  -25.5909  -33.8615   24.2301 N   0  0  0  0  0  0
  -23.4038  -30.4903   21.5467 C   0  0  2  0  0  0
  -24.8493  -28.9494   20.1158 C   0  0  0  0  0  0
  -22.7422  -29.4677   22.4986 C   0  0  0  0  0  0
  -18.0289  -28.1391   22.8490 C   0  0  0  0  0  0
  -24.1491  -36.7308   23.2633 C   0  0  0  0  0  0
  -25.9320  -30.8294   21.3627 C   0  0  0  0  0  0
  -26.0067  -29.4631   20.7101 C   0  0  0  0  0  0
  -27.2029  -28.7119   20.6935 C   0  0  0  0  0  0
  -26.0610  -26.9246   19.5052 C   0  0  0  0  0  0
  -24.8707  -27.6787   19.5139 C   0  0  0  0  0  0
  -23.6114  -29.8165   20.1634 C   0  0  0  0  0  0
  -25.4116  -36.3106   24.0334 C   0  0  1  0  0  0
  -20.5877  -28.3680   23.1314 C   0  0  2  0  0  0
  -20.6787  -26.9415   22.5415 C   0  0  0  0  0  0
  -19.5774  -26.6401   21.5200 C   0  0  0  0  0  0
  -18.1941  -26.7943   22.1597 C   0  0  0  0  0  0
  -19.1541  -28.8838   23.2900 C   0  0  0  0  0  0
  -18.9483  -30.1440   23.8921 C   0  0  0  0  0  0
  -17.6495  -30.6592   24.0572 C   0  0  0  0  0  0
  -25.9050  -34.9479   23.5120 C   0  0  0  0  0  0
  -16.5373  -29.9108   23.6339 C   0  0  0  0  0  0
  -16.7284  -28.6510   23.0366 C   0  0  0  0  0  0
  -26.4473  -31.6598   25.0696 C   0  0  0  0  0  0
  -25.3728  -31.3720   26.1425 C   0  0  0  0  0  0
  -27.0320  -30.3043   24.6104 C   0  0  0  0  0  0
  -27.6061  -32.4310   25.7461 C   0  0  0  0  0  0
  -27.5588  -37.1807   24.8463 C   0  0  0  0  0  0
  -21.4142  -29.3062   22.3738 N   0  0  0  0  0  0
  -26.4300  -37.3793   23.9408 N   0  0  0  0  0  0
  -24.6686  -31.0774   22.0967 N   0  0  0  0  0  0
  -23.4187  -28.8227   23.3045 O   0  0  0  0  0  0
  -28.4526  -26.7611   20.0972 O   0  0  0  0  0  0
  -26.5609  -34.8924   22.4679 O   0  0  0  0  0  0
  -23.5355  -32.1435   23.7463 O   0  0  0  0  0  0
  -28.3141  -21.5528   21.3067 C   0  0  0  0  0  0
  -30.1702  -19.8296   20.2707 C   0  0  0  0  0  0
  -28.2863  -20.2069   21.7465 C   0  0  0  0  0  0
  -29.2499  -19.3102   21.2092 C   0  0  0  0  0  0
  -29.2495  -21.9628   20.3411 C   0  0  0  0  0  0
  -26.7251  -20.6865   23.8315 C   0  0  0  0  0  0
  -25.8296  -20.3525   22.6590 C   0  0  0  0  0  0
  -27.2266  -19.7741   22.7349 C   0  0  0  0  0  0
  -29.2593  -17.8229   21.6195 C   0  0  0  0  0  0
  -30.2993  -16.8932   20.9445 C   0  0  0  0  0  0
  -28.6316  -25.5271   19.3895 C   0  0  0  0  0  0
  -28.4700  -24.2730   20.2808 C   0  0  0  0  0  0
  -30.1646  -21.1106   19.8410 N   0  0  0  0  0  0
  -30.0155  -15.4649   21.1672 N   0  0  0  0  0  0
  -29.3282  -23.2311   19.7956 O   0  0  0  0  0  0
  -31.4606  -12.4003   19.1278 H   0  0  0  0  0  0
  -30.3064  -11.2934   19.8205 H   0  0  0  0  0  0
  -29.7289  -11.7955   17.4226 H   0  0  0  0  0  0
  -29.6627  -13.5056   17.7853 H   0  0  0  0  0  0
  -27.8188  -11.3188   18.8017 H   0  0  0  0  0  0
  -27.3620  -12.6552   17.7814 H   0  0  0  0  0  0
  -27.6998  -14.2566   19.5784 H   0  0  0  0  0  0
  -28.6616  -11.9525   21.3457 H   0  0  0  0  0  0
  -28.4419  -13.5920   21.8690 H   0  0  0  0  0  0
  -25.2688   -9.5736   22.4730 H   0  0  0  0  0  0
  -23.9980   -7.4651   22.7498 H   0  0  0  0  0  0
  -21.0771   -8.8689   19.8972 H   0  0  0  0  0  0
  -22.3566  -10.9618   19.6148 H   0  0  0  0  0  0
  -21.2008   -7.6113   23.9650 H   0  0  0  0  0  0
  -21.1514   -6.0520   25.9049 H   0  0  0  0  0  0
  -22.0594   -2.7565   23.2867 H   0  0  0  0  0  0
  -22.4041  -12.0013   22.4862 H   0  0  0  0  0  0
  -21.1041  -13.1328   22.2500 H   0  0  0  0  0  0
  -24.6794  -15.8562   20.5118 H   0  0  0  0  0  0
  -26.2945  -15.6112   20.0818 H   0  0  0  0  0  0
  -26.7123  -32.5534   23.1121 H   0  0  0  0  0  0
  -25.0072  -33.9760   25.0460 H   0  0  0  0  0  0
  -22.6922  -31.3061   21.4061 H   0  0  0  0  0  0
  -23.3751  -35.9640   23.3314 H   0  0  0  0  0  0
  -24.3571  -36.8908   22.2041 H   0  0  0  0  0  0
  -23.7240  -37.6521   23.6636 H   0  0  0  0  0  0
  -26.0529  -31.5951   20.5952 H   0  0  0  0  0  0
  -26.8155  -30.8752   21.9882 H   0  0  0  0  0  0
  -28.0987  -29.1162   21.1439 H   0  0  0  0  0  0
  -26.0278  -25.9474   19.0455 H   0  0  0  0  0  0
  -23.9778  -27.2750   19.0555 H   0  0  0  0  0  0
  -23.7131  -30.5831   19.3943 H   0  0  0  0  0  0
  -22.7367  -29.2287   19.8797 H   0  0  0  0  0  0
  -25.1296  -36.1978   25.0829 H   0  0  0  0  0  0
  -20.9946  -28.3245   24.1443 H   0  0  0  0  0  0
  -20.5677  -26.2293   23.3605 H   0  0  0  0  0  0
  -21.6671  -26.7469   22.1226 H   0  0  0  0  0  0
  -19.6941  -25.6309   21.1242 H   0  0  0  0  0  0
  -19.6729  -27.3198   20.6722 H   0  0  0  0  0  0
  -17.4233  -26.6696   21.3983 H   0  0  0  0  0  0
  -18.0339  -26.0068   22.8980 H   0  0  0  0  0  0
  -19.7971  -30.7229   24.2315 H   0  0  0  0  0  0
  -17.5072  -31.6276   24.5188 H   0  0  0  0  0  0
  -15.5387  -30.3037   23.7660 H   0  0  0  0  0  0
  -15.8674  -28.0847   22.7095 H   0  0  0  0  0  0
  -24.5887  -30.7097   25.7740 H   0  0  0  0  0  0
  -24.8923  -32.2890   26.4859 H   0  0  0  0  0  0
  -25.8044  -30.8869   27.0196 H   0  0  0  0  0  0
  -26.2892  -29.6792   24.1141 H   0  0  0  0  0  0
  -27.4075  -29.7288   25.4584 H   0  0  0  0  0  0
  -27.8721  -30.4352   23.9274 H   0  0  0  0  0  0
  -27.2688  -33.3591   26.2085 H   0  0  0  0  0  0
  -28.3850  -32.6902   25.0273 H   0  0  0  0  0  0
  -28.0753  -31.8403   26.5345 H   0  0  0  0  0  0
  -28.2625  -38.0085   24.7522 H   0  0  0  0  0  0
  -28.1066  -36.2636   24.6293 H   0  0  0  0  0  0
  -27.2302  -37.1461   25.8857 H   0  0  0  0  0  0
  -20.9304  -29.8788   21.6957 H   0  0  0  0  0  0
  -26.0203  -38.2882   24.1380 H   0  0  0  0  0  0
  -27.5962  -22.2562   21.6997 H   0  0  0  0  0  0
  -30.9266  -19.2058   19.8188 H   0  0  0  0  0  0
  -26.4650  -20.2306   24.7849 H   0  0  0  0  0  0
  -27.1397  -21.6893   23.8965 H   0  0  0  0  0  0
  -25.6362  -21.1359   21.9283 H   0  0  0  0  0  0
  -24.9937  -19.6860   22.8514 H   0  0  0  0  0  0
  -27.3003  -18.7241   23.0063 H   0  0  0  0  0  0
  -28.2637  -17.4293   21.4122 H   0  0  0  0  0  0
  -29.3947  -17.7656   22.7012 H   0  0  0  0  0  0
  -31.3086  -17.1406   21.2829 H   0  0  0  0  0  0
  -30.2766  -17.0464   19.8644 H   0  0  0  0  0  0
  -28.0396  -25.4512   18.4777 H   0  0  0  0  0  0
  -29.6642  -25.5641   19.0392 H   0  0  0  0  0  0
  -27.4214  -23.9747   20.3029 H   0  0  0  0  0  0
  -28.7696  -24.5089   21.3023 H   0  0  0  0  0  0
  -29.1347  -15.2222   21.5955 H   0  0  0  0  0  0
  1 25  1  0  0  0
  1 30  2  0  0  0
  1 84  1  0  0  0
  2  3  1  0  0  0
  2 25  1  0  0  0
  2 86  1  0  0  0
  2 87  1  0  0  0
  3  4  1  0  0  0
  3 88  1  0  0  0
  3 89  1  0  0  0
  4  5  1  0  0  0
  4 90  1  0  0  0
  4 91  1  0  0  0
  5  6  1  0  0  0
  5 26  1  0  0  0
  5 92  1  0  0  0
  6 25  1  0  0  0
  6 93  1  0  0  0
  6 94  1  0  0  0
  7  8  2  0  0  0
  7 26  1  0  0  0
  7 29  1  0  0  0
  8  9  1  0  0  0
  8 22  1  0  0  0
  9 10  1  0  0  0
  9 27  2  0  0  0
 10 11  2  0  0  0
 10 15  1  0  0  0
 11 12  1  0  0  0
 11 95  1  0  0  0
 12 13  2  0  0  0
 12 96  1  0  0  0
 13 14  1  0  0  0
 13 31  1  0  0  0
 14 15  2  0  0  0
 14 97  1  0  0  0
 15 98  1  0  0  0
 16 17  2  0  0  0
 16 21  1  0  0  0
 16 31  1  0  0  0
 17 18  1  0  0  0
 17 99  1  0  0  0
 18 19  2  0  0  0
 18100  1  0  0  0
 19 20  1  0  0  0
 19 24  1  0  0  0
 20 21  2  0  0  0
 20101  1  0  0  0
 21 23  1  0  0  0
 22 28  1  0  0  0
 22 32  2  0  0  0
 26 27  1  0  0  0
 28102  1  0  0  0
 28103  1  0  0  0
 29104  1  0  0  0
 29105  1  0  0  0
 33 34  1  0  0  0
 33 66  1  0  0  0
 33 70  2  0  0  0
 34 36  1  0  0  0
 34 59  1  0  0  0
 34106  1  0  0  0
 35 44  2  0  0  0
 35 45  1  0  0  0
 35 68  1  0  0  0
 36 56  1  0  0  0
 36107  1  0  0  0
 37 39  1  0  0  0
 37 47  1  0  0  0
 37 66  1  0  0  0
 37108  1  0  0  0
 38 43  2  0  0  0
 38 46  1  0  0  0
 38 47  1  0  0  0
 39 64  1  0  0  0
 39 67  2  0  0  0
 40 52  1  0  0  0
 40 53  2  0  0  0
 40 58  1  0  0  0
 41109  1  0  0  0
 41110  1  0  0  0
 41111  1  0  0  0
 41 48  1  0  0  0
 42 43  1  0  0  0
 42 66  1  0  0  0
 42112  1  0  0  0
 42113  1  0  0  0
 43 44  1  0  0  0
 44114  1  0  0  0
 45 46  2  0  0  0
 45115  1  0  0  0
 46116  1  0  0  0
 47117  1  0  0  0
 47118  1  0  0  0
 48 56  1  0  0  0
 48 65  1  0  0  0
 48119  1  0  0  0
 49 50  1  0  0  0
 49 53  1  0  0  0
 49 64  1  0  0  0
 49120  1  0  0  0
 50 51  1  0  0  0
 50121  1  0  0  0
 50122  1  0  0  0
 51 52  1  0  0  0
 51123  1  0  0  0
 51124  1  0  0  0
 52125  1  0  0  0
 52126  1  0  0  0
 53 54  1  0  0  0
 54 55  2  0  0  0
 54127  1  0  0  0
 55 57  1  0  0  0
 55128  1  0  0  0
 56 69  2  0  0  0
 57 58  2  0  0  0
 57129  1  0  0  0
 58130  1  0  0  0
 59 60  1  0  0  0
 59 61  1  0  0  0
 59 62  1  0  0  0
 60131  1  0  0  0
 60132  1  0  0  0
 60133  1  0  0  0
 61134  1  0  0  0
 61135  1  0  0  0
 61136  1  0  0  0
 62137  1  0  0  0
 62138  1  0  0  0
 62139  1  0  0  0
 63 65  1  0  0  0
 63140  1  0  0  0
 63141  1  0  0  0
 63142  1  0  0  0
 64143  1  0  0  0
 65144  1  0  0  0
 68 81  1  0  0  0
 71 73  2  0  0  0
 71 75  1  0  0  0
 71145  1  0  0  0
 72 74  2  0  0  0
 72 83  1  0  0  0
 72146  1  0  0  0
 73 74  1  0  0  0
 73 78  1  0  0  0
 74 79  1  0  0  0
 75 83  2  0  0  0
 75 85  1  0  0  0
 76 77  1  0  0  0
 76 78  1  0  0  0
 76147  1  0  0  0
 76148  1  0  0  0
 77 78  1  0  0  0
 77149  1  0  0  0
 77150  1  0  0  0
 78151  1  0  0  0
 79 80  1  0  0  0
 79152  1  0  0  0
 79153  1  0  0  0
 80 84  1  0  0  0
 80154  1  0  0  0
 80155  1  0  0  0
 81 82  1  0  0  0
 81156  1  0  0  0
 81157  1  0  0  0
 82 85  1  0  0  0
 82158  1  0  0  0
 82159  1  0  0  0
 84160  1  0  0  0
M  ISO  4   1 100  68 101  81 101  84 100
M  END
> <chiral flag>
0

> <version>
0

> <s_m_source_file>
/data/baiqing/PycharmProjects/Reinvent-master-3.2/result/LINK_invent/BTK/process_docking_weight1_custom_sum_contain_oxygen_bond_distance_aromatic_linkinvent_7_9_3/rearranged_h_0151.sdf

> <i_m_source_file_index>
4

> <r_mmod_Potential_Energy-OPLS-2005>
-274.117614746094

> <r_mmod_Stretch_Energy-OPLS-2005>
38.2976264953613

> <r_mmod_Bend_Energy-OPLS-2005>
114.505432128906

> <r_mmod_Torsional_Energy-OPLS-2005>
220.943267822266

> <r_mmod_Improper_Torsional_Energy-OPLS-2005>
4.39785480499268

> <r_mmod_Van_der_Waal_Energy-OPLS-2005>
164.304489135742

> <r_mmod_Electrostatic_Energy-OPLS-2005>
-597.394348144531

> <r_mmod_Solvation_Energy-OPLS-2005>
-231.144943237305

> <b_mmod_Minimization_Converged-OPLS-2005>
0

> <r_mmod_RMS_Derivative-OPLS-2005>
3.00922727584839

$$$$
4
                    3D
 Structure written by MMmdl.
184194  0  0  1  0            999 V2000
  -30.6561  -14.6363   20.5004 C   0  0  0  0  0  0
  -30.4254  -12.3929   19.4588 C   0  0  0  0  0  0
  -29.5029  -12.5092   18.2246 C   0  0  0  0  0  0
  -28.0271  -12.3475   18.6387 C   0  0  0  0  0  0
  -27.6500  -13.2207   19.8655 C   0  0  2  0  0  0
  -28.6949  -13.0797   20.9925 C   0  0  0  0  0  0
  -25.2555  -13.8203   20.5707 C   0  0  0  0  0  0
  -24.1807  -13.0460   20.9196 C   0  0  0  0  0  0
  -24.6377  -11.6938   20.8746 C   0  0  0  0  0  0
  -23.9061  -10.4309   21.0424 C   0  0  0  0  0  0
  -24.3618   -9.4225   21.9200 C   0  0  0  0  0  0
  -23.6296   -8.2252   22.0764 C   0  0  0  0  0  0
  -22.4280   -8.0288   21.3556 C   0  0  0  0  0  0
  -21.9910   -9.0264   20.4664 C   0  0  0  0  0  0
  -22.7239  -10.2153   20.3073 C   0  0  0  0  0  0
  -21.6854   -6.0738   22.5285 C   0  0  0  0  0  0
  -21.4019   -6.5645   23.8216 C   0  0  0  0  0  0
  -21.3653   -5.6799   24.9175 C   0  0  0  0  0  0
  -21.6049   -4.3058   24.7237 C   0  0  0  0  0  0
  -21.8815   -3.8148   23.4354 C   0  0  0  0  0  0
  -21.9194   -4.6963   22.3409 C   0  0  0  0  0  0
  -22.7840  -13.5255   21.1862 C   0  0  0  0  0  0
  -22.1657   -4.2150   21.0982 F   0  0  0  0  0  0
  -21.5623   -3.4543   25.7750 F   0  0  0  0  0  0
  -30.0022  -13.4308   20.4214 N   0  0  0  0  0  0
  -26.2969  -12.9376   20.3347 N   0  0  0  0  0  0
  -25.9310  -11.6527   20.5768 N   0  0  0  0  0  0
  -22.0482  -12.8237   22.0419 N   0  0  0  0  0  0
  -25.4265  -15.1912   20.4111 N   0  0  0  0  0  0
  -31.8289  -14.7228   20.1222 O   0  0  0  0  0  0
  -21.6639   -6.8890   21.4254 O   0  0  0  0  0  0
  -22.3537  -14.5552   20.6708 O   0  0  0  0  0  0
  -24.6252  -31.8624   23.2084 C   0  0  0  0  0  0
  -25.9105  -32.4795   23.8405 C   0  0  1  0  0  0
  -27.2248  -27.3398   20.1193 C   0  0  0  0  0  0
  -25.5914  -33.8591   24.2339 N   0  0  0  0  0  0
  -23.4192  -30.4892   21.5482 C   0  0  2  0  0  0
  -24.8652  -28.9509   20.1145 C   0  0  0  0  0  0
  -22.7492  -29.4645   22.4947 C   0  0  0  0  0  0
  -18.0323  -28.1366   22.8487 C   0  0  0  0  0  0
  -24.1477  -36.7327   23.2638 C   0  0  0  0  0  0
  -25.9579  -30.8055   21.3696 C   0  0  0  0  0  0
  -26.0348  -29.4330   20.7149 C   0  0  0  0  0  0
  -27.2187  -28.6389   20.7105 C   0  0  0  0  0  0
  -26.0311  -26.9143   19.4882 C   0  0  0  0  0  0
  -24.8645  -27.6959   19.4936 C   0  0  0  0  0  0
  -23.6324  -29.8272   20.1631 C   0  0  0  0  0  0
  -25.4093  -36.3088   24.0327 C   0  0  1  0  0  0
  -20.5915  -28.3686   23.1316 C   0  0  2  0  0  0
  -20.6817  -26.9416   22.5447 C   0  0  0  0  0  0
  -19.5822  -26.6397   21.5201 C   0  0  0  0  0  0
  -18.1978  -26.7913   22.1598 C   0  0  0  0  0  0
  -19.1565  -28.8838   23.2903 C   0  0  0  0  0  0
  -18.9477  -30.1437   23.8908 C   0  0  0  0  0  0
  -17.6472  -30.6570   24.0524 C   0  0  0  0  0  0
  -25.9036  -34.9443   23.5117 C   0  0  0  0  0  0
  -16.5389  -29.9045   23.6287 C   0  0  0  0  0  0
  -16.7317  -28.6451   23.0331 C   0  0  0  0  0  0
  -26.4523  -31.6578   25.0741 C   0  0  0  0  0  0
  -25.3777  -31.3641   26.1453 C   0  0  0  0  0  0
  -27.0381  -30.3025   24.6124 C   0  0  0  0  0  0
  -27.6035  -32.4337   25.7553 C   0  0  0  0  0  0
  -27.5566  -37.1803   24.8457 C   0  0  0  0  0  0
  -21.4200  -29.3060   22.3711 N   0  0  0  0  0  0
  -26.4274  -37.3768   23.9408 N   0  0  0  0  0  0
  -24.6868  -31.0686   22.0985 N   0  0  0  0  0  0
  -23.4226  -28.8184   23.3027 O   0  0  0  0  0  0
  -28.3322  -26.4801   20.1794 O   0  0  0  0  0  0
  -26.5611  -34.8872   22.4689 O   0  0  0  0  0  0
  -23.5417  -32.1397   23.7426 O   0  0  0  0  0  0
  -28.9756  -21.2827   20.7913 C   0  0  0  0  0  0
  -27.7497  -22.7153   22.3143 C   0  0  0  0  0  0
  -28.3848  -20.1016   21.3742 C   0  0  0  0  0  0
  -27.3417  -20.2980   22.3364 C   0  0  0  0  0  0
  -28.6165  -22.6154   21.2153 C   0  0  0  0  0  0
  -27.1212  -21.5925   22.8765 C   0  0  0  0  0  0
  -29.7854  -18.3551   19.8569 C   0  0  0  0  0  0
  -29.3132  -17.7495   22.1367 C   0  0  0  0  0  0
  -25.0302  -19.2720   21.9377 C   0  0  0  0  0  0
  -29.9432  -16.8245   19.4918 C   0  0  0  0  0  0
  -29.2277  -16.2226   21.8284 C   0  0  0  0  0  0
  -24.5508  -18.9853   24.2726 C   0  0  0  0  0  0
  -28.7637  -18.6208   20.9751 C   0  0  0  0  0  0
  -26.3583  -19.1634   22.7139 C   0  0  2  0  0  0
  -23.9792  -19.6094   22.9957 C   0  0  2  0  0  0
  -25.6830  -23.3507   25.6660 C   0  0  0  0  0  0
  -30.1458  -23.7905   19.4857 C   0  0  0  0  0  0
  -26.7595  -22.4397   25.0735 C   0  0  0  0  0  0
  -28.0298  -25.0331   20.2379 C   0  0  0  0  0  0
  -29.1530  -23.9803   20.6422 C   0  0  1  0  0  0
  -29.8926  -15.7893   20.5803 N   0  0  0  0  0  0
  -26.0110  -19.1286   24.1475 N   0  3  0  0  0  0
  -22.6957  -19.1166   22.6390 O   0  0  0  0  0  0
  -26.2398  -21.7769   23.9174 O   0  0  0  0  0  0
  -31.4696  -12.4971   19.1609 H   0  0  0  0  0  0
  -30.3483  -11.4039   19.9123 H   0  0  0  0  0  0
  -29.7689  -11.7587   17.4789 H   0  0  0  0  0  0
  -29.6430  -13.4787   17.7443 H   0  0  0  0  0  0
  -27.8684  -11.2964   18.8776 H   0  0  0  0  0  0
  -27.3696  -12.5696   17.7973 H   0  0  0  0  0  0
  -27.6663  -14.2551   19.5232 H   0  0  0  0  0  0
  -28.7128  -12.0562   21.3701 H   0  0  0  0  0  0
  -28.4382  -13.7001   21.8494 H   0  0  0  0  0  0
  -25.2763   -9.5675   22.4786 H   0  0  0  0  0  0
  -24.0006   -7.4624   22.7463 H   0  0  0  0  0  0
  -21.0850   -8.8787   19.8949 H   0  0  0  0  0  0
  -22.3705  -10.9696   19.6172 H   0  0  0  0  0  0
  -21.2015   -7.6152   23.9713 H   0  0  0  0  0  0
  -21.1475   -6.0537   25.9079 H   0  0  0  0  0  0
  -22.0596   -2.7613   23.2859 H   0  0  0  0  0  0
  -22.4103  -11.9886   22.4777 H   0  0  0  0  0  0
  -21.1100  -13.1263   22.2634 H   0  0  0  0  0  0
  -24.6465  -15.8355   20.4694 H   0  0  0  0  0  0
  -26.2665  -15.6101   20.0372 H   0  0  0  0  0  0
  -26.7170  -32.5490   23.1168 H   0  0  0  0  0  0
  -25.0023  -33.9728   25.0461 H   0  0  0  0  0  0
  -22.7102  -31.3073   21.4035 H   0  0  0  0  0  0
  -23.3704  -35.9695   23.3281 H   0  0  0  0  0  0
  -24.3603  -36.8945   22.2064 H   0  0  0  0  0  0
  -23.7253  -37.6533   23.6661 H   0  0  0  0  0  0
  -26.0754  -31.5664   20.5969 H   0  0  0  0  0  0
  -26.8440  -30.8630   21.9904 H   0  0  0  0  0  0
  -28.1125  -29.0021   21.1996 H   0  0  0  0  0  0
  -25.9611  -25.9586   18.9927 H   0  0  0  0  0  0
  -23.9682  -27.3182   19.0215 H   0  0  0  0  0  0
  -23.7517  -30.6040   19.4082 H   0  0  0  0  0  0
  -22.7549  -29.2533   19.8598 H   0  0  0  0  0  0
  -25.1255  -36.1947   25.0818 H   0  0  0  0  0  0
  -21.0019  -28.3268   24.1432 H   0  0  0  0  0  0
  -20.5722  -26.2294   23.3643 H   0  0  0  0  0  0
  -21.6688  -26.7448   22.1252 H   0  0  0  0  0  0
  -19.7014  -25.6302   21.1274 H   0  0  0  0  0  0
  -19.6806  -27.3172   20.6708 H   0  0  0  0  0  0
  -17.4260  -26.6647   21.3995 H   0  0  0  0  0  0
  -18.0385  -26.0036   22.8975 H   0  0  0  0  0  0
  -19.7912  -30.7257   24.2329 H   0  0  0  0  0  0
  -17.5011  -31.6263   24.5077 H   0  0  0  0  0  0
  -15.5398  -30.2972   23.7536 H   0  0  0  0  0  0
  -15.8726  -28.0814   22.6972 H   0  0  0  0  0  0
  -24.5970  -30.6975   25.7775 H   0  0  0  0  0  0
  -24.8955  -32.2764   26.4945 H   0  0  0  0  0  0
  -25.8131  -30.8790   27.0196 H   0  0  0  0  0  0
  -26.2923  -29.6738   24.1246 H   0  0  0  0  0  0
  -27.4176  -29.7274   25.4589 H   0  0  0  0  0  0
  -27.8742  -30.4367   23.9249 H   0  0  0  0  0  0
  -27.2635  -33.3682   26.2037 H   0  0  0  0  0  0
  -28.3934  -32.6808   25.0450 H   0  0  0  0  0  0
  -28.0592  -31.8506   26.5563 H   0  0  0  0  0  0
  -28.2572  -38.0104   24.7493 H   0  0  0  0  0  0
  -28.1055  -36.2634   24.6266 H   0  0  0  0  0  0
  -27.2293  -37.1449   25.8858 H   0  0  0  0  0  0
  -20.9352  -29.8805   21.6958 H   0  0  0  0  0  0
  -26.0135  -38.2824   24.1422 H   0  0  0  0  0  0
  -29.6964  -21.1593   19.9963 H   0  0  0  0  0  0
  -27.5199  -23.6889   22.7231 H   0  0  0  0  0  0
  -29.4893  -18.9001   18.9592 H   0  0  0  0  0  0
  -30.7533  -18.7644   20.1510 H   0  0  0  0  0  0
  -30.3462  -18.0316   22.3489 H   0  0  0  0  0  0
  -28.7923  -17.9361   23.0736 H   0  0  0  0  0  0
  -24.8089  -18.3033   21.4855 H   0  0  0  0  0  0
  -25.0616  -20.0028   21.1284 H   0  0  0  0  0  0
  -30.8554  -16.7189   18.9033 H   0  0  0  0  0  0
  -29.1336  -16.5679   18.8066 H   0  0  0  0  0  0
  -28.1755  -15.9470   21.7512 H   0  0  0  0  0  0
  -29.6270  -15.6668   22.6784 H   0  0  0  0  0  0
  -24.2996  -17.9254   24.3295 H   0  0  0  0  0  0
  -24.1724  -19.4655   25.1758 H   0  0  0  0  0  0
  -27.8339  -18.1813   20.6103 H   0  0  0  0  0  0
  -26.7425  -18.1732   22.4934 H   0  0  0  0  0  0
  -23.9268  -20.6931   23.1183 H   0  0  0  0  0  0
  -26.0470  -23.8353   26.5725 H   0  0  0  0  0  0
  -24.7912  -22.7878   25.9377 H   0  0  0  0  0  0
  -25.3944  -24.1316   24.9616 H   0  0  0  0  0  0
  -29.6605  -23.3541   18.6121 H   0  0  0  0  0  0
  -30.9786  -23.1496   19.7738 H   0  0  0  0  0  0
  -30.5680  -24.7479   19.1795 H   0  0  0  0  0  0
  -27.0362  -21.6800   25.8053 H   0  0  0  0  0  0
  -27.6666  -23.0142   24.8856 H   0  0  0  0  0  0
  -27.2095  -24.9389   20.9480 H   0  0  0  0  0  0
  -27.6306  -24.6994   19.2796 H   0  0  0  0  0  0
  -29.7053  -24.4265   21.4691 H   0  0  0  0  0  0
  -26.5131  -18.4216   24.6592 H   0  0  0  0  0  0
  -26.2559  -20.0410   24.5024 H   0  0  0  0  0  0
  -22.0778  -19.3709   23.3208 H   0  0  0  0  0  0
  1 25  1  0  0  0
  1 30  2  0  0  0
  1 91  1  0  0  0
  2  3  1  0  0  0
  2 25  1  0  0  0
  2 95  1  0  0  0
  2 96  1  0  0  0
  3  4  1  0  0  0
  3 97  1  0  0  0
  3 98  1  0  0  0
  4  5  1  0  0  0
  4 99  1  0  0  0
  4100  1  0  0  0
  5  6  1  0  0  0
  5 26  1  0  0  0
  5101  1  0  0  0
  6 25  1  0  0  0
  6102  1  0  0  0
  6103  1  0  0  0
  7  8  2  0  0  0
  7 26  1  0  0  0
  7 29  1  0  0  0
  8  9  1  0  0  0
  8 22  1  0  0  0
  9 10  1  0  0  0
  9 27  2  0  0  0
 10 11  2  0  0  0
 10 15  1  0  0  0
 11 12  1  0  0  0
 11104  1  0  0  0
 12 13  2  0  0  0
 12105  1  0  0  0
 13 14  1  0  0  0
 13 31  1  0  0  0
 14 15  2  0  0  0
 14106  1  0  0  0
 15107  1  0  0  0
 16 17  2  0  0  0
 16 21  1  0  0  0
 16 31  1  0  0  0
 17 18  1  0  0  0
 17108  1  0  0  0
 18 19  2  0  0  0
 18109  1  0  0  0
 19 20  1  0  0  0
 19 24  1  0  0  0
 20 21  2  0  0  0
 20110  1  0  0  0
 21 23  1  0  0  0
 22 28  1  0  0  0
 22 32  2  0  0  0
 26 27  1  0  0  0
 28111  1  0  0  0
 28112  1  0  0  0
 29113  1  0  0  0
 29114  1  0  0  0
 33 34  1  0  0  0
 33 66  1  0  0  0
 33 70  2  0  0  0
 34 36  1  0  0  0
 34 59  1  0  0  0
 34115  1  0  0  0
 35 44  2  0  0  0
 35 45  1  0  0  0
 35 68  1  0  0  0
 36 56  1  0  0  0
 36116  1  0  0  0
 37 39  1  0  0  0
 37 47  1  0  0  0
 37 66  1  0  0  0
 37117  1  0  0  0
 38 43  2  0  0  0
 38 46  1  0  0  0
 38 47  1  0  0  0
 39 64  1  0  0  0
 39 67  2  0  0  0
 40 52  1  0  0  0
 40 53  2  0  0  0
 40 58  1  0  0  0
 41118  1  0  0  0
 41119  1  0  0  0
 41120  1  0  0  0
 41 48  1  0  0  0
 42 43  1  0  0  0
 42 66  1  0  0  0
 42121  1  0  0  0
 42122  1  0  0  0
 43 44  1  0  0  0
 44123  1  0  0  0
 45 46  2  0  0  0
 45124  1  0  0  0
 46125  1  0  0  0
 47126  1  0  0  0
 47127  1  0  0  0
 48 56  1  0  0  0
 48 65  1  0  0  0
 48128  1  0  0  0
 49 50  1  0  0  0
 49 53  1  0  0  0
 49 64  1  0  0  0
 49129  1  0  0  0
 50 51  1  0  0  0
 50130  1  0  0  0
 50131  1  0  0  0
 51 52  1  0  0  0
 51132  1  0  0  0
 51133  1  0  0  0
 52134  1  0  0  0
 52135  1  0  0  0
 53 54  1  0  0  0
 54 55  2  0  0  0
 54136  1  0  0  0
 55 57  1  0  0  0
 55137  1  0  0  0
 56 69  2  0  0  0
 57 58  2  0  0  0
 57138  1  0  0  0
 58139  1  0  0  0
 59 60  1  0  0  0
 59 61  1  0  0  0
 59 62  1  0  0  0
 60140  1  0  0  0
 60141  1  0  0  0
 60142  1  0  0  0
 61143  1  0  0  0
 61144  1  0  0  0
 61145  1  0  0  0
 62146  1  0  0  0
 62147  1  0  0  0
 62148  1  0  0  0
 63 65  1  0  0  0
 63149  1  0  0  0
 63150  1  0  0  0
 63151  1  0  0  0
 64152  1  0  0  0
 65153  1  0  0  0
 68 89  1  0  0  0
 71 73  2  0  0  0
 71 75  1  0  0  0
 71154  1  0  0  0
 72 75  2  0  0  0
 72 76  1  0  0  0
 72155  1  0  0  0
 73 74  1  0  0  0
 73 83  1  0  0  0
 74 76  2  0  0  0
 74 84  1  0  0  0
 75 90  1  0  0  0
 76 94  1  0  0  0
 77 80  1  0  0  0
 77 83  1  0  0  0
 77156  1  0  0  0
 77157  1  0  0  0
 78 81  1  0  0  0
 78 83  1  0  0  0
 78158  1  0  0  0
 78159  1  0  0  0
 79 84  1  0  0  0
 79 85  1  0  0  0
 79160  1  0  0  0
 79161  1  0  0  0
 80 91  1  0  0  0
 80162  1  0  0  0
 80163  1  0  0  0
 81 91  1  0  0  0
 81164  1  0  0  0
 81165  1  0  0  0
 82 85  1  0  0  0
 82 92  1  0  0  0
 82166  1  0  0  0
 82167  1  0  0  0
 83168  1  0  0  0
 84 92  1  0  0  0
 84169  1  0  0  0
 85 93  1  0  0  0
 85170  1  0  0  0
 86 88  1  0  0  0
 86171  1  0  0  0
 86172  1  0  0  0
 86173  1  0  0  0
 87174  1  0  0  0
 87175  1  0  0  0
 87176  1  0  0  0
 87 90  1  0  0  0
 88 94  1  0  0  0
 88177  1  0  0  0
 88178  1  0  0  0
 89 90  1  0  0  0
 89179  1  0  0  0
 89180  1  0  0  0
 90181  1  0  0  0
 92182  1  0  0  0
 92183  1  0  0  0
 93184  1  0  0  0
M  CHG  1  92   1
M  ISO  4   1 100  68 101  89 101  91 100
M  END
> <chiral flag>
0

> <version>
0

> <s_m_source_file>
/data/baiqing/PycharmProjects/Reinvent-master-3.2/result/LINK_invent/BTK/process_docking_weight1_custom_sum_contain_oxygen_bond_distance_aromatic_linkinvent_7_9_3/rearranged_h_0151.sdf

> <i_m_source_file_index>
5

> <r_mmod_Potential_Energy-OPLS-2005>
181.63981628418

> <r_mmod_Stretch_Energy-OPLS-2005>
89.1350479125977

> <r_mmod_Bend_Energy-OPLS-2005>
178.724517822266

> <r_mmod_Torsional_Energy-OPLS-2005>
434.836608886719

> <r_mmod_Improper_Torsional_Energy-OPLS-2005>
14.075325012207

> <r_mmod_Van_der_Waal_Energy-OPLS-2005>
155.73762512207

> <r_mmod_Electrostatic_Energy-OPLS-2005>
-279.061309814453

> <r_mmod_Solvation_Energy-OPLS-2005>
-456.985015869141

> <b_mmod_Minimization_Converged-OPLS-2005>
0

> <r_mmod_RMS_Derivative-OPLS-2005>
3.29854917526245

$$$$
5
                    3D
 Structure written by MMmdl.
170179  0  0  1  0            999 V2000
  -30.7309  -14.6106   20.5425 C   0  0  0  0  0  0
  -30.4077  -12.3898   19.4714 C   0  0  0  0  0  0
  -29.4981  -12.4977   18.2317 C   0  0  0  0  0  0
  -28.0248  -12.3175   18.6394 C   0  0  0  0  0  0
  -27.6389  -13.2064   19.8468 C   0  0  2  0  0  0
  -28.6846  -13.1354   20.9900 C   0  0  0  0  0  0
  -25.2501  -13.8126   20.5661 C   0  0  0  0  0  0
  -24.1784  -13.0424   20.9221 C   0  0  0  0  0  0
  -24.6363  -11.6897   20.8754 C   0  0  0  0  0  0
  -23.9041  -10.4281   21.0408 C   0  0  0  0  0  0
  -24.3606   -9.4203   21.9185 C   0  0  0  0  0  0
  -23.6279   -8.2243   22.0757 C   0  0  0  0  0  0
  -22.4253   -8.0293   21.3552 C   0  0  0  0  0  0
  -21.9895   -9.0246   20.4635 C   0  0  0  0  0  0
  -22.7227  -10.2128   20.3047 C   0  0  0  0  0  0
  -21.6844   -6.0737   22.5284 C   0  0  0  0  0  0
  -21.3998   -6.5634   23.8219 C   0  0  0  0  0  0
  -21.3660   -5.6785   24.9175 C   0  0  0  0  0  0
  -21.6059   -4.3045   24.7219 C   0  0  0  0  0  0
  -21.8820   -3.8144   23.4330 C   0  0  0  0  0  0
  -21.9180   -4.6968   22.3402 C   0  0  0  0  0  0
  -22.7811  -13.5211   21.1872 C   0  0  0  0  0  0
  -22.1644   -4.2177   21.0976 F   0  0  0  0  0  0
  -21.5642   -3.4521   25.7716 F   0  0  0  0  0  0
  -30.0044  -13.4478   20.4256 N   0  0  0  0  0  0
  -26.2910  -12.9302   20.3250 N   0  0  0  0  0  0
  -25.9278  -11.6470   20.5746 N   0  0  0  0  0  0
  -22.0445  -12.8202   22.0417 N   0  0  0  0  0  0
  -25.4136  -15.1847   20.4014 N   0  0  0  0  0  0
  -31.8776  -14.6577   20.0884 O   0  0  0  0  0  0
  -21.6640   -6.8881   21.4244 O   0  0  0  0  0  0
  -22.3508  -14.5522   20.6701 O   0  0  0  0  0  0
  -24.6265  -31.8662   23.2122 C   0  0  0  0  0  0
  -25.9137  -32.4803   23.8434 C   0  0  1  0  0  0
  -27.2041  -27.3272   20.0977 C   0  0  0  0  0  0
  -25.5967  -33.8604   24.2350 N   0  0  0  0  0  0
  -23.4175  -30.4970   21.5556 C   0  0  2  0  0  0
  -24.8601  -28.9758   20.1065 C   0  0  0  0  0  0
  -22.7495  -29.4643   22.4956 C   0  0  0  0  0  0
  -18.0283  -28.1382   22.8471 C   0  0  0  0  0  0
  -24.1476  -36.7273   23.2613 C   0  0  0  0  0  0
  -25.9644  -30.7927   21.3934 C   0  0  0  0  0  0
  -26.0324  -29.4273   20.7260 C   0  0  0  0  0  0
  -27.2063  -28.6127   20.7235 C   0  0  0  0  0  0
  -26.0102  -26.9674   19.4133 C   0  0  0  0  0  0
  -24.8516  -27.7495   19.4422 C   0  0  0  0  0  0
  -23.6304  -29.8539   20.1645 C   0  0  0  0  0  0
  -25.4090  -36.3088   24.0336 C   0  0  1  0  0  0
  -20.5888  -28.3681   23.1264 C   0  0  2  0  0  0
  -20.6780  -26.9410   22.5385 C   0  0  0  0  0  0
  -19.5760  -26.6385   21.5189 C   0  0  0  0  0  0
  -18.1928  -26.7927   22.1595 C   0  0  0  0  0  0
  -19.1541  -28.8845   23.2863 C   0  0  0  0  0  0
  -18.9464  -30.1443   23.8899 C   0  0  0  0  0  0
  -17.6467  -30.6572   24.0563 C   0  0  0  0  0  0
  -25.9054  -34.9463   23.5133 C   0  0  0  0  0  0
  -16.5352  -29.9068   23.6351 C   0  0  0  0  0  0
  -16.7270  -28.6486   23.0358 C   0  0  0  0  0  0
  -26.4510  -31.6583   25.0790 C   0  0  0  0  0  0
  -25.3735  -31.3719   26.1506 C   0  0  0  0  0  0
  -27.0337  -30.2983   24.6264 C   0  0  0  0  0  0
  -27.6084  -32.4291   25.7561 C   0  0  0  0  0  0
  -27.5619  -37.1737   24.8409 C   0  0  0  0  0  0
  -21.4208  -29.3048   22.3687 N   0  0  0  0  0  0
  -26.4234  -37.3819   23.9500 N   0  0  0  0  0  0
  -24.6874  -31.0684   22.1083 N   0  0  0  0  0  0
  -23.4221  -28.8160   23.3012 O   0  0  0  0  0  0
  -28.2804  -26.4156   20.1851 O   0  0  0  0  0  0
  -26.5618  -34.8928   22.4692 O   0  0  0  0  0  0
  -23.5429  -32.1471   23.7433 O   0  0  0  0  0  0
  -29.5000  -23.5269   21.2264 C   0  0  0  0  0  0
  -28.8087  -21.2599   19.7214 C   0  0  0  0  0  0
  -28.6784  -23.7181   20.0892 C   0  0  0  0  0  0
  -29.9463  -22.2242   21.6247 C   0  0  0  0  0  0
  -28.3458  -22.5466   19.3424 C   0  0  0  0  0  0
  -29.5912  -21.0575   20.8784 C   0  0  0  0  0  0
  -31.4966  -17.8970   20.9163 C   0  0  0  0  0  0
  -29.1382  -17.7063   20.0305 C   0  0  0  0  0  0
  -31.1475  -16.6954   21.8428 C   0  0  0  0  0  0
  -28.9713  -16.4531   20.9511 C   0  0  0  0  0  0
  -30.2782  -18.7059   20.3982 C   0  0  0  0  0  0
  -27.4161  -22.6233   18.1379 C   0  0  0  0  0  0
  -30.2469  -22.7764   24.1046 C   0  0  0  0  0  0
  -32.2630  -22.5802   22.5701 C   0  0  0  0  0  0
  -27.9517  -25.0526   19.7193 C   0  0  0  0  0  0
  -30.8373  -22.0874   22.8620 C   0  0  0  0  0  0
  -30.2370  -15.7237   21.1958 N   0  0  0  0  0  0
  -29.9499  -19.7759   21.3285 O   0  0  0  0  0  0
  -31.4544  -12.4588   19.1736 H   0  0  0  0  0  0
  -30.3069  -11.4073   19.9361 H   0  0  0  0  0  0
  -29.7776  -11.7482   17.4898 H   0  0  0  0  0  0
  -29.6358  -13.4686   17.7534 H   0  0  0  0  0  0
  -27.8715  -11.2656   18.8819 H   0  0  0  0  0  0
  -27.3723  -12.5305   17.7923 H   0  0  0  0  0  0
  -27.6208  -14.2056   19.4245 H   0  0  0  0  0  0
  -28.6977  -12.1386   21.4350 H   0  0  0  0  0  0
  -28.4217  -13.8175   21.7998 H   0  0  0  0  0  0
  -25.2775   -9.5666   22.4725 H   0  0  0  0  0  0
  -23.9984   -7.4630   22.7472 H   0  0  0  0  0  0
  -21.0843   -8.8752   19.8928 H   0  0  0  0  0  0
  -22.3706  -10.9642   19.6111 H   0  0  0  0  0  0
  -21.1979   -7.6136   23.9722 H   0  0  0  0  0  0
  -21.1478   -6.0509   25.9075 H   0  0  0  0  0  0
  -22.0594   -2.7614   23.2813 H   0  0  0  0  0  0
  -22.4055  -11.9859   22.4798 H   0  0  0  0  0  0
  -21.1041  -13.1198   22.2601 H   0  0  0  0  0  0
  -24.6393  -15.8288   20.5203 H   0  0  0  0  0  0
  -26.2503  -15.6279   20.0494 H   0  0  0  0  0  0
  -26.7191  -32.5474   23.1165 H   0  0  0  0  0  0
  -25.0156  -33.9756   25.0527 H   0  0  0  0  0  0
  -22.7087  -31.3170   21.4230 H   0  0  0  0  0  0
  -23.3839  -35.9490   23.3058 H   0  0  0  0  0  0
  -24.3647  -36.9124   22.2087 H   0  0  0  0  0  0
  -23.7080  -37.6335   23.6778 H   0  0  0  0  0  0
  -26.1077  -31.5606   20.6324 H   0  0  0  0  0  0
  -26.8406  -30.8256   22.0290 H   0  0  0  0  0  0
  -28.0969  -28.9504   21.2338 H   0  0  0  0  0  0
  -25.9026  -26.0588   18.8417 H   0  0  0  0  0  0
  -23.9607  -27.4097   18.9322 H   0  0  0  0  0  0
  -23.7511  -30.6427   19.4207 H   0  0  0  0  0  0
  -22.7499  -29.2881   19.8528 H   0  0  0  0  0  0
  -25.1222  -36.1905   25.0814 H   0  0  0  0  0  0
  -20.9933  -28.3236   24.1399 H   0  0  0  0  0  0
  -20.5660  -26.2302   23.3586 H   0  0  0  0  0  0
  -21.6654  -26.7421   22.1185 H   0  0  0  0  0  0
  -19.6917  -25.6280   21.1257 H   0  0  0  0  0  0
  -19.6712  -27.3189   20.6716 H   0  0  0  0  0  0
  -17.4200  -26.6667   21.3996 H   0  0  0  0  0  0
  -18.0325  -26.0052   22.8971 H   0  0  0  0  0  0
  -19.7939  -30.7269   24.2272 H   0  0  0  0  0  0
  -17.5012  -31.6262   24.5130 H   0  0  0  0  0  0
  -15.5357  -30.2966   23.7674 H   0  0  0  0  0  0
  -15.8659  -28.0803   22.7086 H   0  0  0  0  0  0
  -24.5907  -30.7072   25.7836 H   0  0  0  0  0  0
  -24.8936  -32.2884   26.4955 H   0  0  0  0  0  0
  -25.8036  -30.8881   27.0280 H   0  0  0  0  0  0
  -26.2904  -29.6764   24.1262 H   0  0  0  0  0  0
  -27.3968  -29.7223   25.4792 H   0  0  0  0  0  0
  -27.8818  -30.4253   23.9533 H   0  0  0  0  0  0
  -27.2717  -33.3621   26.2104 H   0  0  0  0  0  0
  -28.3918  -32.6797   25.0392 H   0  0  0  0  0  0
  -28.0711  -31.8437   26.5518 H   0  0  0  0  0  0
  -28.2363  -38.0299   24.7848 H   0  0  0  0  0  0
  -28.1389  -36.2883   24.5687 H   0  0  0  0  0  0
  -27.2440  -37.0678   25.8801 H   0  0  0  0  0  0
  -20.9392  -29.8803   21.6921 H   0  0  0  0  0  0
  -26.0096  -38.2824   24.1753 H   0  0  0  0  0  0
  -29.7566  -24.3890   21.8253 H   0  0  0  0  0  0
  -28.5035  -20.4056   19.1356 H   0  0  0  0  0  0
  -32.0378  -17.5039   20.0560 H   0  0  0  0  0  0
  -32.1982  -18.5636   21.4190 H   0  0  0  0  0  0
  -28.1888  -18.2355   19.9505 H   0  0  0  0  0  0
  -29.3448  -17.3309   19.0259 H   0  0  0  0  0  0
  -30.6860  -17.0690   22.7591 H   0  0  0  0  0  0
  -32.0659  -16.2015   22.1668 H   0  0  0  0  0  0
  -28.2155  -15.8151   20.5233 H   0  0  0  0  0  0
  -28.5530  -16.7692   21.9090 H   0  0  0  0  0  0
  -30.5988  -19.1946   19.4762 H   0  0  0  0  0  0
  -27.1909  -21.6353   17.7344 H   0  0  0  0  0  0
  -27.8665  -23.2092   17.3366 H   0  0  0  0  0  0
  -26.4627  -23.0770   18.4099 H   0  0  0  0  0  0
  -29.2466  -22.4016   24.3240 H   0  0  0  0  0  0
  -30.1817  -23.8588   23.9911 H   0  0  0  0  0  0
  -30.8654  -22.5828   24.9822 H   0  0  0  0  0  0
  -32.7000  -22.0381   21.7304 H   0  0  0  0  0  0
  -32.9155  -22.4276   23.4308 H   0  0  0  0  0  0
  -32.2825  -23.6428   22.3248 H   0  0  0  0  0  0
  -26.9615  -24.7943   20.0978 H   0  0  0  0  0  0
  -27.9102  -25.1199   18.6321 H   0  0  0  0  0  0
  -30.9181  -21.0307   23.1171 H   0  0  0  0  0  0
  1 25  1  0  0  0
  1 30  2  0  0  0
  1 87  1  0  0  0
  2  3  1  0  0  0
  2 25  1  0  0  0
  2 89  1  0  0  0
  2 90  1  0  0  0
  3  4  1  0  0  0
  3 91  1  0  0  0
  3 92  1  0  0  0
  4  5  1  0  0  0
  4 93  1  0  0  0
  4 94  1  0  0  0
  5  6  1  0  0  0
  5 26  1  0  0  0
  5 95  1  0  0  0
  6 25  1  0  0  0
  6 96  1  0  0  0
  6 97  1  0  0  0
  7  8  2  0  0  0
  7 26  1  0  0  0
  7 29  1  0  0  0
  8  9  1  0  0  0
  8 22  1  0  0  0
  9 10  1  0  0  0
  9 27  2  0  0  0
 10 11  2  0  0  0
 10 15  1  0  0  0
 11 12  1  0  0  0
 11 98  1  0  0  0
 12 13  2  0  0  0
 12 99  1  0  0  0
 13 14  1  0  0  0
 13 31  1  0  0  0
 14 15  2  0  0  0
 14100  1  0  0  0
 15101  1  0  0  0
 16 17  2  0  0  0
 16 21  1  0  0  0
 16 31  1  0  0  0
 17 18  1  0  0  0
 17102  1  0  0  0
 18 19  2  0  0  0
 18103  1  0  0  0
 19 20  1  0  0  0
 19 24  1  0  0  0
 20 21  2  0  0  0
 20104  1  0  0  0
 21 23  1  0  0  0
 22 28  1  0  0  0
 22 32  2  0  0  0
 26 27  1  0  0  0
 28105  1  0  0  0
 28106  1  0  0  0
 29107  1  0  0  0
 29108  1  0  0  0
 33 34  1  0  0  0
 33 66  1  0  0  0
 33 70  2  0  0  0
 34 36  1  0  0  0
 34 59  1  0  0  0
 34109  1  0  0  0
 35 44  2  0  0  0
 35 45  1  0  0  0
 35 68  1  0  0  0
 36 56  1  0  0  0
 36110  1  0  0  0
 37 39  1  0  0  0
 37 47  1  0  0  0
 37 66  1  0  0  0
 37111  1  0  0  0
 38 43  2  0  0  0
 38 46  1  0  0  0
 38 47  1  0  0  0
 39 64  1  0  0  0
 39 67  2  0  0  0
 40 52  1  0  0  0
 40 53  2  0  0  0
 40 58  1  0  0  0
 41112  1  0  0  0
 41113  1  0  0  0
 41114  1  0  0  0
 41 48  1  0  0  0
 42 43  1  0  0  0
 42 66  1  0  0  0
 42115  1  0  0  0
 42116  1  0  0  0
 43 44  1  0  0  0
 44117  1  0  0  0
 45 46  2  0  0  0
 45118  1  0  0  0
 46119  1  0  0  0
 47120  1  0  0  0
 47121  1  0  0  0
 48 56  1  0  0  0
 48 65  1  0  0  0
 48122  1  0  0  0
 49 50  1  0  0  0
 49 53  1  0  0  0
 49 64  1  0  0  0
 49123  1  0  0  0
 50 51  1  0  0  0
 50124  1  0  0  0
 50125  1  0  0  0
 51 52  1  0  0  0
 51126  1  0  0  0
 51127  1  0  0  0
 52128  1  0  0  0
 52129  1  0  0  0
 53 54  1  0  0  0
 54 55  2  0  0  0
 54130  1  0  0  0
 55 57  1  0  0  0
 55131  1  0  0  0
 56 69  2  0  0  0
 57 58  2  0  0  0
 57132  1  0  0  0
 58133  1  0  0  0
 59 60  1  0  0  0
 59 61  1  0  0  0
 59 62  1  0  0  0
 60134  1  0  0  0
 60135  1  0  0  0
 60136  1  0  0  0
 61137  1  0  0  0
 61138  1  0  0  0
 61139  1  0  0  0
 62140  1  0  0  0
 62141  1  0  0  0
 62142  1  0  0  0
 63 65  1  0  0  0
 63143  1  0  0  0
 63144  1  0  0  0
 63145  1  0  0  0
 64146  1  0  0  0
 65147  1  0  0  0
 68 85  1  0  0  0
 71 73  2  0  0  0
 71 74  1  0  0  0
 71148  1  0  0  0
 72 75  2  0  0  0
 72 76  1  0  0  0
 72149  1  0  0  0
 73 75  1  0  0  0
 73 85  1  0  0  0
 74 76  2  0  0  0
 74 86  1  0  0  0
 75 82  1  0  0  0
 76 88  1  0  0  0
 77 79  1  0  0  0
 77 81  1  0  0  0
 77150  1  0  0  0
 77151  1  0  0  0
 78 80  1  0  0  0
 78 81  1  0  0  0
 78152  1  0  0  0
 78153  1  0  0  0
 79 87  1  0  0  0
 79154  1  0  0  0
 79155  1  0  0  0
 80 87  1  0  0  0
 80156  1  0  0  0
 80157  1  0  0  0
 81 88  1  0  0  0
 81158  1  0  0  0
 82159  1  0  0  0
 82160  1  0  0  0
 82161  1  0  0  0
 83162  1  0  0  0
 83163  1  0  0  0
 83164  1  0  0  0
 83 86  1  0  0  0
 84 86  1  0  0  0
 84165  1  0  0  0
 84166  1  0  0  0
 84167  1  0  0  0
 85168  1  0  0  0
 85169  1  0  0  0
 86170  1  0  0  0
M  ISO  4   1 100  68 101  85 101  87 100
M  END
> <chiral flag>
0

> <version>
0

> <s_m_source_file>
/data/baiqing/PycharmProjects/Reinvent-master-3.2/result/LINK_invent/BTK/process_docking_weight1_custom_sum_contain_oxygen_bond_distance_aromatic_linkinvent_7_9_3/rearranged_h_0151.sdf

> <i_m_source_file_index>
6

> <r_mmod_Potential_Energy-OPLS-2005>
333.539031982422

> <r_mmod_Stretch_Energy-OPLS-2005>
75.1363296508789

> <r_mmod_Bend_Energy-OPLS-2005>
181.101043701172

> <r_mmod_Torsional_Energy-OPLS-2005>
322.646728515625

> <r_mmod_Improper_Torsional_Energy-OPLS-2005>
4.7459659576416

> <r_mmod_Van_der_Waal_Energy-OPLS-2005>
173.182968139648

> <r_mmod_Electrostatic_Energy-OPLS-2005>
-280.512023925781

> <r_mmod_Solvation_Energy-OPLS-2005>
-196.93327331543

> <b_mmod_Minimization_Converged-OPLS-2005>
0

> <r_mmod_RMS_Derivative-OPLS-2005>
2.67386722564697

$$$$
6
                    3D
 Structure written by MMmdl.
164173  0  0  1  0            999 V2000
  -30.6167  -14.9312   20.4223 C   0  0  0  0  0  0
  -30.4186  -12.5881   19.4872 C   0  0  0  0  0  0
  -29.5051  -12.5166   18.2462 C   0  0  0  0  0  0
  -28.0437  -12.3005   18.6755 C   0  0  0  0  0  0
  -27.6186  -13.2475   19.8276 C   0  0  2  0  0  0
  -28.6657  -13.3254   20.9587 C   0  0  0  0  0  0
  -25.2427  -13.8209   20.5733 C   0  0  0  0  0  0
  -24.1750  -13.0431   20.9248 C   0  0  0  0  0  0
  -24.6372  -11.6918   20.8774 C   0  0  0  0  0  0
  -23.9064  -10.4288   21.0418 C   0  0  0  0  0  0
  -24.3617   -9.4201   21.9191 C   0  0  0  0  0  0
  -23.6293   -8.2236   22.0755 C   0  0  0  0  0  0
  -22.4275   -8.0276   21.3544 C   0  0  0  0  0  0
  -21.9912   -9.0250   20.4647 C   0  0  0  0  0  0
  -22.7240  -10.2130   20.3061 C   0  0  0  0  0  0
  -21.6853   -6.0732   22.5278 C   0  0  0  0  0  0
  -21.4014   -6.5637   23.8211 C   0  0  0  0  0  0
  -21.3659   -5.6790   24.9174 C   0  0  0  0  0  0
  -21.6044   -4.3053   24.7225 C   0  0  0  0  0  0
  -21.8820   -3.8144   23.4347 C   0  0  0  0  0  0
  -21.9193   -4.6960   22.3402 C   0  0  0  0  0  0
  -22.7772  -13.5204   21.1893 C   0  0  0  0  0  0
  -22.1662   -4.2145   21.0980 F   0  0  0  0  0  0
  -21.5629   -3.4538   25.7739 F   0  0  0  0  0  0
  -29.9360  -13.7168   20.3372 N   0  0  0  0  0  0
  -26.2838  -12.9438   20.3252 N   0  0  0  0  0  0
  -25.9302  -11.6571   20.5765 N   0  0  0  0  0  0
  -22.0422  -12.8192   22.0446 N   0  0  0  0  0  0
  -25.4085  -15.1936   20.4149 N   0  0  0  0  0  0
  -31.8342  -14.8790   20.2154 O   0  0  0  0  0  0
  -21.6639   -6.8874   21.4240 O   0  0  0  0  0  0
  -22.3460  -14.5507   20.6732 O   0  0  0  0  0  0
  -24.6428  -31.8452   23.1898 C   0  0  0  0  0  0
  -25.9204  -32.4701   23.8281 C   0  0  1  0  0  0
  -27.2082  -27.1396   20.1559 C   0  0  0  0  0  0
  -25.5956  -33.8506   24.2198 N   0  0  0  0  0  0
  -23.4456  -30.4658   21.5354 C   0  0  2  0  0  0
  -24.8937  -28.8939   20.1121 C   0  0  0  0  0  0
  -22.7563  -29.4554   22.4865 C   0  0  0  0  0  0
  -18.0304  -28.1396   22.8478 C   0  0  0  0  0  0
  -24.1491  -36.7256   23.2642 C   0  0  0  0  0  0
  -26.0016  -30.7199   21.3889 C   0  0  0  0  0  0
  -26.0715  -29.3310   20.7325 C   0  0  0  0  0  0
  -27.2323  -28.4703   20.7367 C   0  0  0  0  0  0
  -26.0113  -26.8108   19.4839 C   0  0  0  0  0  0
  -24.8762  -27.6471   19.4714 C   0  0  0  0  0  0
  -23.6716  -29.7968   20.1543 C   0  0  0  0  0  0
  -25.4123  -36.3036   24.0317 C   0  0  1  0  0  0
  -20.5916  -28.3722   23.1238 C   0  0  2  0  0  0
  -20.6789  -26.9426   22.5404 C   0  0  0  0  0  0
  -19.5761  -26.6384   21.5212 C   0  0  0  0  0  0
  -18.1943  -26.7935   22.1625 C   0  0  0  0  0  0
  -19.1561  -28.8877   23.2850 C   0  0  0  0  0  0
  -18.9477  -30.1473   23.8876 C   0  0  0  0  0  0
  -17.6473  -30.6593   24.0560 C   0  0  0  0  0  0
  -25.9073  -34.9410   23.5065 C   0  0  0  0  0  0
  -16.5364  -29.9086   23.6337 C   0  0  0  0  0  0
  -16.7288  -28.6504   23.0358 C   0  0  0  0  0  0
  -26.4527  -31.6567   25.0720 C   0  0  0  0  0  0
  -25.3712  -31.3754   26.1414 C   0  0  0  0  0  0
  -27.0395  -30.2964   24.6300 C   0  0  0  0  0  0
  -27.6056  -32.4334   25.7507 C   0  0  0  0  0  0
  -27.5574  -37.1786   24.8466 C   0  0  0  0  0  0
  -21.4257  -29.3049   22.3611 N   0  0  0  0  0  0
  -26.4287  -37.3748   23.9407 N   0  0  0  0  0  0
  -24.7165  -31.0314   22.0931 N   0  0  0  0  0  0
  -23.4209  -28.8099   23.3011 O   0  0  0  0  0  0
  -28.2546  -26.1496   20.1929 O   0  0  0  0  0  0
  -26.5657  -34.8905   22.4643 O   0  0  0  0  0  0
  -23.5549  -32.1326   23.7122 O   0  0  0  0  0  0
  -30.6666  -18.8483   20.9166 C   0  0  0  0  0  0
  -28.6902  -18.4081   19.6941 C   0  0  0  0  0  0
  -30.7217  -17.3165   21.4111 C   0  0  0  0  0  0
  -28.7503  -16.8294   20.1098 C   0  0  0  0  0  0
  -28.0528  -21.8343   19.8019 C   0  0  0  0  0  0
  -28.7486  -23.2458   20.0756 C   0  0  2  0  0  0
  -29.2697  -19.5407   20.6546 C   0  0  0  0  0  0
  -29.5697  -22.2602   21.0294 C   0  0  2  0  0  0
  -31.3808  -24.0195   21.4748 C   0  0  0  0  0  0
  -27.9409  -24.6568   20.5128 C   0  0  0  0  0  0
  -31.0663  -22.5331   21.2514 C   0  0  1  0  0  0
  -30.0170  -16.2164   20.6548 N   0  0  0  0  0  0
  -29.2980  -21.0540   20.1354 N   0  3  2  0  0  0
  -31.5154  -21.8431   22.4031 O   0  0  0  0  0  0
  -31.4542  -12.7151   19.1686 H   0  0  0  0  0  0
  -30.3946  -11.6490   20.0426 H   0  0  0  0  0  0
  -29.8244  -11.7106   17.5841 H   0  0  0  0  0  0
  -29.5894  -13.4401   17.6711 H   0  0  0  0  0  0
  -27.9491  -11.2633   18.9991 H   0  0  0  0  0  0
  -27.3750  -12.4147   17.8215 H   0  0  0  0  0  0
  -27.5602  -14.2326   19.3708 H   0  0  0  0  0  0
  -28.7580  -12.3723   21.4813 H   0  0  0  0  0  0
  -28.3674  -14.0651   21.7036 H   0  0  0  0  0  0
  -25.2759   -9.5680   22.4771 H   0  0  0  0  0  0
  -24.0001   -7.4626   22.7473 H   0  0  0  0  0  0
  -21.0845   -8.8769   19.8952 H   0  0  0  0  0  0
  -22.3697  -10.9670   19.6173 H   0  0  0  0  0  0
  -21.2005   -7.6145   23.9712 H   0  0  0  0  0  0
  -21.1481   -6.0521   25.9076 H   0  0  0  0  0  0
  -22.0599   -2.7606   23.2848 H   0  0  0  0  0  0
  -22.4046  -11.9859   22.4839 H   0  0  0  0  0  0
  -21.1034  -13.1205   22.2643 H   0  0  0  0  0  0
  -24.6394  -15.8445   20.5298 H   0  0  0  0  0  0
  -26.2558  -15.6347   20.0844 H   0  0  0  0  0  0
  -26.7269  -32.5310   23.1009 H   0  0  0  0  0  0
  -25.0083  -33.9623   25.0332 H   0  0  0  0  0  0
  -22.7478  -31.2917   21.3823 H   0  0  0  0  0  0
  -23.3758  -35.9582   23.3295 H   0  0  0  0  0  0
  -24.3575  -36.8896   22.2058 H   0  0  0  0  0  0
  -23.7239  -37.6447   23.6684 H   0  0  0  0  0  0
  -26.1572  -31.4738   20.6160 H   0  0  0  0  0  0
  -26.8724  -30.7700   22.0309 H   0  0  0  0  0  0
  -28.1306  -28.7998   21.2397 H   0  0  0  0  0  0
  -25.9286  -25.8685   18.9633 H   0  0  0  0  0  0
  -23.9812  -27.3126   18.9647 H   0  0  0  0  0  0
  -23.8094  -30.5717   19.3994 H   0  0  0  0  0  0
  -22.7861  -29.2399   19.8430 H   0  0  0  0  0  0
  -25.1311  -36.1865   25.0809 H   0  0  0  0  0  0
  -21.0008  -28.3311   24.1359 H   0  0  0  0  0  0
  -20.5684  -26.2335   23.3622 H   0  0  0  0  0  0
  -21.6655  -26.7434   22.1200 H   0  0  0  0  0  0
  -19.6922  -25.6290   21.1255 H   0  0  0  0  0  0
  -19.6698  -27.3183   20.6732 H   0  0  0  0  0  0
  -17.4212  -26.6680   21.4028 H   0  0  0  0  0  0
  -18.0343  -26.0082   22.9027 H   0  0  0  0  0  0
  -19.7952  -30.7295   24.2236 H   0  0  0  0  0  0
  -17.5026  -31.6270   24.5166 H   0  0  0  0  0  0
  -15.5363  -30.2980   23.7673 H   0  0  0  0  0  0
  -15.8689  -28.0815   22.7086 H   0  0  0  0  0  0
  -24.5898  -30.7094   25.7735 H   0  0  0  0  0  0
  -24.8892  -32.2936   26.4783 H   0  0  0  0  0  0
  -25.7996  -30.8966   27.0228 H   0  0  0  0  0  0
  -26.3015  -29.6684   24.1297 H   0  0  0  0  0  0
  -27.3999  -29.7265   25.4875 H   0  0  0  0  0  0
  -27.8926  -30.4202   23.9626 H   0  0  0  0  0  0
  -27.2647  -33.3654   26.2028 H   0  0  0  0  0  0
  -28.3897  -32.6864   25.0358 H   0  0  0  0  0  0
  -28.0689  -31.8496   26.5470 H   0  0  0  0  0  0
  -28.2588  -38.0086   24.7511 H   0  0  0  0  0  0
  -28.1075  -36.2616   24.6299 H   0  0  0  0  0  0
  -27.2291  -37.1440   25.8869 H   0  0  0  0  0  0
  -20.9466  -29.8762   21.6791 H   0  0  0  0  0  0
  -26.0155  -38.2816   24.1409 H   0  0  0  0  0  0
  -31.2664  -18.9252   20.0086 H   0  0  0  0  0  0
  -31.2066  -19.4352   21.6562 H   0  0  0  0  0  0
  -27.6509  -18.6551   19.4749 H   0  0  0  0  0  0
  -29.1999  -18.5016   18.7340 H   0  0  0  0  0  0
  -30.3181  -17.2832   22.4239 H   0  0  0  0  0  0
  -31.7736  -17.0515   21.5288 H   0  0  0  0  0  0
  -28.4565  -16.2537   19.2328 H   0  0  0  0  0  0
  -27.9796  -16.6461   20.8590 H   0  0  0  0  0  0
  -27.7234  -21.6922   18.7723 H   0  0  0  0  0  0
  -27.2322  -21.6180   20.4903 H   0  0  0  0  0  0
  -29.3605  -23.4670   19.1992 H   0  0  0  0  0  0
  -28.6948  -19.5345   21.5808 H   0  0  0  0  0  0
  -29.0344  -22.1580   21.9785 H   0  0  0  0  0  0
  -31.1361  -24.6132   20.5934 H   0  0  0  0  0  0
  -32.4417  -24.1743   21.6750 H   0  0  0  0  0  0
  -30.8181  -24.4324   22.3131 H   0  0  0  0  0  0
  -27.8983  -24.6504   21.6021 H   0  0  0  0  0  0
  -26.9024  -24.4806   20.2438 H   0  0  0  0  0  0
  -31.6497  -22.1901   20.3947 H   0  0  0  0  0  0
  -29.9115  -21.1016   19.3360 H   0  0  0  0  0  0
  -31.1169  -22.2453   23.1694 H   0  0  0  0  0  0
  1 25  1  0  0  0
  1 30  2  0  0  0
  1 82  1  0  0  0
  2  3  1  0  0  0
  2 25  1  0  0  0
  2 85  1  0  0  0
  2 86  1  0  0  0
  3  4  1  0  0  0
  3 87  1  0  0  0
  3 88  1  0  0  0
  4  5  1  0  0  0
  4 89  1  0  0  0
  4 90  1  0  0  0
  5  6  1  0  0  0
  5 26  1  0  0  0
  5 91  1  0  0  0
  6 25  1  0  0  0
  6 92  1  0  0  0
  6 93  1  0  0  0
  7  8  2  0  0  0
  7 26  1  0  0  0
  7 29  1  0  0  0
  8  9  1  0  0  0
  8 22  1  0  0  0
  9 10  1  0  0  0
  9 27  2  0  0  0
 10 11  2  0  0  0
 10 15  1  0  0  0
 11 12  1  0  0  0
 11 94  1  0  0  0
 12 13  2  0  0  0
 12 95  1  0  0  0
 13 14  1  0  0  0
 13 31  1  0  0  0
 14 15  2  0  0  0
 14 96  1  0  0  0
 15 97  1  0  0  0
 16 17  2  0  0  0
 16 21  1  0  0  0
 16 31  1  0  0  0
 17 18  1  0  0  0
 17 98  1  0  0  0
 18 19  2  0  0  0
 18 99  1  0  0  0
 19 20  1  0  0  0
 19 24  1  0  0  0
 20 21  2  0  0  0
 20100  1  0  0  0
 21 23  1  0  0  0
 22 28  1  0  0  0
 22 32  2  0  0  0
 26 27  1  0  0  0
 28101  1  0  0  0
 28102  1  0  0  0
 29103  1  0  0  0
 29104  1  0  0  0
 33 34  1  0  0  0
 33 66  1  0  0  0
 33 70  2  0  0  0
 34 36  1  0  0  0
 34 59  1  0  0  0
 34105  1  0  0  0
 35 44  2  0  0  0
 35 45  1  0  0  0
 35 68  1  0  0  0
 36 56  1  0  0  0
 36106  1  0  0  0
 37 39  1  0  0  0
 37 47  1  0  0  0
 37 66  1  0  0  0
 37107  1  0  0  0
 38 43  2  0  0  0
 38 46  1  0  0  0
 38 47  1  0  0  0
 39 64  1  0  0  0
 39 67  2  0  0  0
 40 52  1  0  0  0
 40 53  2  0  0  0
 40 58  1  0  0  0
 41108  1  0  0  0
 41109  1  0  0  0
 41110  1  0  0  0
 41 48  1  0  0  0
 42 43  1  0  0  0
 42 66  1  0  0  0
 42111  1  0  0  0
 42112  1  0  0  0
 43 44  1  0  0  0
 44113  1  0  0  0
 45 46  2  0  0  0
 45114  1  0  0  0
 46115  1  0  0  0
 47116  1  0  0  0
 47117  1  0  0  0
 48 56  1  0  0  0
 48 65  1  0  0  0
 48118  1  0  0  0
 49 50  1  0  0  0
 49 53  1  0  0  0
 49 64  1  0  0  0
 49119  1  0  0  0
 50 51  1  0  0  0
 50120  1  0  0  0
 50121  1  0  0  0
 51 52  1  0  0  0
 51122  1  0  0  0
 51123  1  0  0  0
 52124  1  0  0  0
 52125  1  0  0  0
 53 54  1  0  0  0
 54 55  2  0  0  0
 54126  1  0  0  0
 55 57  1  0  0  0
 55127  1  0  0  0
 56 69  2  0  0  0
 57 58  2  0  0  0
 57128  1  0  0  0
 58129  1  0  0  0
 59 60  1  0  0  0
 59 61  1  0  0  0
 59 62  1  0  0  0
 60130  1  0  0  0
 60131  1  0  0  0
 60132  1  0  0  0
 61133  1  0  0  0
 61134  1  0  0  0
 61135  1  0  0  0
 62136  1  0  0  0
 62137  1  0  0  0
 62138  1  0  0  0
 63 65  1  0  0  0
 63139  1  0  0  0
 63140  1  0  0  0
 63141  1  0  0  0
 64142  1  0  0  0
 65143  1  0  0  0
 68 80  1  0  0  0
 71 73  1  0  0  0
 71144  1  0  0  0
 71145  1  0  0  0
 71 77  1  0  0  0
 72 74  1  0  0  0
 72 77  1  0  0  0
 72146  1  0  0  0
 72147  1  0  0  0
 73 82  1  0  0  0
 73148  1  0  0  0
 73149  1  0  0  0
 74 82  1  0  0  0
 74150  1  0  0  0
 74151  1  0  0  0
 75 76  1  0  0  0
 75152  1  0  0  0
 75153  1  0  0  0
 75 83  1  0  0  0
 76 78  1  0  0  0
 76 80  1  0  0  0
 76154  1  0  0  0
 77 83  1  0  0  0
 77155  1  0  0  0
 78 81  1  0  0  0
 78 83  1  0  0  0
 78156  1  0  0  0
 79157  1  0  0  0
 79158  1  0  0  0
 79159  1  0  0  0
 79 81  1  0  0  0
 80160  1  0  0  0
 80161  1  0  0  0
 81 84  1  0  0  0
 81162  1  0  0  0
 83163  1  0  0  0
 84164  1  0  0  0
M  CHG  1  83   1
M  ISO  4   1 100  68 101  80 101  82 100
M  END
> <chiral flag>
0

> <version>
0

> <s_m_source_file>
/data/baiqing/PycharmProjects/Reinvent-master-3.2/result/LINK_invent/BTK/process_docking_weight1_custom_sum_contain_oxygen_bond_distance_aromatic_linkinvent_7_9_3/rearranged_h_0151.sdf

> <i_m_source_file_index>
7

> <r_mmod_Potential_Energy-OPLS-2005>
554.860229492188

> <r_mmod_Stretch_Energy-OPLS-2005>
227.800201416016

> <r_mmod_Bend_Energy-OPLS-2005>
309.180511474609

> <r_mmod_Torsional_Energy-OPLS-2005>
362.515075683594

> <r_mmod_Improper_Torsional_Energy-OPLS-2005>
1.83602690696716

> <r_mmod_Van_der_Waal_Energy-OPLS-2005>
116.868324279785

> <r_mmod_Electrostatic_Energy-OPLS-2005>
-188.582489013672

> <r_mmod_Solvation_Energy-OPLS-2005>
-462.878936767578

> <b_mmod_Minimization_Converged-OPLS-2005>
0

> <r_mmod_RMS_Derivative-OPLS-2005>
0.149774968624115

$$$$
7
                    3D
 Structure written by MMmdl.
161171  0  0  1  0            999 V2000
  -30.6273  -14.7676   20.3536 C   0  0  0  0  0  0
  -30.4486  -12.4464   19.4539 C   0  0  0  0  0  0
  -29.5015  -12.3909   18.2339 C   0  0  0  0  0  0
  -28.0263  -12.2860   18.6609 C   0  0  0  0  0  0
  -27.6420  -13.2253   19.8331 C   0  0  2  0  0  0
  -28.7039  -13.2173   20.9523 C   0  0  0  0  0  0
  -25.2552  -13.8185   20.5713 C   0  0  0  0  0  0
  -24.1811  -13.0447   20.9182 C   0  0  0  0  0  0
  -24.6388  -11.6925   20.8759 C   0  0  0  0  0  0
  -23.9060  -10.4296   21.0403 C   0  0  0  0  0  0
  -24.3616   -9.4216   21.9175 C   0  0  0  0  0  0
  -23.6302   -8.2252   22.0760 C   0  0  0  0  0  0
  -22.4295   -8.0267   21.3538 C   0  0  0  0  0  0
  -21.9906   -9.0247   20.4658 C   0  0  0  0  0  0
  -22.7230  -10.2128   20.3051 C   0  0  0  0  0  0
  -21.6871   -6.0720   22.5253 C   0  0  0  0  0  0
  -21.4006   -6.5624   23.8176 C   0  0  0  0  0  0
  -21.3665   -5.6784   24.9141 C   0  0  0  0  0  0
  -21.6043   -4.3050   24.7205 C   0  0  0  0  0  0
  -21.8829   -3.8131   23.4328 C   0  0  0  0  0  0
  -21.9193   -4.6936   22.3383 C   0  0  0  0  0  0
  -22.7842  -13.5249   21.1807 C   0  0  0  0  0  0
  -22.1676   -4.2115   21.0970 F   0  0  0  0  0  0
  -21.5637   -3.4535   25.7726 F   0  0  0  0  0  0
  -29.9941  -13.5440   20.3317 N   0  0  0  0  0  0
  -26.2972  -12.9384   20.3291 N   0  0  0  0  0  0
  -25.9315  -11.6538   20.5824 N   0  0  0  0  0  0
  -22.0479  -12.8269   22.0389 N   0  0  0  0  0  0
  -25.4286  -15.1919   20.4165 N   0  0  0  0  0  0
  -31.8579  -14.8210   20.3301 O   0  0  0  0  0  0
  -21.6656   -6.8863   21.4229 O   0  0  0  0  0  0
  -22.3536  -14.5558   20.6646 O   0  0  0  0  0  0
  -24.6375  -31.8563   23.1972 C   0  0  0  0  0  0
  -25.9210  -32.4742   23.8309 C   0  0  1  0  0  0
  -27.2003  -27.2370   20.1226 C   0  0  0  0  0  0
  -25.6000  -33.8531   24.2258 N   0  0  0  0  0  0
  -23.4336  -30.4847   21.5429 C   0  0  2  0  0  0
  -24.8713  -28.9320   20.1105 C   0  0  0  0  0  0
  -22.7519  -29.4653   22.4886 C   0  0  0  0  0  0
  -18.0298  -28.1414   22.8479 C   0  0  0  0  0  0
  -24.1497  -36.7264   23.2631 C   0  0  0  0  0  0
  -25.9836  -30.7593   21.3829 C   0  0  0  0  0  0
  -26.0487  -29.3831   20.7199 C   0  0  0  0  0  0
  -27.2186  -28.5515   20.7094 C   0  0  0  0  0  0
  -25.9941  -26.8657   19.4863 C   0  0  0  0  0  0
  -24.8496  -27.6821   19.4808 C   0  0  0  0  0  0
  -23.6496  -29.8280   20.1575 C   0  0  0  0  0  0
  -25.4118  -36.3045   24.0326 C   0  0  1  0  0  0
  -20.5908  -28.3758   23.1229 C   0  0  2  0  0  0
  -20.6800  -26.9467   22.5399 C   0  0  0  0  0  0
  -19.5760  -26.6419   21.5216 C   0  0  0  0  0  0
  -18.1949  -26.7963   22.1626 C   0  0  0  0  0  0
  -19.1559  -28.8904   23.2855 C   0  0  0  0  0  0
  -18.9469  -30.1491   23.8879 C   0  0  0  0  0  0
  -17.6466  -30.6599   24.0589 C   0  0  0  0  0  0
  -25.9082  -34.9422   23.5097 C   0  0  0  0  0  0
  -16.5354  -29.9098   23.6348 C   0  0  0  0  0  0
  -16.7288  -28.6531   23.0349 C   0  0  0  0  0  0
  -26.4570  -31.6542   25.0700 C   0  0  0  0  0  0
  -25.3771  -31.3710   26.1416 C   0  0  0  0  0  0
  -27.0388  -30.2924   24.6228 C   0  0  0  0  0  0
  -27.6150  -32.4264   25.7439 C   0  0  0  0  0  0
  -27.5600  -37.1746   24.8441 C   0  0  0  0  0  0
  -21.4238  -29.3087   22.3603 N   0  0  0  0  0  0
  -26.4282  -37.3763   23.9437 N   0  0  0  0  0  0
  -24.7043  -31.0508   22.0971 N   0  0  0  0  0  0
  -23.4194  -28.8197   23.3025 O   0  0  0  0  0  0
  -28.2818  -26.3175   20.1676 O   0  0  0  0  0  0
  -26.5642  -34.8912   22.4651 O   0  0  0  0  0  0
  -23.5529  -32.1404   23.7265 O   0  0  0  0  0  0
  -29.5435  -18.4943   17.6199 C   0  0  0  0  0  0
  -29.5550  -19.7115   18.3466 C   0  0  0  0  0  0
  -29.6746  -17.3390   18.3867 C   0  0  0  0  0  0
  -29.6976  -19.7993   19.7712 C   0  0  0  0  0  0
  -29.8507  -17.2946   19.8066 C   0  0  0  0  0  0
  -29.8615  -18.5466   20.5335 C   0  0  0  0  0  0
  -27.5767  -24.0918   18.9604 C   0  0  0  0  0  0
  -28.4083  -22.7855   18.8255 C   0  0  0  0  0  0
  -29.0542  -23.7581   20.8276 C   0  0  0  0  0  0
  -29.8163  -15.8580   18.2439 C   0  0  1  0  0  0
  -28.0035  -24.8232   20.2576 C   0  0  1  0  0  0
  -31.1194  -15.5484   17.4895 C   0  0  0  0  0  0
  -29.8617  -21.2762   20.3681 C   0  0  0  0  0  0
  -29.9077  -15.8014   19.7605 N   0  0  0  0  0  0
  -28.7995  -22.3892   20.1972 N   0  3  2  0  0  0
  -30.0468  -18.5659   21.8731 F   0  0  0  0  0  0
  -31.4767  -12.5880   19.1190 H   0  0  0  0  0  0
  -30.4385  -11.5034   19.9999 H   0  0  0  0  0  0
  -29.7632  -11.5297   17.6170 H   0  0  0  0  0  0
  -29.6313  -13.2484   17.5833 H   0  0  0  0  0  0
  -27.8692  -11.2512   18.9634 H   0  0  0  0  0  0
  -27.3688  -12.4550   17.8066 H   0  0  0  0  0  0
  -27.6181  -14.2336   19.4206 H   0  0  0  0  0  0
  -28.7471  -12.2521   21.4573 H   0  0  0  0  0  0
  -28.4557  -13.9550   21.7148 H   0  0  0  0  0  0
  -25.2770   -9.5703   22.4741 H   0  0  0  0  0  0
  -24.0006   -7.4680   22.7523 H   0  0  0  0  0  0
  -21.0793   -8.8765   19.9039 H   0  0  0  0  0  0
  -22.3667  -10.9650   19.6165 H   0  0  0  0  0  0
  -21.1991   -7.6132   23.9664 H   0  0  0  0  0  0
  -21.1492   -6.0515   25.9047 H   0  0  0  0  0  0
  -22.0602   -2.7591   23.2819 H   0  0  0  0  0  0
  -22.4118  -11.9935   22.4753 H   0  0  0  0  0  0
  -21.1114  -13.1306   22.2626 H   0  0  0  0  0  0
  -24.6649  -15.8513   20.5160 H   0  0  0  0  0  0
  -26.2960  -15.6311   20.1334 H   0  0  0  0  0  0
  -26.7280  -32.5396   23.1043 H   0  0  0  0  0  0
  -25.0141  -33.9628   25.0409 H   0  0  0  0  0  0
  -22.7363  -31.3120   21.4018 H   0  0  0  0  0  0
  -23.3780  -35.9570   23.3210 H   0  0  0  0  0  0
  -24.3626  -36.8973   22.2066 H   0  0  0  0  0  0
  -23.7191  -37.6420   23.6700 H   0  0  0  0  0  0
  -26.1364  -31.5224   20.6184 H   0  0  0  0  0  0
  -26.8560  -30.7952   22.0233 H   0  0  0  0  0  0
  -28.1222  -28.8957   21.1929 H   0  0  0  0  0  0
  -25.8823  -25.9246   18.9805 H   0  0  0  0  0  0
  -23.9496  -27.3300   18.9947 H   0  0  0  0  0  0
  -23.7838  -30.6095   19.4077 H   0  0  0  0  0  0
  -22.7643  -29.2713   19.8477 H   0  0  0  0  0  0
  -25.1275  -36.1888   25.0814 H   0  0  0  0  0  0
  -21.0011  -28.3358   24.1345 H   0  0  0  0  0  0
  -20.5713  -26.2378   23.3620 H   0  0  0  0  0  0
  -21.6660  -26.7509   22.1164 H   0  0  0  0  0  0
  -19.6927  -25.6331   21.1249 H   0  0  0  0  0  0
  -19.6687  -27.3235   20.6745 H   0  0  0  0  0  0
  -17.4224  -26.6716   21.4021 H   0  0  0  0  0  0
  -18.0329  -26.0105   22.9011 H   0  0  0  0  0  0
  -19.7947  -30.7322   24.2222 H   0  0  0  0  0  0
  -17.5021  -31.6262   24.5212 H   0  0  0  0  0  0
  -15.5348  -30.2997   23.7675 H   0  0  0  0  0  0
  -15.8689  -28.0851   22.7039 H   0  0  0  0  0  0
  -24.5921  -30.7120   25.7701 H   0  0  0  0  0  0
  -24.9008  -32.2892   26.4862 H   0  0  0  0  0  0
  -25.8058  -30.8820   27.0180 H   0  0  0  0  0  0
  -26.2953  -29.6632   24.1334 H   0  0  0  0  0  0
  -27.4105  -29.7240   25.4770 H   0  0  0  0  0  0
  -27.8842  -30.4119   23.9446 H   0  0  0  0  0  0
  -27.2815  -33.3593   26.1995 H   0  0  0  0  0  0
  -28.3953  -32.6780   25.0234 H   0  0  0  0  0  0
  -28.0851  -31.8399   26.5353 H   0  0  0  0  0  0
  -28.2523  -38.0139   24.7641 H   0  0  0  0  0  0
  -28.1187  -36.2678   24.6060 H   0  0  0  0  0  0
  -27.2356  -37.1144   25.8847 H   0  0  0  0  0  0
  -20.9441  -29.8768   21.6760 H   0  0  0  0  0  0
  -26.0154  -38.2820   24.1520 H   0  0  0  0  0  0
  -29.4735  -18.4646   16.5412 H   0  0  0  0  0  0
  -29.5023  -20.6131   17.7569 H   0  0  0  0  0  0
  -26.5303  -23.7954   19.0651 H   0  0  0  0  0  0
  -27.6441  -24.7239   18.0758 H   0  0  0  0  0  0
  -29.3032  -23.0030   18.2378 H   0  0  0  0  0  0
  -27.8512  -22.0042   18.3058 H   0  0  0  0  0  0
  -28.9947  -23.6891   21.9165 H   0  0  0  0  0  0
  -30.0689  -24.0718   20.5763 H   0  0  0  0  0  0
  -28.9138  -15.4056   17.8293 H   0  0  0  0  0  0
  -27.1547  -24.7526   20.9396 H   0  0  0  0  0  0
  -31.9613  -16.1271   17.8762 H   0  0  0  0  0  0
  -31.0252  -15.7948   16.4330 H   0  0  0  0  0  0
  -31.4138  -14.5018   17.5508 H   0  0  0  0  0  0
  -30.7808  -21.6658   19.9266 H   0  0  0  0  0  0
  -30.0888  -21.1824   21.4307 H   0  0  0  0  0  0
  -27.9622  -22.0204   20.6236 H   0  0  0  0  0  0
  1 25  1  0  0  0
  1 30  2  0  0  0
  1 84  1  0  0  0
  2  3  1  0  0  0
  2 25  1  0  0  0
  2 87  1  0  0  0
  2 88  1  0  0  0
  3  4  1  0  0  0
  3 89  1  0  0  0
  3 90  1  0  0  0
  4  5  1  0  0  0
  4 91  1  0  0  0
  4 92  1  0  0  0
  5  6  1  0  0  0
  5 26  1  0  0  0
  5 93  1  0  0  0
  6 25  1  0  0  0
  6 94  1  0  0  0
  6 95  1  0  0  0
  7  8  2  0  0  0
  7 26  1  0  0  0
  7 29  1  0  0  0
  8  9  1  0  0  0
  8 22  1  0  0  0
  9 10  1  0  0  0
  9 27  2  0  0  0
 10 11  2  0  0  0
 10 15  1  0  0  0
 11 12  1  0  0  0
 11 96  1  0  0  0
 12 13  2  0  0  0
 12 97  1  0  0  0
 13 14  1  0  0  0
 13 31  1  0  0  0
 14 15  2  0  0  0
 14 98  1  0  0  0
 15 99  1  0  0  0
 16 17  2  0  0  0
 16 21  1  0  0  0
 16 31  1  0  0  0
 17 18  1  0  0  0
 17100  1  0  0  0
 18 19  2  0  0  0
 18101  1  0  0  0
 19 20  1  0  0  0
 19 24  1  0  0  0
 20 21  2  0  0  0
 20102  1  0  0  0
 21 23  1  0  0  0
 22 28  1  0  0  0
 22 32  2  0  0  0
 26 27  1  0  0  0
 28103  1  0  0  0
 28104  1  0  0  0
 29105  1  0  0  0
 29106  1  0  0  0
 33 34  1  0  0  0
 33 66  1  0  0  0
 33 70  2  0  0  0
 34 36  1  0  0  0
 34 59  1  0  0  0
 34107  1  0  0  0
 35 44  2  0  0  0
 35 45  1  0  0  0
 35 68  1  0  0  0
 36 56  1  0  0  0
 36108  1  0  0  0
 37 39  1  0  0  0
 37 47  1  0  0  0
 37 66  1  0  0  0
 37109  1  0  0  0
 38 43  2  0  0  0
 38 46  1  0  0  0
 38 47  1  0  0  0
 39 64  1  0  0  0
 39 67  2  0  0  0
 40 52  1  0  0  0
 40 53  2  0  0  0
 40 58  1  0  0  0
 41110  1  0  0  0
 41111  1  0  0  0
 41112  1  0  0  0
 41 48  1  0  0  0
 42 43  1  0  0  0
 42 66  1  0  0  0
 42113  1  0  0  0
 42114  1  0  0  0
 43 44  1  0  0  0
 44115  1  0  0  0
 45 46  2  0  0  0
 45116  1  0  0  0
 46117  1  0  0  0
 47118  1  0  0  0
 47119  1  0  0  0
 48 56  1  0  0  0
 48 65  1  0  0  0
 48120  1  0  0  0
 49 50  1  0  0  0
 49 53  1  0  0  0
 49 64  1  0  0  0
 49121  1  0  0  0
 50 51  1  0  0  0
 50122  1  0  0  0
 50123  1  0  0  0
 51 52  1  0  0  0
 51124  1  0  0  0
 51125  1  0  0  0
 52126  1  0  0  0
 52127  1  0  0  0
 53 54  1  0  0  0
 54 55  2  0  0  0
 54128  1  0  0  0
 55 57  1  0  0  0
 55129  1  0  0  0
 56 69  2  0  0  0
 57 58  2  0  0  0
 57130  1  0  0  0
 58131  1  0  0  0
 59 60  1  0  0  0
 59 61  1  0  0  0
 59 62  1  0  0  0
 60132  1  0  0  0
 60133  1  0  0  0
 60134  1  0  0  0
 61135  1  0  0  0
 61136  1  0  0  0
 61137  1  0  0  0
 62138  1  0  0  0
 62139  1  0  0  0
 62140  1  0  0  0
 63 65  1  0  0  0
 63141  1  0  0  0
 63142  1  0  0  0
 63143  1  0  0  0
 64144  1  0  0  0
 65145  1  0  0  0
 68 81  1  0  0  0
 71 72  2  0  0  0
 71 73  1  0  0  0
 71146  1  0  0  0
 72 74  1  0  0  0
 72147  1  0  0  0
 73 75  2  0  0  0
 73 80  1  0  0  0
 74 76  2  0  0  0
 74 83  1  0  0  0
 75 76  1  0  0  0
 75 84  1  0  0  0
 76 86  1  0  0  0
 77 78  1  0  0  0
 77 81  1  0  0  0
 77148  1  0  0  0
 77149  1  0  0  0
 78 85  1  0  0  0
 78150  1  0  0  0
 78151  1  0  0  0
 79 81  1  0  0  0
 79 85  1  0  0  0
 79152  1  0  0  0
 79153  1  0  0  0
 80 82  1  0  0  0
 80 84  1  0  0  0
 80154  1  0  0  0
 81155  1  0  0  0
 82156  1  0  0  0
 82157  1  0  0  0
 82158  1  0  0  0
 83159  1  0  0  0
 83160  1  0  0  0
 83 85  1  0  0  0
 85161  1  0  0  0
M  CHG  1  85   1
M  ISO  4   1 100  68 101  81 101  84 100
M  END
> <chiral flag>
0

> <version>
0

> <s_m_source_file>
/data/baiqing/PycharmProjects/Reinvent-master-3.2/result/LINK_invent/BTK/process_docking_weight1_custom_sum_contain_oxygen_bond_distance_aromatic_linkinvent_7_9_3/rearranged_h_0151.sdf

> <i_m_source_file_index>
8

> <r_mmod_Potential_Energy-OPLS-2005>
725.449584960938

> <r_mmod_Stretch_Energy-OPLS-2005>
146.219848632812

> <r_mmod_Bend_Energy-OPLS-2005>
634.513854980469

> <r_mmod_Torsional_Energy-OPLS-2005>
349.578704833984

> <r_mmod_Improper_Torsional_Energy-OPLS-2005>
29.5508117675781

> <r_mmod_Van_der_Waal_Energy-OPLS-2005>
132.143936157227

> <r_mmod_Electrostatic_Energy-OPLS-2005>
-254.18391418457

> <r_mmod_Solvation_Energy-OPLS-2005>
-427.118286132812

> <b_mmod_Minimization_Converged-OPLS-2005>
0

> <r_mmod_RMS_Derivative-OPLS-2005>
4.72061347961426

$$$$
8
                    3D
 Structure written by MMmdl.
163172  0  0  1  0            999 V2000
  -30.6680  -14.5659   20.4999 C   0  0  0  0  0  0
  -30.4178  -12.3465   19.4478 C   0  0  0  0  0  0
  -29.4982  -12.4971   18.2176 C   0  0  0  0  0  0
  -28.0192  -12.3498   18.6300 C   0  0  0  0  0  0
  -27.6487  -13.2188   19.8616 C   0  0  2  0  0  0
  -28.6910  -13.0789   20.9921 C   0  0  0  0  0  0
  -25.2531  -13.8188   20.5687 C   0  0  0  0  0  0
  -24.1797  -13.0442   20.9184 C   0  0  0  0  0  0
  -24.6375  -11.6914   20.8729 C   0  0  0  0  0  0
  -23.9063  -10.4294   21.0409 C   0  0  0  0  0  0
  -24.3618   -9.4208   21.9182 C   0  0  0  0  0  0
  -23.6294   -8.2237   22.0748 C   0  0  0  0  0  0
  -22.4275   -8.0277   21.3542 C   0  0  0  0  0  0
  -21.9918   -9.0250   20.4642 C   0  0  0  0  0  0
  -22.7241  -10.2129   20.3054 C   0  0  0  0  0  0
  -21.6853   -6.0734   22.5275 C   0  0  0  0  0  0
  -21.4010   -6.5638   23.8202 C   0  0  0  0  0  0
  -21.3664   -5.6793   24.9165 C   0  0  0  0  0  0
  -21.6052   -4.3057   24.7227 C   0  0  0  0  0  0
  -21.8818   -3.8152   23.4347 C   0  0  0  0  0  0
  -21.9186   -4.6962   22.3402 C   0  0  0  0  0  0
  -22.7817  -13.5223   21.1873 C   0  0  0  0  0  0
  -22.1659   -4.2149   21.0982 F   0  0  0  0  0  0
  -21.5637   -3.4543   25.7741 F   0  0  0  0  0  0
  -30.0086  -13.3753   20.4178 N   0  0  0  0  0  0
  -26.2951  -12.9375   20.3324 N   0  0  0  0  0  0
  -25.9297  -11.6524   20.5753 N   0  0  0  0  0  0
  -22.0469  -12.8195   22.0423 N   0  0  0  0  0  0
  -25.4311  -15.1901   20.4129 N   0  0  0  0  0  0
  -31.8603  -14.6666   20.1899 O   0  0  0  0  0  0
  -21.6642   -6.8876   21.4234 O   0  0  0  0  0  0
  -22.3501  -14.5536   20.6733 O   0  0  0  0  0  0
  -24.6168  -31.8659   23.2081 C   0  0  0  0  0  0
  -25.9055  -32.4809   23.8382 C   0  0  1  0  0  0
  -27.2184  -27.3714   20.1244 C   0  0  0  0  0  0
  -25.5911  -33.8607   24.2318 N   0  0  0  0  0  0
  -23.4062  -30.4903   21.5481 C   0  0  2  0  0  0
  -24.8520  -28.9484   20.1146 C   0  0  0  0  0  0
  -22.7428  -29.4649   22.4969 C   0  0  0  0  0  0
  -18.0269  -28.1379   22.8490 C   0  0  0  0  0  0
  -24.1491  -36.7305   23.2635 C   0  0  0  0  0  0
  -25.9407  -30.8110   21.3733 C   0  0  0  0  0  0
  -26.0121  -29.4381   20.7279 C   0  0  0  0  0  0
  -27.1947  -28.6554   20.7326 C   0  0  0  0  0  0
  -26.0482  -26.9281   19.4703 C   0  0  0  0  0  0
  -24.8672  -27.6948   19.4813 C   0  0  0  0  0  0
  -23.6191  -29.8240   20.1619 C   0  0  0  0  0  0
  -25.4105  -36.3103   24.0344 C   0  0  1  0  0  0
  -20.5865  -28.3669   23.1309 C   0  0  2  0  0  0
  -20.6762  -26.9404   22.5413 C   0  0  0  0  0  0
  -19.5746  -26.6390   21.5204 C   0  0  0  0  0  0
  -18.1923  -26.7927   22.1611 C   0  0  0  0  0  0
  -19.1519  -28.8834   23.2898 C   0  0  0  0  0  0
  -18.9447  -30.1441   23.8915 C   0  0  0  0  0  0
  -17.6457  -30.6586   24.0548 C   0  0  0  0  0  0
  -25.9043  -34.9472   23.5122 C   0  0  0  0  0  0
  -16.5337  -29.9091   23.6324 C   0  0  0  0  0  0
  -16.7257  -28.6494   23.0351 C   0  0  0  0  0  0
  -26.4478  -31.6592   25.0724 C   0  0  0  0  0  0
  -25.3747  -31.3704   26.1478 C   0  0  0  0  0  0
  -27.0294  -30.3021   24.6124 C   0  0  0  0  0  0
  -27.6066  -32.4302   25.7482 C   0  0  0  0  0  0
  -27.5589  -37.1792   24.8455 C   0  0  0  0  0  0
  -21.4148  -29.3040   22.3718 N   0  0  0  0  0  0
  -26.4282  -37.3801   23.9433 N   0  0  0  0  0  0
  -24.6732  -31.0726   22.1003 N   0  0  0  0  0  0
  -23.4194  -28.8186   23.3004 O   0  0  0  0  0  0
  -28.3879  -26.6175   20.1030 O   0  0  0  0  0  0
  -26.5604  -34.8927   22.4689 O   0  0  0  0  0  0
  -23.5353  -32.1433   23.7447 O   0  0  0  0  0  0
  -29.7596  -24.6473   20.4292 C   0  0  0  0  0  0
  -29.9033  -23.2658   20.7006 C   0  0  0  0  0  0
  -28.7456  -22.4722   20.9120 C   0  0  0  0  0  0
  -27.4987  -23.1488   20.8072 C   0  0  0  0  0  0
  -28.4863  -25.2418   20.3724 C   0  0  0  0  0  0
  -28.8558  -19.9211   20.1557 C   0  0  0  0  0  0
  -28.7424  -17.5668   19.3379 C   0  0  0  0  0  0
  -29.1369  -17.9032   21.7024 C   0  0  0  0  0  0
  -29.8395  -16.4801   19.3194 C   0  0  0  0  0  0
  -30.0792  -16.6411   21.6940 C   0  0  0  0  0  0
  -31.3000  -22.6763   20.7767 C   0  0  0  0  0  0
  -26.1793  -22.4170   20.9713 C   0  0  0  0  0  0
  -28.8491  -20.9608   21.3178 C   0  0  0  0  0  0
  -27.3783  -24.4840   20.5677 N   0  0  0  0  0  0
  -28.9826  -18.5700   20.3910 N   0  0  0  0  0  0
  -29.8936  -15.6961   20.5668 N   0  0  0  0  0  0
  -28.7109  -20.3595   19.0089 O   0  0  0  0  0  0
  -31.4647  -12.4417   19.1519 H   0  0  0  0  0  0
  -30.3172  -11.3523   19.8864 H   0  0  0  0  0  0
  -29.7515  -11.7542   17.4597 H   0  0  0  0  0  0
  -29.6576  -13.4698   17.7517 H   0  0  0  0  0  0
  -27.8460  -11.2974   18.8557 H   0  0  0  0  0  0
  -27.3657  -12.5931   17.7920 H   0  0  0  0  0  0
  -27.6693  -14.2544   19.5218 H   0  0  0  0  0  0
  -28.6774  -12.0725   21.4137 H   0  0  0  0  0  0
  -28.4591  -13.7597   21.8129 H   0  0  0  0  0  0
  -25.2764   -9.5691   22.4748 H   0  0  0  0  0  0
  -24.0009   -7.4638   22.7468 H   0  0  0  0  0  0
  -21.0849   -8.8770   19.8958 H   0  0  0  0  0  0
  -22.3698  -10.9663   19.6163 H   0  0  0  0  0  0
  -21.1998   -7.6145   23.9702 H   0  0  0  0  0  0
  -21.1494   -6.0528   25.9069 H   0  0  0  0  0  0
  -22.0595   -2.7616   23.2842 H   0  0  0  0  0  0
  -22.4093  -11.9837   22.4766 H   0  0  0  0  0  0
  -21.1101  -13.1230   22.2683 H   0  0  0  0  0  0
  -24.6770  -15.8591   20.5286 H   0  0  0  0  0  0
  -26.3033  -15.6190   20.1343 H   0  0  0  0  0  0
  -26.7116  -32.5495   23.1128 H   0  0  0  0  0  0
  -25.0096  -33.9765   25.0485 H   0  0  0  0  0  0
  -22.6956  -31.3081   21.4076 H   0  0  0  0  0  0
  -23.3770  -35.9615   23.3263 H   0  0  0  0  0  0
  -24.3600  -36.8953   22.2057 H   0  0  0  0  0  0
  -23.7223  -37.6491   23.6668 H   0  0  0  0  0  0
  -26.0629  -31.5702   20.5994 H   0  0  0  0  0  0
  -26.8271  -30.8666   21.9933 H   0  0  0  0  0  0
  -28.0896  -29.0309   21.2093 H   0  0  0  0  0  0
  -26.0426  -25.9776   18.9564 H   0  0  0  0  0  0
  -23.9812  -27.3193   18.9882 H   0  0  0  0  0  0
  -23.7368  -30.5999   19.4047 H   0  0  0  0  0  0
  -22.7425  -29.2485   19.8593 H   0  0  0  0  0  0
  -25.1278  -36.1955   25.0832 H   0  0  0  0  0  0
  -20.9955  -28.3230   24.1431 H   0  0  0  0  0  0
  -20.5661  -26.2274   23.3601 H   0  0  0  0  0  0
  -21.6627  -26.7447   22.1206 H   0  0  0  0  0  0
  -19.6913  -25.6298   21.1245 H   0  0  0  0  0  0
  -19.6705  -27.3189   20.6723 H   0  0  0  0  0  0
  -17.4201  -26.6672   21.4002 H   0  0  0  0  0  0
  -18.0329  -26.0065   22.9002 H   0  0  0  0  0  0
  -19.7923  -30.7233   24.2320 H   0  0  0  0  0  0
  -17.5011  -31.6276   24.5138 H   0  0  0  0  0  0
  -15.5341  -30.2990   23.7654 H   0  0  0  0  0  0
  -15.8652  -28.0815   22.7086 H   0  0  0  0  0  0
  -24.5904  -30.7076   25.7805 H   0  0  0  0  0  0
  -24.8958  -32.2859   26.4955 H   0  0  0  0  0  0
  -25.8103  -30.8839   27.0215 H   0  0  0  0  0  0
  -26.2821  -29.6799   24.1187 H   0  0  0  0  0  0
  -27.4048  -29.7254   25.4586 H   0  0  0  0  0  0
  -27.8683  -30.4309   23.9283 H   0  0  0  0  0  0
  -27.2704  -33.3602   26.2072 H   0  0  0  0  0  0
  -28.3871  -32.6851   25.0305 H   0  0  0  0  0  0
  -28.0746  -31.8419   26.5383 H   0  0  0  0  0  0
  -28.2563  -38.0132   24.7563 H   0  0  0  0  0  0
  -28.1133  -36.2668   24.6193 H   0  0  0  0  0  0
  -27.2332  -37.1341   25.8861 H   0  0  0  0  0  0
  -20.9324  -29.8745   21.6920 H   0  0  0  0  0  0
  -26.0170  -38.2876   24.1450 H   0  0  0  0  0  0
  -30.6305  -25.2679   20.2696 H   0  0  0  0  0  0
  -27.7628  -17.1130   19.4934 H   0  0  0  0  0  0
  -28.7037  -18.0193   18.3465 H   0  0  0  0  0  0
  -29.5047  -18.6005   22.4553 H   0  0  0  0  0  0
  -28.1422  -17.6059   22.0383 H   0  0  0  0  0  0
  -30.8135  -16.9366   19.1235 H   0  0  0  0  0  0
  -29.6417  -15.8097   18.4799 H   0  0  0  0  0  0
  -29.9487  -16.1001   22.6326 H   0  0  0  0  0  0
  -31.1167  -16.9816   21.6895 H   0  0  0  0  0  0
  -32.0299  -23.3345   20.3043 H   0  0  0  0  0  0
  -31.3521  -21.7142   20.2676 H   0  0  0  0  0  0
  -31.5975  -22.5377   21.8164 H   0  0  0  0  0  0
  -26.1899  -21.4690   20.4336 H   0  0  0  0  0  0
  -25.3515  -23.0058   20.5744 H   0  0  0  0  0  0
  -25.9778  -22.2183   22.0236 H   0  0  0  0  0  0
  -28.0250  -20.7118   21.9861 H   0  0  0  0  0  0
  -29.7497  -20.8174   21.9130 H   0  0  0  0  0  0
  1 25  1  0  0  0
  1 30  2  0  0  0
  1 86  1  0  0  0
  2  3  1  0  0  0
  2 25  1  0  0  0
  2 88  1  0  0  0
  2 89  1  0  0  0
  3  4  1  0  0  0
  3 90  1  0  0  0
  3 91  1  0  0  0
  4  5  1  0  0  0
  4 92  1  0  0  0
  4 93  1  0  0  0
  5  6  1  0  0  0
  5 26  1  0  0  0
  5 94  1  0  0  0
  6 25  1  0  0  0
  6 95  1  0  0  0
  6 96  1  0  0  0
  7  8  2  0  0  0
  7 26  1  0  0  0
  7 29  1  0  0  0
  8  9  1  0  0  0
  8 22  1  0  0  0
  9 10  1  0  0  0
  9 27  2  0  0  0
 10 11  2  0  0  0
 10 15  1  0  0  0
 11 12  1  0  0  0
 11 97  1  0  0  0
 12 13  2  0  0  0
 12 98  1  0  0  0
 13 14  1  0  0  0
 13 31  1  0  0  0
 14 15  2  0  0  0
 14 99  1  0  0  0
 15100  1  0  0  0
 16 17  2  0  0  0
 16 21  1  0  0  0
 16 31  1  0  0  0
 17 18  1  0  0  0
 17101  1  0  0  0
 18 19  2  0  0  0
 18102  1  0  0  0
 19 20  1  0  0  0
 19 24  1  0  0  0
 20 21  2  0  0  0
 20103  1  0  0  0
 21 23  1  0  0  0
 22 28  1  0  0  0
 22 32  2  0  0  0
 26 27  1  0  0  0
 28104  1  0  0  0
 28105  1  0  0  0
 29106  1  0  0  0
 29107  1  0  0  0
 33 34  1  0  0  0
 33 66  1  0  0  0
 33 70  2  0  0  0
 34 36  1  0  0  0
 34 59  1  0  0  0
 34108  1  0  0  0
 35 44  2  0  0  0
 35 45  1  0  0  0
 35 68  1  0  0  0
 36 56  1  0  0  0
 36109  1  0  0  0
 37 39  1  0  0  0
 37 47  1  0  0  0
 37 66  1  0  0  0
 37110  1  0  0  0
 38 43  2  0  0  0
 38 46  1  0  0  0
 38 47  1  0  0  0
 39 64  1  0  0  0
 39 67  2  0  0  0
 40 52  1  0  0  0
 40 53  2  0  0  0
 40 58  1  0  0  0
 41111  1  0  0  0
 41112  1  0  0  0
 41113  1  0  0  0
 41 48  1  0  0  0
 42 43  1  0  0  0
 42 66  1  0  0  0
 42114  1  0  0  0
 42115  1  0  0  0
 43 44  1  0  0  0
 44116  1  0  0  0
 45 46  2  0  0  0
 45117  1  0  0  0
 46118  1  0  0  0
 47119  1  0  0  0
 47120  1  0  0  0
 48 56  1  0  0  0
 48 65  1  0  0  0
 48121  1  0  0  0
 49 50  1  0  0  0
 49 53  1  0  0  0
 49 64  1  0  0  0
 49122  1  0  0  0
 50 51  1  0  0  0
 50123  1  0  0  0
 50124  1  0  0  0
 51 52  1  0  0  0
 51125  1  0  0  0
 51126  1  0  0  0
 52127  1  0  0  0
 52128  1  0  0  0
 53 54  1  0  0  0
 54 55  2  0  0  0
 54129  1  0  0  0
 55 57  1  0  0  0
 55130  1  0  0  0
 56 69  2  0  0  0
 57 58  2  0  0  0
 57131  1  0  0  0
 58132  1  0  0  0
 59 60  1  0  0  0
 59 61  1  0  0  0
 59 62  1  0  0  0
 60133  1  0  0  0
 60134  1  0  0  0
 60135  1  0  0  0
 61136  1  0  0  0
 61137  1  0  0  0
 61138  1  0  0  0
 62139  1  0  0  0
 62140  1  0  0  0
 62141  1  0  0  0
 63 65  1  0  0  0
 63142  1  0  0  0
 63143  1  0  0  0
 63144  1  0  0  0
 64145  1  0  0  0
 65146  1  0  0  0
 68 75  1  0  0  0
 71 72  2  0  0  0
 71 75  1  0  0  0
 71147  1  0  0  0
 72 73  1  0  0  0
 72 81  1  0  0  0
 73 74  2  0  0  0
 73 83  1  0  0  0
 74 82  1  0  0  0
 74 84  1  0  0  0
 75 84  2  0  0  0
 76 83  1  0  0  0
 76 85  1  0  0  0
 76 87  2  0  0  0
 77 79  1  0  0  0
 77 85  1  0  0  0
 77148  1  0  0  0
 77149  1  0  0  0
 78 80  1  0  0  0
 78 85  1  0  0  0
 78150  1  0  0  0
 78151  1  0  0  0
 79 86  1  0  0  0
 79152  1  0  0  0
 79153  1  0  0  0
 80 86  1  0  0  0
 80154  1  0  0  0
 80155  1  0  0  0
 81156  1  0  0  0
 81157  1  0  0  0
 81158  1  0  0  0
 82159  1  0  0  0
 82160  1  0  0  0
 82161  1  0  0  0
 83162  1  0  0  0
 83163  1  0  0  0
M  ISO  4   1 100  68 101  75 101  86 100
M  END
> <chiral flag>
0

> <version>
0

> <s_m_source_file>
/data/baiqing/PycharmProjects/Reinvent-master-3.2/result/LINK_invent/BTK/process_docking_weight1_custom_sum_contain_oxygen_bond_distance_aromatic_linkinvent_7_9_3/rearranged_h_0151.sdf

> <i_m_source_file_index>
9

> <r_mmod_Potential_Energy-OPLS-2005>
107.393226623535

> <r_mmod_Stretch_Energy-OPLS-2005>
59.4305839538574

> <r_mmod_Bend_Energy-OPLS-2005>
135.398239135742

> <r_mmod_Torsional_Energy-OPLS-2005>
382.030700683594

> <r_mmod_Improper_Torsional_Energy-OPLS-2005>
15.1906719207764

> <r_mmod_Van_der_Waal_Energy-OPLS-2005>
156.682540893555

> <r_mmod_Electrostatic_Energy-OPLS-2005>
-438.284332275391

> <r_mmod_Solvation_Energy-OPLS-2005>
-232.708023071289

> <b_mmod_Minimization_Converged-OPLS-2005>
0

> <r_mmod_RMS_Derivative-OPLS-2005>
2.0916268825531

$$$$
9
                    3D
 Structure written by MMmdl.
156165  0  0  1  0            999 V2000
  -30.6589  -14.6028   20.5189 C   0  0  0  0  0  0
  -30.4259  -12.3778   19.4451 C   0  0  0  0  0  0
  -29.4993  -12.5003   18.2175 C   0  0  0  0  0  0
  -28.0232  -12.3436   18.6327 C   0  0  0  0  0  0
  -27.6492  -13.2187   19.8593 C   0  0  2  0  0  0
  -28.6930  -13.0822   20.9889 C   0  0  0  0  0  0
  -25.2539  -13.8179   20.5684 C   0  0  0  0  0  0
  -24.1812  -13.0440   20.9189 C   0  0  0  0  0  0
  -24.6386  -11.6912   20.8743 C   0  0  0  0  0  0
  -23.9059  -10.4292   21.0409 C   0  0  0  0  0  0
  -24.3613   -9.4208   21.9186 C   0  0  0  0  0  0
  -23.6289   -8.2244   22.0756 C   0  0  0  0  0  0
  -22.4272   -8.0281   21.3545 C   0  0  0  0  0  0
  -21.9905   -9.0255   20.4649 C   0  0  0  0  0  0
  -22.7234  -10.2133   20.3057 C   0  0  0  0  0  0
  -21.6851   -6.0734   22.5278 C   0  0  0  0  0  0
  -21.4015   -6.5637   23.8212 C   0  0  0  0  0  0
  -21.3661   -5.6791   24.9172 C   0  0  0  0  0  0
  -21.6045   -4.3055   24.7224 C   0  0  0  0  0  0
  -21.8820   -3.8144   23.4346 C   0  0  0  0  0  0
  -21.9193   -4.6961   22.3400 C   0  0  0  0  0  0
  -22.7837  -13.5233   21.1854 C   0  0  0  0  0  0
  -22.1662   -4.2147   21.0978 F   0  0  0  0  0  0
  -21.5628   -3.4538   25.7736 F   0  0  0  0  0  0
  -30.0063  -13.4065   20.4160 N   0  0  0  0  0  0
  -26.2965  -12.9364   20.3305 N   0  0  0  0  0  0
  -25.9313  -11.6517   20.5756 N   0  0  0  0  0  0
  -22.0479  -12.8227   22.0411 N   0  0  0  0  0  0
  -25.4241  -15.1902   20.4104 N   0  0  0  0  0  0
  -31.8291  -14.7304   20.1514 O   0  0  0  0  0  0
  -21.6639   -6.8876   21.4240 O   0  0  0  0  0  0
  -22.3524  -14.5539   20.6701 O   0  0  0  0  0  0
  -24.6228  -31.8616   23.2035 C   0  0  0  0  0  0
  -25.9090  -32.4786   23.8355 C   0  0  1  0  0  0
  -27.2252  -27.3418   20.1097 C   0  0  0  0  0  0
  -25.5919  -33.8586   24.2289 N   0  0  0  0  0  0
  -23.4140  -30.4849   21.5463 C   0  0  2  0  0  0
  -24.8576  -28.9382   20.1148 C   0  0  0  0  0  0
  -22.7451  -29.4632   22.4956 C   0  0  0  0  0  0
  -18.0280  -28.1376   22.8490 C   0  0  0  0  0  0
  -24.1491  -36.7299   23.2640 C   0  0  0  0  0  0
  -25.9513  -30.7997   21.3684 C   0  0  0  0  0  0
  -26.0241  -29.4274   20.7131 C   0  0  0  0  0  0
  -27.2084  -28.6400   20.7003 C   0  0  0  0  0  0
  -26.0298  -26.8880   19.5069 C   0  0  0  0  0  0
  -24.8605  -27.6727   19.5067 C   0  0  0  0  0  0
  -23.6262  -29.8176   20.1618 C   0  0  0  0  0  0
  -25.4113  -36.3087   24.0333 C   0  0  1  0  0  0
  -20.5875  -28.3679   23.1297 C   0  0  2  0  0  0
  -20.6772  -26.9408   22.5417 C   0  0  0  0  0  0
  -19.5751  -26.6378   21.5216 C   0  0  0  0  0  0
  -18.1930  -26.7919   22.1626 C   0  0  0  0  0  0
  -19.1531  -28.8844   23.2888 C   0  0  0  0  0  0
  -18.9456  -30.1446   23.8900 C   0  0  0  0  0  0
  -17.6458  -30.6581   24.0562 C   0  0  0  0  0  0
  -25.9045  -34.9457   23.5112 C   0  0  0  0  0  0
  -16.5349  -29.9083   23.6322 C   0  0  0  0  0  0
  -16.7269  -28.6498   23.0348 C   0  0  0  0  0  0
  -26.4490  -31.6581   25.0712 C   0  0  0  0  0  0
  -25.3739  -31.3706   26.1450 C   0  0  0  0  0  0
  -27.0329  -30.3012   24.6133 C   0  0  0  0  0  0
  -27.6053  -32.4311   25.7482 C   0  0  0  0  0  0
  -27.5577  -37.1809   24.8469 C   0  0  0  0  0  0
  -21.4170  -29.3038   22.3698 N   0  0  0  0  0  0
  -26.4295  -37.3776   23.9403 N   0  0  0  0  0  0
  -24.6816  -31.0650   22.0969 N   0  0  0  0  0  0
  -23.4190  -28.8176   23.3027 O   0  0  0  0  0  0
  -28.3899  -26.5694   20.1370 O   0  0  0  0  0  0
  -26.5612  -34.8921   22.4677 O   0  0  0  0  0  0
  -23.5402  -32.1407   23.7382 O   0  0  0  0  0  0
  -28.9362  -21.3838   20.7247 C   0  0  0  0  0  0
  -26.7542  -20.2818   21.2138 C   0  0  0  0  0  0
  -28.2022  -22.6072   20.7966 C   0  0  0  0  0  0
  -26.0483  -21.5125   21.3201 C   0  0  0  0  0  0
  -26.8159  -22.6570   21.1215 C   0  0  0  0  0  0
  -28.1616  -20.1769   20.9539 C   0  0  0  0  0  0
  -28.2241  -24.1373   20.9841 C   0  0  1  0  0  0
  -24.5817  -21.5829   21.6901 C   0  0  0  0  0  0
  -28.4117  -25.1359   19.7903 C   0  0  0  0  0  0
  -30.4379  -17.0757   21.1637 C   0  0  0  0  0  0
  -29.8014  -18.3304   20.4320 C   0  0  0  0  0  0
  -29.9238  -15.6929   20.8865 N   0  0  0  0  0  0
  -26.7498  -24.0229   21.2818 O   0  0  0  0  0  0
  -28.6288  -18.8584   21.0844 O   0  0  0  0  0  0
  -31.4687  -12.4896   19.1430 H   0  0  0  0  0  0
  -30.3487  -11.3849   19.8908 H   0  0  0  0  0  0
  -29.7589  -11.7483   17.4714 H   0  0  0  0  0  0
  -29.6461  -13.4700   17.7392 H   0  0  0  0  0  0
  -27.8589  -11.2911   18.8671 H   0  0  0  0  0  0
  -27.3679  -12.5726   17.7915 H   0  0  0  0  0  0
  -27.6670  -14.2530   19.5154 H   0  0  0  0  0  0
  -28.6988  -12.0677   21.3900 H   0  0  0  0  0  0
  -28.4456  -13.7350   21.8274 H   0  0  0  0  0  0
  -25.2758   -9.5683   22.4760 H   0  0  0  0  0  0
  -23.9998   -7.4635   22.7477 H   0  0  0  0  0  0
  -21.0835   -8.8775   19.8955 H   0  0  0  0  0  0
  -22.3694  -10.9673   19.6167 H   0  0  0  0  0  0
  -21.2010   -7.6146   23.9713 H   0  0  0  0  0  0
  -21.1482   -6.0521   25.9075 H   0  0  0  0  0  0
  -22.0598   -2.7606   23.2846 H   0  0  0  0  0  0
  -22.4094  -11.9891   22.4800 H   0  0  0  0  0  0
  -21.1101  -13.1264   22.2620 H   0  0  0  0  0  0
  -24.6566  -15.8437   20.5208 H   0  0  0  0  0  0
  -26.2747  -15.6313   20.0847 H   0  0  0  0  0  0
  -26.7153  -32.5462   23.1100 H   0  0  0  0  0  0
  -25.0070  -33.9734   25.0436 H   0  0  0  0  0  0
  -22.7064  -31.3045   21.4042 H   0  0  0  0  0  0
  -23.3746  -35.9641   23.3315 H   0  0  0  0  0  0
  -24.3576  -36.8903   22.2051 H   0  0  0  0  0  0
  -23.7259  -37.6512   23.6651 H   0  0  0  0  0  0
  -26.0763  -31.5625   20.5988 H   0  0  0  0  0  0
  -26.8342  -30.8504   21.9937 H   0  0  0  0  0  0
  -28.1083  -29.0169   21.1665 H   0  0  0  0  0  0
  -25.9606  -25.9206   19.0366 H   0  0  0  0  0  0
  -23.9623  -27.2884   19.0432 H   0  0  0  0  0  0
  -23.7460  -30.5931   19.4042 H   0  0  0  0  0  0
  -22.7460  -29.2467   19.8609 H   0  0  0  0  0  0
  -25.1295  -36.1946   25.0828 H   0  0  0  0  0  0
  -20.9966  -28.3258   24.1421 H   0  0  0  0  0  0
  -20.5680  -26.2292   23.3615 H   0  0  0  0  0  0
  -21.6642  -26.7450   22.1203 H   0  0  0  0  0  0
  -19.6923  -25.6289   21.1249 H   0  0  0  0  0  0
  -19.6691  -27.3188   20.6745 H   0  0  0  0  0  0
  -17.4201  -26.6665   21.4026 H   0  0  0  0  0  0
  -18.0328  -26.0058   22.9017 H   0  0  0  0  0  0
  -19.7937  -30.7255   24.2272 H   0  0  0  0  0  0
  -17.5016  -31.6262   24.5162 H   0  0  0  0  0  0
  -15.5350  -30.2988   23.7639 H   0  0  0  0  0  0
  -15.8669  -28.0821   22.7060 H   0  0  0  0  0  0
  -24.5917  -30.7048   25.7784 H   0  0  0  0  0  0
  -24.8928  -32.2869   26.4881 H   0  0  0  0  0  0
  -25.8084  -30.8886   27.0216 H   0  0  0  0  0  0
  -26.2891  -29.6762   24.1179 H   0  0  0  0  0  0
  -27.4069  -29.7263   25.4612 H   0  0  0  0  0  0
  -27.8739  -30.4307   23.9317 H   0  0  0  0  0  0
  -27.2663  -33.3604   26.2067 H   0  0  0  0  0  0
  -28.3861  -32.6877   25.0311 H   0  0  0  0  0  0
  -28.0722  -31.8431   26.5391 H   0  0  0  0  0  0
  -28.2611  -38.0087   24.7483 H   0  0  0  0  0  0
  -28.1055  -36.2617   24.6338 H   0  0  0  0  0  0
  -27.2289  -37.1511   25.8871 H   0  0  0  0  0  0
  -20.9339  -29.8765   21.6916 H   0  0  0  0  0  0
  -26.0181  -38.2859   24.1380 H   0  0  0  0  0  0
  -30.0104  -21.3735   20.6102 H   0  0  0  0  0  0
  -26.2060  -19.3676   21.3963 H   0  0  0  0  0  0
  -28.7991  -24.4027   21.8723 H   0  0  0  0  0  0
  -24.2832  -20.7146   22.2779 H   0  0  0  0  0  0
  -23.9664  -21.6170   20.7910 H   0  0  0  0  0  0
  -24.3750  -22.4772   22.2793 H   0  0  0  0  0  0
  -27.7509  -24.8910   18.9619 H   0  0  0  0  0  0
  -29.4066  -24.9692   19.3780 H   0  0  0  0  0  0
  -30.3890  -17.2410   22.2404 H   0  0  0  0  0  0
  -31.5047  -17.0931   20.9345 H   0  0  0  0  0  0
  -29.5694  -18.0898   19.3943 H   0  0  0  0  0  0
  -30.5558  -19.1167   20.4013 H   0  0  0  0  0  0
  -28.9517  -15.5242   21.0990 H   0  0  0  0  0  0
  1 25  1  0  0  0
  1 30  2  0  0  0
  1 82  1  0  0  0
  2  3  1  0  0  0
  2 25  1  0  0  0
  2 85  1  0  0  0
  2 86  1  0  0  0
  3  4  1  0  0  0
  3 87  1  0  0  0
  3 88  1  0  0  0
  4  5  1  0  0  0
  4 89  1  0  0  0
  4 90  1  0  0  0
  5  6  1  0  0  0
  5 26  1  0  0  0
  5 91  1  0  0  0
  6 25  1  0  0  0
  6 92  1  0  0  0
  6 93  1  0  0  0
  7  8  2  0  0  0
  7 26  1  0  0  0
  7 29  1  0  0  0
  8  9  1  0  0  0
  8 22  1  0  0  0
  9 10  1  0  0  0
  9 27  2  0  0  0
 10 11  2  0  0  0
 10 15  1  0  0  0
 11 12  1  0  0  0
 11 94  1  0  0  0
 12 13  2  0  0  0
 12 95  1  0  0  0
 13 14  1  0  0  0
 13 31  1  0  0  0
 14 15  2  0  0  0
 14 96  1  0  0  0
 15 97  1  0  0  0
 16 17  2  0  0  0
 16 21  1  0  0  0
 16 31  1  0  0  0
 17 18  1  0  0  0
 17 98  1  0  0  0
 18 19  2  0  0  0
 18 99  1  0  0  0
 19 20  1  0  0  0
 19 24  1  0  0  0
 20 21  2  0  0  0
 20100  1  0  0  0
 21 23  1  0  0  0
 22 28  1  0  0  0
 22 32  2  0  0  0
 26 27  1  0  0  0
 28101  1  0  0  0
 28102  1  0  0  0
 29103  1  0  0  0
 29104  1  0  0  0
 33 34  1  0  0  0
 33 66  1  0  0  0
 33 70  2  0  0  0
 34 36  1  0  0  0
 34 59  1  0  0  0
 34105  1  0  0  0
 35 44  2  0  0  0
 35 45  1  0  0  0
 35 68  1  0  0  0
 36 56  1  0  0  0
 36106  1  0  0  0
 37 39  1  0  0  0
 37 47  1  0  0  0
 37 66  1  0  0  0
 37107  1  0  0  0
 38 43  2  0  0  0
 38 46  1  0  0  0
 38 47  1  0  0  0
 39 64  1  0  0  0
 39 67  2  0  0  0
 40 52  1  0  0  0
 40 53  2  0  0  0
 40 58  1  0  0  0
 41108  1  0  0  0
 41109  1  0  0  0
 41110  1  0  0  0
 41 48  1  0  0  0
 42 43  1  0  0  0
 42 66  1  0  0  0
 42111  1  0  0  0
 42112  1  0  0  0
 43 44  1  0  0  0
 44113  1  0  0  0
 45 46  2  0  0  0
 45114  1  0  0  0
 46115  1  0  0  0
 47116  1  0  0  0
 47117  1  0  0  0
 48 56  1  0  0  0
 48 65  1  0  0  0
 48118  1  0  0  0
 49 50  1  0  0  0
 49 53  1  0  0  0
 49 64  1  0  0  0
 49119  1  0  0  0
 50 51  1  0  0  0
 50120  1  0  0  0
 50121  1  0  0  0
 51 52  1  0  0  0
 51122  1  0  0  0
 51123  1  0  0  0
 52124  1  0  0  0
 52125  1  0  0  0
 53 54  1  0  0  0
 54 55  2  0  0  0
 54126  1  0  0  0
 55 57  1  0  0  0
 55127  1  0  0  0
 56 69  2  0  0  0
 57 58  2  0  0  0
 57128  1  0  0  0
 58129  1  0  0  0
 59 60  1  0  0  0
 59 61  1  0  0  0
 59 62  1  0  0  0
 60130  1  0  0  0
 60131  1  0  0  0
 60132  1  0  0  0
 61133  1  0  0  0
 61134  1  0  0  0
 61135  1  0  0  0
 62136  1  0  0  0
 62137  1  0  0  0
 62138  1  0  0  0
 63 65  1  0  0  0
 63139  1  0  0  0
 63140  1  0  0  0
 63141  1  0  0  0
 64142  1  0  0  0
 65143  1  0  0  0
 68 79  1  0  0  0
 71 73  2  0  0  0
 71 76  1  0  0  0
 71144  1  0  0  0
 72 74  1  0  0  0
 72 76  2  0  0  0
 72145  1  0  0  0
 73 75  1  0  0  0
 73 77  1  0  0  0
 74 75  2  0  0  0
 74 78  1  0  0  0
 75 83  1  0  0  0
 76 84  1  0  0  0
 77 79  1  0  0  0
 77 83  1  0  0  0
 77146  1  0  0  0
 78147  1  0  0  0
 78148  1  0  0  0
 78149  1  0  0  0
 79150  1  0  0  0
 79151  1  0  0  0
 80 81  1  0  0  0
 80 82  1  0  0  0
 80152  1  0  0  0
 80153  1  0  0  0
 81 84  1  0  0  0
 81154  1  0  0  0
 81155  1  0  0  0
 82156  1  0  0  0
M  ISO  4   1 100  68 101  79 101  82 100
M  END
> <chiral flag>
0

> <version>
0

> <s_m_source_file>
/data/baiqing/PycharmProjects/Reinvent-master-3.2/result/LINK_invent/BTK/process_docking_weight1_custom_sum_contain_oxygen_bond_distance_aromatic_linkinvent_7_9_3/rearranged_h_0151.sdf

> <i_m_source_file_index>
10

> <r_mmod_Potential_Energy-OPLS-2005>
375.305603027344

> <r_mmod_Stretch_Energy-OPLS-2005>
83.198974609375

> <r_mmod_Bend_Energy-OPLS-2005>
530.030883789062

> <r_mmod_Torsional_Energy-OPLS-2005>
222.389892578125

> <r_mmod_Improper_Torsional_Energy-OPLS-2005>
8.41689586639404

> <r_mmod_Van_der_Waal_Energy-OPLS-2005>
137.284149169922

> <r_mmod_Electrostatic_Energy-OPLS-2005>
-424.943389892578

> <r_mmod_Solvation_Energy-OPLS-2005>
-217.670181274414

> <b_mmod_Minimization_Converged-OPLS-2005>
0

> <r_mmod_RMS_Derivative-OPLS-2005>
0.56133109331131

$$$$
10
                    3D
 Structure written by MMmdl.
173182  0  0  1  0            999 V2000
  -30.8047  -14.5934   20.3902 C   0  0  0  0  0  0
  -30.4178  -12.3836   19.3777 C   0  0  0  0  0  0
  -29.4538  -12.4486   18.1813 C   0  0  0  0  0  0
  -27.9863  -12.2925   18.6395 C   0  0  0  0  0  0
  -27.6182  -13.1579   19.8771 C   0  0  2  0  0  0
  -28.7448  -13.1218   20.9471 C   0  0  0  0  0  0
  -25.2270  -13.7789   20.5635 C   0  0  0  0  0  0
  -24.1629  -13.0146   20.9368 C   0  0  0  0  0  0
  -24.6256  -11.6657   20.8997 C   0  0  0  0  0  0
  -23.8946  -10.4113   21.0544 C   0  0  0  0  0  0
  -24.3527   -9.4035   21.9282 C   0  0  0  0  0  0
  -23.6210   -8.2078   22.0773 C   0  0  0  0  0  0
  -22.4197   -8.0184   21.3540 C   0  0  0  0  0  0
  -21.9841   -9.0168   20.4646 C   0  0  0  0  0  0
  -22.7172  -10.2035   20.3108 C   0  0  0  0  0  0
  -21.6793   -6.0695   22.5288 C   0  0  0  0  0  0
  -21.3981   -6.5618   23.8221 C   0  0  0  0  0  0
  -21.3645   -5.6781   24.9186 C   0  0  0  0  0  0
  -21.6050   -4.3051   24.7245 C   0  0  0  0  0  0
  -21.8831   -3.8130   23.4371 C   0  0  0  0  0  0
  -21.9170   -4.6936   22.3418 C   0  0  0  0  0  0
  -22.7680  -13.5034   21.1938 C   0  0  0  0  0  0
  -22.1631   -4.2124   21.0997 F   0  0  0  0  0  0
  -21.5631   -3.4539   25.7766 F   0  0  0  0  0  0
  -30.0165  -13.4707   20.2808 N   0  0  0  0  0  0
  -26.2822  -12.8923   20.3721 N   0  0  0  0  0  0
  -25.9203  -11.6161   20.6205 N   0  0  0  0  0  0
  -22.0311  -12.8097   22.0536 N   0  0  0  0  0  0
  -25.3411  -15.1427   20.3283 N   0  0  0  0  0  0
  -32.0186  -14.4795   20.4532 O   0  0  0  0  0  0
  -21.6537   -6.8816   21.4242 O   0  0  0  0  0  0
  -22.3441  -14.5374   20.6778 O   0  0  0  0  0  0
  -24.6122  -31.8675   23.2069 C   0  0  0  0  0  0
  -25.9022  -32.4821   23.8368 C   0  0  1  0  0  0
  -27.2598  -27.4555   20.0976 C   0  0  0  0  0  0
  -25.5881  -33.8616   24.2321 N   0  0  0  0  0  0
  -23.4002  -30.4865   21.5462 C   0  0  2  0  0  0
  -24.8508  -28.9464   20.1162 C   0  0  0  0  0  0
  -22.7397  -29.4654   22.4991 C   0  0  0  0  0  0
  -18.0267  -28.1388   22.8496 C   0  0  0  0  0  0
  -24.1483  -36.7306   23.2640 C   0  0  0  0  0  0
  -25.9214  -30.8426   21.3496 C   0  0  0  0  0  0
  -26.0042  -29.4724   20.7082 C   0  0  0  0  0  0
  -27.2045  -28.7323   20.6980 C   0  0  0  0  0  0
  -26.0872  -26.9323   19.5032 C   0  0  0  0  0  0
  -24.8864  -27.6748   19.5127 C   0  0  0  0  0  0
  -23.6083  -29.8083   20.1634 C   0  0  0  0  0  0
  -25.4101  -36.3107   24.0344 C   0  0  1  0  0  0
  -20.5857  -28.3662   23.1335 C   0  0  2  0  0  0
  -20.6757  -26.9405   22.5418 C   0  0  0  0  0  0
  -19.5738  -26.6406   21.5207 C   0  0  0  0  0  0
  -18.1914  -26.7940   22.1619 C   0  0  0  0  0  0
  -19.1519  -28.8839   23.2917 C   0  0  0  0  0  0
  -18.9451  -30.1447   23.8926 C   0  0  0  0  0  0
  -17.6454  -30.6588   24.0577 C   0  0  0  0  0  0
  -25.9026  -34.9475   23.5134 C   0  0  0  0  0  0
  -16.5343  -29.9095   23.6330 C   0  0  0  0  0  0
  -16.7259  -28.6518   23.0337 C   0  0  0  0  0  0
  -26.4472  -31.6584   25.0673 C   0  0  0  0  0  0
  -25.3768  -31.3661   26.1442 C   0  0  0  0  0  0
  -27.0291  -30.3045   24.5985 C   0  0  0  0  0  0
  -27.6072  -32.4273   25.7432 C   0  0  0  0  0  0
  -27.5570  -37.1815   24.8475 C   0  0  0  0  0  0
  -21.4121  -29.3036   22.3746 N   0  0  0  0  0  0
  -26.4289  -37.3787   23.9406 N   0  0  0  0  0  0
  -24.6634  -31.0786   22.0953 N   0  0  0  0  0  0
  -23.4175  -28.8207   23.3037 O   0  0  0  0  0  0
  -28.4748  -26.8024   20.1187 O   0  0  0  0  0  0
  -26.5591  -34.8933   22.4698 O   0  0  0  0  0  0
  -23.5324  -32.1412   23.7489 O   0  0  0  0  0  0
  -30.9869  -22.1837   20.8407 C   0  0  0  0  0  0
  -30.1767  -21.6952   18.6201 C   0  0  0  0  0  0
  -30.4662  -19.8468   20.2317 C   0  0  0  0  0  0
  -30.9586  -20.8041   21.1681 C   0  0  0  0  0  0
  -30.5500  -22.6447   19.5788 C   0  0  0  0  0  0
  -30.1113  -20.3265   18.9315 C   0  0  0  0  0  0
  -29.1102  -16.1285   19.3593 C   0  0  0  0  0  0
  -30.1179  -18.3960   20.6737 C   0  0  2  0  0  0
  -31.0574  -17.1643   20.2361 C   0  0  2  0  0  0
  -28.1385  -16.9047   20.2727 C   0  0  1  0  0  0
  -31.4293  -20.3983   22.5572 C   0  0  0  0  0  0
  -27.9019  -16.3712   21.7047 C   0  0  0  0  0  0
  -33.1497  -16.5473   18.7295 C   0  0  0  0  0  0
  -31.9865  -17.5019   19.0247 C   0  0  0  0  0  0
  -28.5789  -25.4305   19.7387 C   0  0  0  0  0  0
  -29.9916  -24.9312   20.1324 C   0  0  0  0  0  0
  -30.3159  -15.8538   20.1088 N   0  0  0  0  0  0
  -28.6701  -18.2613   20.3853 N   0  3  0  0  0  0
  -30.4956  -23.9693   19.2017 O   0  0  0  0  0  0
  -29.4603  -19.3147   17.6898 Cl  0  0  0  0  0  0
  -31.4475  -12.4859   19.0292 H   0  0  0  0  0  0
  -30.3630  -11.4148   19.8761 H   0  0  0  0  0  0
  -29.6992  -11.6648   17.4634 H   0  0  0  0  0  0
  -29.5801  -13.3929   17.6511 H   0  0  0  0  0  0
  -27.8346  -11.2399   18.8821 H   0  0  0  0  0  0
  -27.3088  -12.5097   17.8133 H   0  0  0  0  0  0
  -27.4815  -14.1504   19.5205 H   0  0  0  0  0  0
  -28.8119  -12.1167   21.3668 H   0  0  0  0  0  0
  -28.5659  -13.7615   21.8038 H   0  0  0  0  0  0
  -25.2664   -9.5483   22.4885 H   0  0  0  0  0  0
  -23.9905   -7.4434   22.7457 H   0  0  0  0  0  0
  -21.0790   -8.8712   19.8924 H   0  0  0  0  0  0
  -22.3679  -10.9604   19.6226 H   0  0  0  0  0  0
  -21.1954   -7.6122   23.9721 H   0  0  0  0  0  0
  -21.1451   -6.0509   25.9091 H   0  0  0  0  0  0
  -22.0622   -2.7591   23.2875 H   0  0  0  0  0  0
  -22.3891  -11.9741   22.4929 H   0  0  0  0  0  0
  -21.0959  -13.1175   22.2777 H   0  0  0  0  0  0
  -24.4992  -15.7071   20.3313 H   0  0  0  0  0  0
  -26.0505  -15.5046   19.7100 H   0  0  0  0  0  0
  -26.7094  -32.5546   23.1138 H   0  0  0  0  0  0
  -25.0048  -33.9781   25.0478 H   0  0  0  0  0  0
  -22.6878  -31.3010   21.4015 H   0  0  0  0  0  0
  -23.3756  -35.9626   23.3287 H   0  0  0  0  0  0
  -24.3586  -36.8935   22.2058 H   0  0  0  0  0  0
  -23.7220  -37.6503   23.6659 H   0  0  0  0  0  0
  -26.0112  -31.6019   20.5715 H   0  0  0  0  0  0
  -26.8181  -30.9160   21.9529 H   0  0  0  0  0  0
  -28.0960  -29.1417   21.1532 H   0  0  0  0  0  0
  -26.0902  -25.9635   19.0247 H   0  0  0  0  0  0
  -23.9992  -27.2614   19.0532 H   0  0  0  0  0  0
  -23.7099  -30.5773   19.3965 H   0  0  0  0  0  0
  -22.7360  -29.2192   19.8740 H   0  0  0  0  0  0
  -25.1283  -36.1969   25.0839 H   0  0  0  0  0  0
  -20.9951  -28.3211   24.1453 H   0  0  0  0  0  0
  -20.5650  -26.2267   23.3593 H   0  0  0  0  0  0
  -21.6628  -26.7448   22.1204 H   0  0  0  0  0  0
  -19.6891  -25.6325   21.1209 H   0  0  0  0  0  0
  -19.6680  -27.3246   20.6758 H   0  0  0  0  0  0
  -17.4186  -26.6711   21.4013 H   0  0  0  0  0  0
  -18.0304  -26.0067   22.9000 H   0  0  0  0  0  0
  -19.7928  -30.7259   24.2300 H   0  0  0  0  0  0
  -17.5010  -31.6270   24.5179 H   0  0  0  0  0  0
  -15.5346  -30.3007   23.7638 H   0  0  0  0  0  0
  -15.8658  -28.0851   22.7026 H   0  0  0  0  0  0
  -24.5922  -30.7037   25.7766 H   0  0  0  0  0  0
  -24.8991  -32.2811   26.4953 H   0  0  0  0  0  0
  -25.8149  -30.8768   27.0153 H   0  0  0  0  0  0
  -26.2790  -29.6774   24.1157 H   0  0  0  0  0  0
  -27.4237  -29.7297   25.4371 H   0  0  0  0  0  0
  -27.8535  -30.4390   23.8981 H   0  0  0  0  0  0
  -27.2750  -33.3626   26.1949 H   0  0  0  0  0  0
  -28.3925  -32.6732   25.0267 H   0  0  0  0  0  0
  -28.0673  -31.8403   26.5393 H   0  0  0  0  0  0
  -28.2614  -38.0085   24.7484 H   0  0  0  0  0  0
  -28.1045  -36.2622   24.6347 H   0  0  0  0  0  0
  -27.2290  -37.1510   25.8880 H   0  0  0  0  0  0
  -20.9266  -29.8774   21.6993 H   0  0  0  0  0  0
  -26.0182  -38.2872   24.1389 H   0  0  0  0  0  0
  -31.3408  -22.8942   21.5742 H   0  0  0  0  0  0
  -29.8700  -22.0277   17.6390 H   0  0  0  0  0  0
  -29.3629  -16.7587   18.5095 H   0  0  0  0  0  0
  -28.7668  -15.2959   18.7753 H   0  0  0  0  0  0
  -30.1236  -18.3593   21.7617 H   0  0  0  0  0  0
  -31.7472  -17.0377   21.0729 H   0  0  0  0  0  0
  -27.1805  -17.0005   19.7617 H   0  0  0  0  0  0
  -31.9667  -21.2118   23.0469 H   0  0  0  0  0  0
  -32.1134  -19.5507   22.5044 H   0  0  0  0  0  0
  -30.5865  -20.1327   23.1962 H   0  0  0  0  0  0
  -28.8216  -16.2401   22.2746 H   0  0  0  0  0  0
  -27.3691  -15.4317   21.7197 H   0  0  0  0  0  0
  -27.2730  -17.0586   22.2705 H   0  0  0  0  0  0
  -33.8172  -16.9820   17.9848 H   0  0  0  0  0  0
  -32.7986  -15.5999   18.3221 H   0  0  0  0  0  0
  -33.7426  -16.3446   19.6226 H   0  0  0  0  0  0
  -32.4399  -18.4801   19.1905 H   0  0  0  0  0  0
  -31.4121  -17.5924   18.1066 H   0  0  0  0  0  0
  -27.8156  -24.8175   20.2196 H   0  0  0  0  0  0
  -28.4384  -25.3552   18.6602 H   0  0  0  0  0  0
  -29.9968  -24.6033   21.1711 H   0  0  0  0  0  0
  -30.6869  -25.7698   20.0849 H   0  0  0  0  0  0
  -28.5381  -18.6965   19.4828 H   0  0  0  0  0  0
  -28.1376  -18.7979   21.0525 H   0  0  0  0  0  0
  1 25  1  0  0  0
  1 30  2  0  0  0
  1 87  1  0  0  0
  2  3  1  0  0  0
  2 25  1  0  0  0
  2 91  1  0  0  0
  2 92  1  0  0  0
  3  4  1  0  0  0
  3 93  1  0  0  0
  3 94  1  0  0  0
  4  5  1  0  0  0
  4 95  1  0  0  0
  4 96  1  0  0  0
  5  6  1  0  0  0
  5 26  1  0  0  0
  5 97  1  0  0  0
  6 25  1  0  0  0
  6 98  1  0  0  0
  6 99  1  0  0  0
  7  8  2  0  0  0
  7 26  1  0  0  0
  7 29  1  0  0  0
  8  9  1  0  0  0
  8 22  1  0  0  0
  9 10  1  0  0  0
  9 27  2  0  0  0
 10 11  2  0  0  0
 10 15  1  0  0  0
 11 12  1  0  0  0
 11100  1  0  0  0
 12 13  2  0  0  0
 12101  1  0  0  0
 13 14  1  0  0  0
 13 31  1  0  0  0
 14 15  2  0  0  0
 14102  1  0  0  0
 15103  1  0  0  0
 16 17  2  0  0  0
 16 21  1  0  0  0
 16 31  1  0  0  0
 17 18  1  0  0  0
 17104  1  0  0  0
 18 19  2  0  0  0
 18105  1  0  0  0
 19 20  1  0  0  0
 19 24  1  0  0  0
 20 21  2  0  0  0
 20106  1  0  0  0
 21 23  1  0  0  0
 22 28  1  0  0  0
 22 32  2  0  0  0
 26 27  1  0  0  0
 28107  1  0  0  0
 28108  1  0  0  0
 29109  1  0  0  0
 29110  1  0  0  0
 33 34  1  0  0  0
 33 66  1  0  0  0
 33 70  2  0  0  0
 34 36  1  0  0  0
 34 59  1  0  0  0
 34111  1  0  0  0
 35 44  2  0  0  0
 35 45  1  0  0  0
 35 68  1  0  0  0
 36 56  1  0  0  0
 36112  1  0  0  0
 37 39  1  0  0  0
 37 47  1  0  0  0
 37 66  1  0  0  0
 37113  1  0  0  0
 38 43  2  0  0  0
 38 46  1  0  0  0
 38 47  1  0  0  0
 39 64  1  0  0  0
 39 67  2  0  0  0
 40 52  1  0  0  0
 40 53  2  0  0  0
 40 58  1  0  0  0
 41114  1  0  0  0
 41115  1  0  0  0
 41116  1  0  0  0
 41 48  1  0  0  0
 42 43  1  0  0  0
 42 66  1  0  0  0
 42117  1  0  0  0
 42118  1  0  0  0
 43 44  1  0  0  0
 44119  1  0  0  0
 45 46  2  0  0  0
 45120  1  0  0  0
 46121  1  0  0  0
 47122  1  0  0  0
 47123  1  0  0  0
 48 56  1  0  0  0
 48 65  1  0  0  0
 48124  1  0  0  0
 49 50  1  0  0  0
 49 53  1  0  0  0
 49 64  1  0  0  0
 49125  1  0  0  0
 50 51  1  0  0  0
 50126  1  0  0  0
 50127  1  0  0  0
 51 52  1  0  0  0
 51128  1  0  0  0
 51129  1  0  0  0
 52130  1  0  0  0
 52131  1  0  0  0
 53 54  1  0  0  0
 54 55  2  0  0  0
 54132  1  0  0  0
 55 57  1  0  0  0
 55133  1  0  0  0
 56 69  2  0  0  0
 57 58  2  0  0  0
 57134  1  0  0  0
 58135  1  0  0  0
 59 60  1  0  0  0
 59 61  1  0  0  0
 59 62  1  0  0  0
 60136  1  0  0  0
 60137  1  0  0  0
 60138  1  0  0  0
 61139  1  0  0  0
 61140  1  0  0  0
 61141  1  0  0  0
 62142  1  0  0  0
 62143  1  0  0  0
 62144  1  0  0  0
 63 65  1  0  0  0
 63145  1  0  0  0
 63146  1  0  0  0
 63147  1  0  0  0
 64148  1  0  0  0
 65149  1  0  0  0
 68 85  1  0  0  0
 71 74  2  0  0  0
 71 75  1  0  0  0
 71150  1  0  0  0
 72 75  2  0  0  0
 72 76  1  0  0  0
 72151  1  0  0  0
 73 74  1  0  0  0
 73 76  2  0  0  0
 73 78  1  0  0  0
 74 81  1  0  0  0
 75 89  1  0  0  0
 76 90  1  0  0  0
 77 80  1  0  0  0
 77 87  1  0  0  0
 77152  1  0  0  0
 77153  1  0  0  0
 78 79  1  0  0  0
 78 88  1  0  0  0
 78154  1  0  0  0
 79 84  1  0  0  0
 79 87  1  0  0  0
 79155  1  0  0  0
 80 82  1  0  0  0
 80 88  1  0  0  0
 80156  1  0  0  0
 81157  1  0  0  0
 81158  1  0  0  0
 81159  1  0  0  0
 82160  1  0  0  0
 82161  1  0  0  0
 82162  1  0  0  0
 83 84  1  0  0  0
 83163  1  0  0  0
 83164  1  0  0  0
 83165  1  0  0  0
 84166  1  0  0  0
 84167  1  0  0  0
 85 86  1  0  0  0
 85168  1  0  0  0
 85169  1  0  0  0
 86 89  1  0  0  0
 86170  1  0  0  0
 86171  1  0  0  0
 88172  1  0  0  0
 88173  1  0  0  0
M  CHG  1  88   1
M  ISO  4   1 100  68 101  85 101  87 100
M  END
> <chiral flag>
0

> <version>
0

> <s_m_source_file>
/data/baiqing/PycharmProjects/Reinvent-master-3.2/result/LINK_invent/BTK/process_docking_weight1_custom_sum_contain_oxygen_bond_distance_aromatic_linkinvent_7_9_3/rearranged_h_0151.sdf

> <i_m_source_file_index>
11

> <r_mmod_Potential_Energy-OPLS-2005>
251.685333251953

> <r_mmod_Stretch_Energy-OPLS-2005>
61.5770225524902

> <r_mmod_Bend_Energy-OPLS-2005>
193.509719848633

> <r_mmod_Torsional_Energy-OPLS-2005>
421.370361328125

> <r_mmod_Improper_Torsional_Energy-OPLS-2005>
12.2447195053101

> <r_mmod_Van_der_Waal_Energy-OPLS-2005>
192.611557006836

> <r_mmod_Electrostatic_Energy-OPLS-2005>
-265.205505371094

> <r_mmod_Solvation_Energy-OPLS-2005>
-432.184234619141

> <b_mmod_Minimization_Converged-OPLS-2005>
0

> <r_mmod_RMS_Derivative-OPLS-2005>
1.7269629240036

$$$$
11
                    3D
 Structure written by MMmdl.
161170  0  0  1  0            999 V2000
  -30.6906  -14.4722   20.5778 C   0  0  0  0  0  0
  -30.4243  -12.3094   19.4220 C   0  0  0  0  0  0
  -29.4952  -12.5039   18.2059 C   0  0  0  0  0  0
  -28.0155  -12.3660   18.6174 C   0  0  0  0  0  0
  -27.6611  -13.2050   19.8746 C   0  0  2  0  0  0
  -28.7010  -12.9823   20.9955 C   0  0  0  0  0  0
  -25.2586  -13.8157   20.5672 C   0  0  0  0  0  0
  -24.1836  -13.0436   20.9171 C   0  0  0  0  0  0
  -24.6386  -11.6902   20.8727 C   0  0  0  0  0  0
  -23.9052  -10.4291   21.0399 C   0  0  0  0  0  0
  -24.3607   -9.4208   21.9181 C   0  0  0  0  0  0
  -23.6287   -8.2243   22.0753 C   0  0  0  0  0  0
  -22.4271   -8.0277   21.3543 C   0  0  0  0  0  0
  -21.9900   -9.0247   20.4646 C   0  0  0  0  0  0
  -22.7223  -10.2128   20.3052 C   0  0  0  0  0  0
  -21.6853   -6.0730   22.5278 C   0  0  0  0  0  0
  -21.4011   -6.5634   23.8209 C   0  0  0  0  0  0
  -21.3662   -5.6789   24.9175 C   0  0  0  0  0  0
  -21.6045   -4.3052   24.7225 C   0  0  0  0  0  0
  -21.8822   -3.8143   23.4347 C   0  0  0  0  0  0
  -21.9192   -4.6958   22.3404 C   0  0  0  0  0  0
  -22.7859  -13.5238   21.1836 C   0  0  0  0  0  0
  -22.1662   -4.2143   21.0982 F   0  0  0  0  0  0
  -21.5631   -3.4539   25.7739 F   0  0  0  0  0  0
  -30.0301  -13.2910   20.4439 N   0  0  0  0  0  0
  -26.3017  -12.9321   20.3356 N   0  0  0  0  0  0
  -25.9311  -11.6482   20.5755 N   0  0  0  0  0  0
  -22.0497  -12.8234   22.0393 N   0  0  0  0  0  0
  -25.4317  -15.1875   20.4095 N   0  0  0  0  0  0
  -31.8144  -14.6728   20.1108 O   0  0  0  0  0  0
  -21.6639   -6.8871   21.4240 O   0  0  0  0  0  0
  -22.3546  -14.5545   20.6685 O   0  0  0  0  0  0
  -24.6152  -31.8670   23.2084 C   0  0  0  0  0  0
  -25.9042  -32.4818   23.8382 C   0  0  1  0  0  0
  -27.2364  -27.4237   20.0976 C   0  0  0  0  0  0
  -25.5897  -33.8614   24.2318 N   0  0  0  0  0  0
  -23.4023  -30.4904   21.5487 C   0  0  2  0  0  0
  -24.8466  -28.9492   20.1173 C   0  0  0  0  0  0
  -22.7407  -29.4664   22.4988 C   0  0  0  0  0  0
  -18.0273  -28.1386   22.8495 C   0  0  0  0  0  0
  -24.1480  -36.7305   23.2639 C   0  0  0  0  0  0
  -25.9307  -30.8306   21.3598 C   0  0  0  0  0  0
  -26.0061  -29.4624   20.7090 C   0  0  0  0  0  0
  -27.2003  -28.7075   20.6931 C   0  0  0  0  0  0
  -26.0528  -26.9191   19.5118 C   0  0  0  0  0  0
  -24.8651  -27.6777   19.5168 C   0  0  0  0  0  0
  -23.6097  -29.8187   20.1647 C   0  0  0  0  0  0
  -25.4104  -36.3109   24.0341 C   0  0  1  0  0  0
  -20.5860  -28.3670   23.1320 C   0  0  2  0  0  0
  -20.6759  -26.9407   22.5420 C   0  0  0  0  0  0
  -19.5737  -26.6396   21.5214 C   0  0  0  0  0  0
  -18.1916  -26.7936   22.1627 C   0  0  0  0  0  0
  -19.1522  -28.8846   23.2904 C   0  0  0  0  0  0
  -18.9450  -30.1452   23.8915 C   0  0  0  0  0  0
  -17.6454  -30.6590   24.0575 C   0  0  0  0  0  0
  -25.9037  -34.9473   23.5130 C   0  0  0  0  0  0
  -16.5344  -29.9095   23.6330 C   0  0  0  0  0  0
  -16.7262  -28.6513   23.0351 C   0  0  0  0  0  0
  -26.4468  -31.6600   25.0714 C   0  0  0  0  0  0
  -25.3740  -31.3701   26.1469 C   0  0  0  0  0  0
  -27.0294  -30.3043   24.6086 C   0  0  0  0  0  0
  -27.6047  -32.4317   25.7477 C   0  0  0  0  0  0
  -27.5576  -37.1807   24.8467 C   0  0  0  0  0  0
  -21.4136  -29.3035   22.3723 N   0  0  0  0  0  0
  -26.4285  -37.3799   23.9417 N   0  0  0  0  0  0
  -24.6678  -31.0775   22.0973 N   0  0  0  0  0  0
  -23.4180  -28.8217   23.3039 O   0  0  0  0  0  0
  -28.4349  -26.7364   20.1041 O   0  0  0  0  0  0
  -26.5597  -34.8932   22.4691 O   0  0  0  0  0  0
  -23.5343  -32.1415   23.7484 O   0  0  0  0  0  0
  -27.6379  -20.7575   20.5775 C   0  0  0  0  0  0
  -29.9679  -20.6442   21.2023 C   0  0  0  0  0  0
  -28.9191  -22.8493   20.8064 C   0  0  0  0  0  0
  -27.7008  -22.1721   20.5329 C   0  0  0  0  0  0
  -30.0501  -22.0563   21.1527 C   0  0  0  0  0  0
  -28.7567  -19.9729   20.9268 C   0  0  0  0  0  0
  -29.9620  -24.9917   19.7517 C   0  0  0  0  0  0
  -29.0451  -24.3721   20.7819 C   0  0  1  0  0  0
  -28.4997  -25.3496   19.7294 C   0  0  1  0  0  0
  -26.4309  -22.9392   20.2050 C   0  0  0  0  0  0
  -31.3853  -22.7029   21.4906 C   0  0  0  0  0  0
  -30.4103  -16.8855   21.1651 C   0  0  0  0  0  0
  -29.3981  -17.8198   21.8766 C   0  0  0  0  0  0
  -29.9808  -15.4775   21.1201 N   0  0  0  0  0  0
  -28.6049  -18.5948   20.9629 O   0  0  0  0  0  0
  -31.4686  -12.4155   19.1219 H   0  0  0  0  0  0
  -30.3311  -11.2976   19.8199 H   0  0  0  0  0  0
  -29.7357  -11.7773   17.4285 H   0  0  0  0  0  0
  -29.6643  -13.4884   17.7664 H   0  0  0  0  0  0
  -27.8234  -11.3100   18.8117 H   0  0  0  0  0  0
  -27.3665  -12.6437   17.7860 H   0  0  0  0  0  0
  -27.7066  -14.2537   19.5790 H   0  0  0  0  0  0
  -28.6783  -11.9449   21.3329 H   0  0  0  0  0  0
  -28.4629  -13.5795   21.8769 H   0  0  0  0  0  0
  -25.2754   -9.5687   22.4751 H   0  0  0  0  0  0
  -23.9999   -7.4635   22.7470 H   0  0  0  0  0  0
  -21.0832   -8.8764   19.8950 H   0  0  0  0  0  0
  -22.3684  -10.9665   19.6157 H   0  0  0  0  0  0
  -21.2003   -7.6140   23.9710 H   0  0  0  0  0  0
  -21.1483   -6.0521   25.9076 H   0  0  0  0  0  0
  -22.0598   -2.7604   23.2851 H   0  0  0  0  0  0
  -22.4109  -11.9898   22.4790 H   0  0  0  0  0  0
  -21.1113  -13.1259   22.2590 H   0  0  0  0  0  0
  -24.6674  -15.8447   20.5225 H   0  0  0  0  0  0
  -26.2878  -15.6270   20.0950 H   0  0  0  0  0  0
  -26.7114  -32.5525   23.1147 H   0  0  0  0  0  0
  -25.0062  -33.9773   25.0474 H   0  0  0  0  0  0
  -22.6910  -31.3076   21.4094 H   0  0  0  0  0  0
  -23.3744  -35.9636   23.3315 H   0  0  0  0  0  0
  -24.3570  -36.8904   22.2049 H   0  0  0  0  0  0
  -23.7230  -37.6515   23.6641 H   0  0  0  0  0  0
  -26.0427  -31.5952   20.5899 H   0  0  0  0  0  0
  -26.8190  -30.8851   21.9774 H   0  0  0  0  0  0
  -28.0986  -29.1069   21.1435 H   0  0  0  0  0  0
  -26.0218  -25.9479   19.0429 H   0  0  0  0  0  0
  -23.9714  -27.2754   19.0599 H   0  0  0  0  0  0
  -23.7202  -30.5920   19.4035 H   0  0  0  0  0  0
  -22.7328  -29.2394   19.8697 H   0  0  0  0  0  0
  -25.1281  -36.1971   25.0834 H   0  0  0  0  0  0
  -20.9957  -28.3237   24.1438 H   0  0  0  0  0  0
  -20.5659  -26.2280   23.3605 H   0  0  0  0  0  0
  -21.6632  -26.7448   22.1215 H   0  0  0  0  0  0
  -19.6892  -25.6312   21.1231 H   0  0  0  0  0  0
  -19.6680  -27.3218   20.6752 H   0  0  0  0  0  0
  -17.4190  -26.6697   21.4024 H   0  0  0  0  0  0
  -18.0311  -26.0072   22.9015 H   0  0  0  0  0  0
  -19.7926  -30.7266   24.2291 H   0  0  0  0  0  0
  -17.5010  -31.6270   24.5177 H   0  0  0  0  0  0
  -15.5346  -30.3006   23.7642 H   0  0  0  0  0  0
  -15.8663  -28.0842   22.7051 H   0  0  0  0  0  0
  -24.5921  -30.7033   25.7814 H   0  0  0  0  0  0
  -24.8917  -32.2850   26.4916 H   0  0  0  0  0  0
  -25.8105  -30.8880   27.0225 H   0  0  0  0  0  0
  -26.2829  -29.6811   24.1142 H   0  0  0  0  0  0
  -27.4068  -29.7273   25.4541 H   0  0  0  0  0  0
  -27.8668  -30.4367   23.9230 H   0  0  0  0  0  0
  -27.2671  -33.3610   26.2074 H   0  0  0  0  0  0
  -28.3844  -32.6880   25.0293 H   0  0  0  0  0  0
  -28.0728  -31.8426   26.5372 H   0  0  0  0  0  0
  -28.2608  -38.0092   24.7511 H   0  0  0  0  0  0
  -28.1058  -36.2623   24.6296 H   0  0  0  0  0  0
  -27.2296  -37.1468   25.8873 H   0  0  0  0  0  0
  -20.9296  -29.8754   21.6941 H   0  0  0  0  0  0
  -26.0171  -38.2878   24.1422 H   0  0  0  0  0  0
  -26.7038  -20.2577   20.3610 H   0  0  0  0  0  0
  -30.8549  -20.0782   21.4483 H   0  0  0  0  0  0
  -30.3158  -24.3606   18.9387 H   0  0  0  0  0  0
  -30.6727  -25.7374   20.1022 H   0  0  0  0  0  0
  -29.0997  -24.7501   21.8012 H   0  0  0  0  0  0
  -27.9674  -25.0399   18.8335 H   0  0  0  0  0  0
  -25.5454  -22.3229   20.3633 H   0  0  0  0  0  0
  -26.4323  -23.2548   19.1621 H   0  0  0  0  0  0
  -26.3260  -23.8204   20.8386 H   0  0  0  0  0  0
  -32.0639  -21.9956   21.9683 H   0  0  0  0  0  0
  -31.2567  -23.5390   22.1782 H   0  0  0  0  0  0
  -31.8725  -23.0695   20.5870 H   0  0  0  0  0  0
  -31.3605  -16.9270   21.7005 H   0  0  0  0  0  0
  -30.6157  -17.2508   20.1577 H   0  0  0  0  0  0
  -29.9172  -18.4474   22.6013 H   0  0  0  0  0  0
  -28.7130  -17.2283   22.4849 H   0  0  0  0  0  0
  -29.0533  -15.2584   21.4522 H   0  0  0  0  0  0
  1 25  1  0  0  0
  1 30  2  0  0  0
  1 84  1  0  0  0
  2  3  1  0  0  0
  2 25  1  0  0  0
  2 86  1  0  0  0
  2 87  1  0  0  0
  3  4  1  0  0  0
  3 88  1  0  0  0
  3 89  1  0  0  0
  4  5  1  0  0  0
  4 90  1  0  0  0
  4 91  1  0  0  0
  5  6  1  0  0  0
  5 26  1  0  0  0
  5 92  1  0  0  0
  6 25  1  0  0  0
  6 93  1  0  0  0
  6 94  1  0  0  0
  7  8  2  0  0  0
  7 26  1  0  0  0
  7 29  1  0  0  0
  8  9  1  0  0  0
  8 22  1  0  0  0
  9 10  1  0  0  0
  9 27  2  0  0  0
 10 11  2  0  0  0
 10 15  1  0  0  0
 11 12  1  0  0  0
 11 95  1  0  0  0
 12 13  2  0  0  0
 12 96  1  0  0  0
 13 14  1  0  0  0
 13 31  1  0  0  0
 14 15  2  0  0  0
 14 97  1  0  0  0
 15 98  1  0  0  0
 16 17  2  0  0  0
 16 21  1  0  0  0
 16 31  1  0  0  0
 17 18  1  0  0  0
 17 99  1  0  0  0
 18 19  2  0  0  0
 18100  1  0  0  0
 19 20  1  0  0  0
 19 24  1  0  0  0
 20 21  2  0  0  0
 20101  1  0  0  0
 21 23  1  0  0  0
 22 28  1  0  0  0
 22 32  2  0  0  0
 26 27  1  0  0  0
 28102  1  0  0  0
 28103  1  0  0  0
 29104  1  0  0  0
 29105  1  0  0  0
 33 34  1  0  0  0
 33 66  1  0  0  0
 33 70  2  0  0  0
 34 36  1  0  0  0
 34 59  1  0  0  0
 34106  1  0  0  0
 35 44  2  0  0  0
 35 45  1  0  0  0
 35 68  1  0  0  0
 36 56  1  0  0  0
 36107  1  0  0  0
 37 39  1  0  0  0
 37 47  1  0  0  0
 37 66  1  0  0  0
 37108  1  0  0  0
 38 43  2  0  0  0
 38 46  1  0  0  0
 38 47  1  0  0  0
 39 64  1  0  0  0
 39 67  2  0  0  0
 40 52  1  0  0  0
 40 53  2  0  0  0
 40 58  1  0  0  0
 41109  1  0  0  0
 41110  1  0  0  0
 41111  1  0  0  0
 41 48  1  0  0  0
 42 43  1  0  0  0
 42 66  1  0  0  0
 42112  1  0  0  0
 42113  1  0  0  0
 43 44  1  0  0  0
 44114  1  0  0  0
 45 46  2  0  0  0
 45115  1  0  0  0
 46116  1  0  0  0
 47117  1  0  0  0
 47118  1  0  0  0
 48 56  1  0  0  0
 48 65  1  0  0  0
 48119  1  0  0  0
 49 50  1  0  0  0
 49 53  1  0  0  0
 49 64  1  0  0  0
 49120  1  0  0  0
 50 51  1  0  0  0
 50121  1  0  0  0
 50122  1  0  0  0
 51 52  1  0  0  0
 51123  1  0  0  0
 51124  1  0  0  0
 52125  1  0  0  0
 52126  1  0  0  0
 53 54  1  0  0  0
 54 55  2  0  0  0
 54127  1  0  0  0
 55 57  1  0  0  0
 55128  1  0  0  0
 56 69  2  0  0  0
 57 58  2  0  0  0
 57129  1  0  0  0
 58130  1  0  0  0
 59 60  1  0  0  0
 59 61  1  0  0  0
 59 62  1  0  0  0
 60131  1  0  0  0
 60132  1  0  0  0
 60133  1  0  0  0
 61134  1  0  0  0
 61135  1  0  0  0
 61136  1  0  0  0
 62137  1  0  0  0
 62138  1  0  0  0
 62139  1  0  0  0
 63 65  1  0  0  0
 63140  1  0  0  0
 63141  1  0  0  0
 63142  1  0  0  0
 64143  1  0  0  0
 65144  1  0  0  0
 68 79  1  0  0  0
 71 74  2  0  0  0
 71 76  1  0  0  0
 71145  1  0  0  0
 72 75  1  0  0  0
 72 76  2  0  0  0
 72146  1  0  0  0
 73 74  1  0  0  0
 73 75  2  0  0  0
 73 78  1  0  0  0
 74 80  1  0  0  0
 75 81  1  0  0  0
 76 85  1  0  0  0
 77 78  1  0  0  0
 77 79  1  0  0  0
 77147  1  0  0  0
 77148  1  0  0  0
 78 79  1  0  0  0
 78149  1  0  0  0
 79150  1  0  0  0
 80151  1  0  0  0
 80152  1  0  0  0
 80153  1  0  0  0
 81154  1  0  0  0
 81155  1  0  0  0
 81156  1  0  0  0
 82 83  1  0  0  0
 82 84  1  0  0  0
 82157  1  0  0  0
 82158  1  0  0  0
 83 85  1  0  0  0
 83159  1  0  0  0
 83160  1  0  0  0
 84161  1  0  0  0
M  ISO  4   1 100  68 101  79 101  84 100
M  END
> <chiral flag>
0

> <version>
0

> <s_m_source_file>
/data/baiqing/PycharmProjects/Reinvent-master-3.2/result/LINK_invent/BTK/process_docking_weight1_custom_sum_contain_oxygen_bond_distance_aromatic_linkinvent_7_9_3/rearranged_h_0151.sdf

> <i_m_source_file_index>
12

> <r_mmod_Potential_Energy-OPLS-2005>
-70.1599655151367

> <r_mmod_Stretch_Energy-OPLS-2005>
40.610595703125

> <r_mmod_Bend_Energy-OPLS-2005>
120.484710693359

> <r_mmod_Torsional_Energy-OPLS-2005>
235.708358764648

> <r_mmod_Improper_Torsional_Energy-OPLS-2005>
3.42598605155945

> <r_mmod_Van_der_Waal_Energy-OPLS-2005>
153.228408813477

> <r_mmod_Electrostatic_Energy-OPLS-2005>
-427.475952148438

> <r_mmod_Solvation_Energy-OPLS-2005>
-209.108734130859

> <b_mmod_Minimization_Converged-OPLS-2005>
0

> <r_mmod_RMS_Derivative-OPLS-2005>
0.780567348003387

$$$$
12
                    3D
 Structure written by MMmdl.
182193  0  0  1  0            999 V2000
  -30.6974  -14.4601   20.4119 C   0  0  0  0  0  0
  -30.4170  -12.2488   19.4476 C   0  0  0  0  0  0
  -29.4981  -12.4178   18.2168 C   0  0  0  0  0  0
  -28.0149  -12.3233   18.6277 C   0  0  0  0  0  0
  -27.6564  -13.1957   19.8606 C   0  0  2  0  0  0
  -28.7047  -13.0406   20.9916 C   0  0  0  0  0  0
  -25.2603  -13.8142   20.5664 C   0  0  0  0  0  0
  -24.1845  -13.0433   20.9173 C   0  0  0  0  0  0
  -24.6380  -11.6893   20.8728 C   0  0  0  0  0  0
  -23.9055  -10.4286   21.0397 C   0  0  0  0  0  0
  -24.3622   -9.4197   21.9173 C   0  0  0  0  0  0
  -23.6297   -8.2240   22.0741 C   0  0  0  0  0  0
  -22.4284   -8.0275   21.3538 C   0  0  0  0  0  0
  -21.9912   -9.0251   20.4646 C   0  0  0  0  0  0
  -22.7221  -10.2138   20.3050 C   0  0  0  0  0  0
  -21.6857   -6.0724   22.5266 C   0  0  0  0  0  0
  -21.4001   -6.5632   23.8203 C   0  0  0  0  0  0
  -21.3659   -5.6789   24.9167 C   0  0  0  0  0  0
  -21.6056   -4.3051   24.7222 C   0  0  0  0  0  0
  -21.8819   -3.8131   23.4338 C   0  0  0  0  0  0
  -21.9203   -4.6946   22.3398 C   0  0  0  0  0  0
  -22.7869  -13.5232   21.1857 C   0  0  0  0  0  0
  -22.1664   -4.2127   21.0970 F   0  0  0  0  0  0
  -21.5640   -3.4544   25.7742 F   0  0  0  0  0  0
  -30.0390  -13.2766   20.4232 N   0  0  0  0  0  0
  -26.3014  -12.9280   20.3334 N   0  0  0  0  0  0
  -25.9302  -11.6464   20.5774 N   0  0  0  0  0  0
  -22.0524  -12.8213   22.0419 N   0  0  0  0  0  0
  -25.4354  -15.1873   20.4082 N   0  0  0  0  0  0
  -31.9019  -14.5688   20.2005 O   0  0  0  0  0  0
  -21.6664   -6.8868   21.4227 O   0  0  0  0  0  0
  -22.3542  -14.5520   20.6683 O   0  0  0  0  0  0
  -24.6096  -31.8715   23.2143 C   0  0  0  0  0  0
  -25.9010  -32.4842   23.8421 C   0  0  1  0  0  0
  -27.2329  -27.4781   20.0914 C   0  0  0  0  0  0
  -25.5886  -33.8640   24.2355 N   0  0  0  0  0  0
  -23.3953  -30.4950   21.5542 C   0  0  2  0  0  0
  -24.8421  -28.9639   20.1188 C   0  0  0  0  0  0
  -22.7382  -29.4672   22.5018 C   0  0  0  0  0  0
  -18.0261  -28.1374   22.8493 C   0  0  0  0  0  0
  -24.1489  -36.7331   23.2636 C   0  0  0  0  0  0
  -25.9194  -30.8479   21.3631 C   0  0  0  0  0  0
  -25.9973  -29.4831   20.7173 C   0  0  0  0  0  0
  -27.1974  -28.7432   20.7092 C   0  0  0  0  0  0
  -26.0692  -26.9629   19.4866 C   0  0  0  0  0  0
  -24.8692  -27.6985   19.5045 C   0  0  0  0  0  0
  -23.6023  -29.8270   20.1682 C   0  0  0  0  0  0
  -25.4103  -36.3124   24.0340 C   0  0  1  0  0  0
  -20.5850  -28.3650   23.1334 C   0  0  2  0  0  0
  -20.6755  -26.9392   22.5425 C   0  0  0  0  0  0
  -19.5738  -26.6383   21.5214 C   0  0  0  0  0  0
  -18.1915  -26.7922   22.1624 C   0  0  0  0  0  0
  -19.1512  -28.8824   23.2913 C   0  0  0  0  0  0
  -18.9444  -30.1436   23.8918 C   0  0  0  0  0  0
  -17.6451  -30.6581   24.0566 C   0  0  0  0  0  0
  -25.9021  -34.9486   23.5137 C   0  0  0  0  0  0
  -16.5339  -29.9088   23.6322 C   0  0  0  0  0  0
  -16.7256  -28.6504   23.0339 C   0  0  0  0  0  0
  -26.4458  -31.6605   25.0730 C   0  0  0  0  0  0
  -25.3745  -31.3706   26.1497 C   0  0  0  0  0  0
  -27.0271  -30.3048   24.6077 C   0  0  0  0  0  0
  -27.6051  -32.4313   25.7478 C   0  0  0  0  0  0
  -27.5584  -37.1814   24.8463 C   0  0  0  0  0  0
  -21.4116  -29.3026   22.3751 N   0  0  0  0  0  0
  -26.4298  -37.3800   23.9405 N   0  0  0  0  0  0
  -24.6592  -31.0850   22.1028 N   0  0  0  0  0  0
  -23.4172  -28.8215   23.3043 O   0  0  0  0  0  0
  -28.4000  -26.7659   20.0281 O   0  0  0  0  0  0
  -26.5586  -34.8928   22.4703 O   0  0  0  0  0  0
  -23.5303  -32.1452   23.7568 O   0  0  0  0  0  0
  -29.8877  -18.6105   19.0895 C   0  0  0  0  0  0
  -31.6243  -20.0517   18.1777 C   0  0  0  0  0  0
  -31.8442  -17.6256   17.9913 C   0  0  0  0  0  0
  -30.3773  -19.9019   18.8142 C   0  0  0  0  0  0
  -30.6009  -17.4685   18.6682 C   0  0  0  0  0  0
  -32.3578  -18.9270   17.7591 C   0  0  0  0  0  0
  -32.6198  -16.4244   17.4581 C   0  0  0  0  0  0
  -27.9348  -24.6468   21.1337 C   0  0  0  0  0  0
  -28.2635  -23.8483   19.8632 C   0  0  0  0  0  0
  -30.2136  -25.7423   21.2263 C   0  0  0  0  0  0
  -30.3226  -24.1195   18.2869 C   0  0  0  0  0  0
  -34.0361  -18.1054   16.2799 C   0  0  0  0  0  0
  -30.7121  -24.7270   20.1936 C   0  0  1  0  0  0
  -28.6968  -25.9827   21.1817 C   0  0  1  0  0  0
  -29.7792  -23.6273   19.6401 C   0  0  1  0  0  0
  -34.0577  -16.7488   17.0085 C   0  0  0  0  0  0
  -35.0099  -16.8029   18.2200 C   0  0  0  0  0  0
  -34.5547  -15.6497   16.0507 C   0  0  0  0  0  0
  -29.5143  -21.1243   19.0795 C   0  0  0  0  0  0
  -29.9171  -16.1130   18.8134 C   0  0  0  0  0  0
  -30.1424  -22.1783   20.0169 C   0  0  0  0  0  0
  -29.8875  -15.4924   20.1461 N   0  0  0  0  0  0
  -33.5520  -19.1541   17.1124 O   0  0  0  0  0  0
  -30.8375  -25.3320   18.8823 O   0  0  0  0  0  0
  -31.4665  -12.3138   19.1551 H   0  0  0  0  0  0
  -30.2931  -11.2588   19.8893 H   0  0  0  0  0  0
  -29.7250  -11.6480   17.4789 H   0  0  0  0  0  0
  -29.6873  -13.3647   17.7159 H   0  0  0  0  0  0
  -27.8076  -11.2750   18.8478 H   0  0  0  0  0  0
  -27.3758  -12.5812   17.7841 H   0  0  0  0  0  0
  -27.6712  -14.2263   19.5111 H   0  0  0  0  0  0
  -28.6657  -12.0351   21.4152 H   0  0  0  0  0  0
  -28.4985  -13.7292   21.8125 H   0  0  0  0  0  0
  -25.2765   -9.5701   22.4751 H   0  0  0  0  0  0
  -24.0016   -7.4629   22.7445 H   0  0  0  0  0  0
  -21.0842   -8.8745   19.8970 H   0  0  0  0  0  0
  -22.3641  -10.9674   19.6159 H   0  0  0  0  0  0
  -21.1988   -7.6143   23.9690 H   0  0  0  0  0  0
  -21.1471   -6.0531   25.9082 H   0  0  0  0  0  0
  -22.0608   -2.7592   23.2850 H   0  0  0  0  0  0
  -22.4179  -11.9893   22.4801 H   0  0  0  0  0  0
  -21.1132  -13.1209   22.2638 H   0  0  0  0  0  0
  -24.6708  -15.8436   20.5250 H   0  0  0  0  0  0
  -26.2858  -15.6317   20.0877 H   0  0  0  0  0  0
  -26.7088  -32.5576   23.1199 H   0  0  0  0  0  0
  -25.0038  -33.9812   25.0500 H   0  0  0  0  0  0
  -22.6823  -31.3105   21.4176 H   0  0  0  0  0  0
  -23.3735  -35.9682   23.3320 H   0  0  0  0  0  0
  -24.3584  -36.8919   22.2047 H   0  0  0  0  0  0
  -23.7260  -37.6551   23.6631 H   0  0  0  0  0  0
  -26.0251  -31.6131   20.5924 H   0  0  0  0  0  0
  -26.8099  -30.9056   21.9772 H   0  0  0  0  0  0
  -28.0941  -29.1434   21.1612 H   0  0  0  0  0  0
  -26.0936  -25.9985   19.0008 H   0  0  0  0  0  0
  -23.9816  -27.2942   19.0379 H   0  0  0  0  0  0
  -23.7077  -30.6023   19.4081 H   0  0  0  0  0  0
  -22.7277  -29.2443   19.8734 H   0  0  0  0  0  0
  -25.1278  -36.1996   25.0833 H   0  0  0  0  0  0
  -20.9941  -28.3209   24.1454 H   0  0  0  0  0  0
  -20.5652  -26.2254   23.3603 H   0  0  0  0  0  0
  -21.6629  -26.7439   22.1221 H   0  0  0  0  0  0
  -19.6898  -25.6297   21.1228 H   0  0  0  0  0  0
  -19.6679  -27.3205   20.6752 H   0  0  0  0  0  0
  -17.4186  -26.6669   21.4026 H   0  0  0  0  0  0
  -18.0317  -26.0059   22.9014 H   0  0  0  0  0  0
  -19.7918  -30.7246   24.2301 H   0  0  0  0  0  0
  -17.5002  -31.6263   24.5166 H   0  0  0  0  0  0
  -15.5341  -30.2997   23.7628 H   0  0  0  0  0  0
  -15.8655  -28.0834   22.7039 H   0  0  0  0  0  0
  -24.5912  -30.7052   25.7849 H   0  0  0  0  0  0
  -24.8945  -32.2863   26.4962 H   0  0  0  0  0  0
  -25.8119  -30.8872   27.0243 H   0  0  0  0  0  0
  -26.2798  -29.6824   24.1141 H   0  0  0  0  0  0
  -27.4057  -29.7265   25.4515 H   0  0  0  0  0  0
  -27.8629  -30.4366   23.9201 H   0  0  0  0  0  0
  -27.2677  -33.3590   26.2112 H   0  0  0  0  0  0
  -28.3824  -32.6910   25.0280 H   0  0  0  0  0  0
  -28.0760  -31.8406   26.5346 H   0  0  0  0  0  0
  -28.2616  -38.0099   24.7496 H   0  0  0  0  0  0
  -28.1066  -36.2630   24.6297 H   0  0  0  0  0  0
  -27.2307  -37.1481   25.8870 H   0  0  0  0  0  0
  -20.9266  -29.8753   21.6988 H   0  0  0  0  0  0
  -26.0192  -38.2883   24.1401 H   0  0  0  0  0  0
  -28.9193  -18.4889   19.5555 H   0  0  0  0  0  0
  -32.0069  -21.0387   17.9583 H   0  0  0  0  0  0
  -32.0531  -16.0538   16.6028 H   0  0  0  0  0  0
  -32.6451  -15.6141   18.1778 H   0  0  0  0  0  0
  -28.1880  -24.0535   22.0134 H   0  0  0  0  0  0
  -26.8593  -24.8208   21.1902 H   0  0  0  0  0  0
  -27.8417  -24.3871   19.0143 H   0  0  0  0  0  0
  -27.7055  -22.9129   19.8920 H   0  0  0  0  0  0
  -30.7474  -26.6879   21.1325 H   0  0  0  0  0  0
  -30.4563  -25.3702   22.2230 H   0  0  0  0  0  0
  -29.5617  -24.3073   17.5281 H   0  0  0  0  0  0
  -31.1232  -23.5007   17.8766 H   0  0  0  0  0  0
  -33.4075  -18.0472   15.3894 H   0  0  0  0  0  0
  -35.0340  -18.3732   15.9309 H   0  0  0  0  0  0
  -31.6805  -24.3153   20.4886 H   0  0  0  0  0  0
  -28.4118  -26.5304   22.0825 H   0  0  0  0  0  0
  -34.7198  -17.5819   18.9265 H   0  0  0  0  0  0
  -36.0349  -17.0085   17.9103 H   0  0  0  0  0  0
  -35.0191  -15.8576   18.7636 H   0  0  0  0  0  0
  -33.8929  -15.5298   15.1924 H   0  0  0  0  0  0
  -34.6137  -14.6834   16.5534 H   0  0  0  0  0  0
  -35.5499  -15.8753   15.6617 H   0  0  0  0  0  0
  -28.5488  -20.8080   19.4718 H   0  0  0  0  0  0
  -29.2963  -21.5672   18.1067 H   0  0  0  0  0  0
  -30.3112  -15.4234   18.0687 H   0  0  0  0  0  0
  -28.8767  -16.2443   18.5094 H   0  0  0  0  0  0
  -29.8727  -21.9580   21.0507 H   0  0  0  0  0  0
  -31.2278  -22.0769   19.9838 H   0  0  0  0  0  0
  -28.9544  -15.3741   20.5064 H   0  0  0  0  0  0
  1 25  1  0  0  0
  1 30  2  0  0  0
  1 92  1  0  0  0
  2  3  1  0  0  0
  2 25  1  0  0  0
  2 95  1  0  0  0
  2 96  1  0  0  0
  3  4  1  0  0  0
  3 97  1  0  0  0
  3 98  1  0  0  0
  4  5  1  0  0  0
  4 99  1  0  0  0
  4100  1  0  0  0
  5  6  1  0  0  0
  5 26  1  0  0  0
  5101  1  0  0  0
  6 25  1  0  0  0
  6102  1  0  0  0
  6103  1  0  0  0
  7  8  2  0  0  0
  7 26  1  0  0  0
  7 29  1  0  0  0
  8  9  1  0  0  0
  8 22  1  0  0  0
  9 10  1  0  0  0
  9 27  2  0  0  0
 10 11  2  0  0  0
 10 15  1  0  0  0
 11 12  1  0  0  0
 11104  1  0  0  0
 12 13  2  0  0  0
 12105  1  0  0  0
 13 14  1  0  0  0
 13 31  1  0  0  0
 14 15  2  0  0  0
 14106  1  0  0  0
 15107  1  0  0  0
 16 17  2  0  0  0
 16 21  1  0  0  0
 16 31  1  0  0  0
 17 18  1  0  0  0
 17108  1  0  0  0
 18 19  2  0  0  0
 18109  1  0  0  0
 19 20  1  0  0  0
 19 24  1  0  0  0
 20 21  2  0  0  0
 20110  1  0  0  0
 21 23  1  0  0  0
 22 28  1  0  0  0
 22 32  2  0  0  0
 26 27  1  0  0  0
 28111  1  0  0  0
 28112  1  0  0  0
 29113  1  0  0  0
 29114  1  0  0  0
 33 34  1  0  0  0
 33 66  1  0  0  0
 33 70  2  0  0  0
 34 36  1  0  0  0
 34 59  1  0  0  0
 34115  1  0  0  0
 35 44  2  0  0  0
 35 45  1  0  0  0
 35 68  1  0  0  0
 36 56  1  0  0  0
 36116  1  0  0  0
 37 39  1  0  0  0
 37 47  1  0  0  0
 37 66  1  0  0  0
 37117  1  0  0  0
 38 43  2  0  0  0
 38 46  1  0  0  0
 38 47  1  0  0  0
 39 64  1  0  0  0
 39 67  2  0  0  0
 40 52  1  0  0  0
 40 53  2  0  0  0
 40 58  1  0  0  0
 41118  1  0  0  0
 41119  1  0  0  0
 41120  1  0  0  0
 41 48  1  0  0  0
 42 43  1  0  0  0
 42 66  1  0  0  0
 42121  1  0  0  0
 42122  1  0  0  0
 43 44  1  0  0  0
 44123  1  0  0  0
 45 46  2  0  0  0
 45124  1  0  0  0
 46125  1  0  0  0
 47126  1  0  0  0
 47127  1  0  0  0
 48 56  1  0  0  0
 48 65  1  0  0  0
 48128  1  0  0  0
 49 50  1  0  0  0
 49 53  1  0  0  0
 49 64  1  0  0  0
 49129  1  0  0  0
 50 51  1  0  0  0
 50130  1  0  0  0
 50131  1  0  0  0
 51 52  1  0  0  0
 51132  1  0  0  0
 51133  1  0  0  0
 52134  1  0  0  0
 52135  1  0  0  0
 53 54  1  0  0  0
 54 55  2  0  0  0
 54136  1  0  0  0
 55 57  1  0  0  0
 55137  1  0  0  0
 56 69  2  0  0  0
 57 58  2  0  0  0
 57138  1  0  0  0
 58139  1  0  0  0
 59 60  1  0  0  0
 59 61  1  0  0  0
 59 62  1  0  0  0
 60140  1  0  0  0
 60141  1  0  0  0
 60142  1  0  0  0
 61143  1  0  0  0
 61144  1  0  0  0
 61145  1  0  0  0
 62146  1  0  0  0
 62147  1  0  0  0
 62148  1  0  0  0
 63 65  1  0  0  0
 63149  1  0  0  0
 63150  1  0  0  0
 63151  1  0  0  0
 64152  1  0  0  0
 65153  1  0  0  0
 68 84  1  0  0  0
 71 74  2  0  0  0
 71 75  1  0  0  0
 71154  1  0  0  0
 72 74  1  0  0  0
 72 76  2  0  0  0
 72155  1  0  0  0
 73 75  2  0  0  0
 73 76  1  0  0  0
 73 77  1  0  0  0
 74 89  1  0  0  0
 75 90  1  0  0  0
 76 93  1  0  0  0
 77 86  1  0  0  0
 77156  1  0  0  0
 77157  1  0  0  0
 78 79  1  0  0  0
 78 84  1  0  0  0
 78158  1  0  0  0
 78159  1  0  0  0
 79 85  1  0  0  0
 79160  1  0  0  0
 79161  1  0  0  0
 80 84  1  0  0  0
 80162  1  0  0  0
 80163  1  0  0  0
 80 83  1  0  0  0
 81 85  1  0  0  0
 81 94  1  0  0  0
 81164  1  0  0  0
 81165  1  0  0  0
 82 86  1  0  0  0
 82 93  1  0  0  0
 82166  1  0  0  0
 82167  1  0  0  0
 83 85  1  0  0  0
 83 94  1  0  0  0
 83168  1  0  0  0
 84169  1  0  0  0
 85 91  1  0  0  0
 86 87  1  0  0  0
 86 88  1  0  0  0
 87170  1  0  0  0
 87171  1  0  0  0
 87172  1  0  0  0
 88173  1  0  0  0
 88174  1  0  0  0
 88175  1  0  0  0
 89 91  1  0  0  0
 89176  1  0  0  0
 89177  1  0  0  0
 90 92  1  0  0  0
 90178  1  0  0  0
 90179  1  0  0  0
 91180  1  0  0  0
 91181  1  0  0  0
 92182  1  0  0  0
M  ISO  4   1 100  68 101  84 101  92 100
M  END
> <chiral flag>
0

> <version>
0

> <s_m_source_file>
/data/baiqing/PycharmProjects/Reinvent-master-3.2/result/LINK_invent/BTK/process_docking_weight1_custom_sum_contain_oxygen_bond_distance_aromatic_linkinvent_7_9_3/rearranged_h_0151.sdf

> <i_m_source_file_index>
13

> <r_mmod_Potential_Energy-OPLS-2005>
69.4158630371094

> <r_mmod_Stretch_Energy-OPLS-2005>
35.3085899353027

> <r_mmod_Bend_Energy-OPLS-2005>
122.782241821289

> <r_mmod_Torsional_Energy-OPLS-2005>
354.063140869141

> <r_mmod_Improper_Torsional_Energy-OPLS-2005>
20.265417098999

> <r_mmod_Van_der_Waal_Energy-OPLS-2005>
157.726974487305

> <r_mmod_Electrostatic_Energy-OPLS-2005>
-403.182830810547

> <r_mmod_Solvation_Energy-OPLS-2005>
-239.616622924805

> <b_mmod_Minimization_Converged-OPLS-2005>
0

> <r_mmod_RMS_Derivative-OPLS-2005>
2.09057807922363

$$$$
13
                    3D
 Structure written by MMmdl.
170180  0  0  1  0            999 V2000
  -30.7433  -14.5282   20.5639 C   0  0  0  0  0  0
  -30.3989  -12.3370   19.4625 C   0  0  0  0  0  0
  -29.4896  -12.4863   18.2270 C   0  0  0  0  0  0
  -28.0167  -12.3284   18.6385 C   0  0  0  0  0  0
  -27.6483  -13.2068   19.8627 C   0  0  2  0  0  0
  -28.6886  -13.0742   21.0032 C   0  0  0  0  0  0
  -25.2521  -13.8151   20.5662 C   0  0  0  0  0  0
  -24.1807  -13.0432   20.9204 C   0  0  0  0  0  0
  -24.6362  -11.6889   20.8771 C   0  0  0  0  0  0
  -23.9034  -10.4279   21.0404 C   0  0  0  0  0  0
  -24.3606   -9.4200   21.9168 C   0  0  0  0  0  0
  -23.6289   -8.2234   22.0740 C   0  0  0  0  0  0
  -22.4271   -8.0267   21.3527 C   0  0  0  0  0  0
  -21.9897   -9.0235   20.4624 C   0  0  0  0  0  0
  -22.7213  -10.2120   20.3040 C   0  0  0  0  0  0
  -21.6857   -6.0728   22.5271 C   0  0  0  0  0  0
  -21.4009   -6.5634   23.8201 C   0  0  0  0  0  0
  -21.3659   -5.6793   24.9169 C   0  0  0  0  0  0
  -21.6052   -4.3056   24.7223 C   0  0  0  0  0  0
  -21.8817   -3.8138   23.4345 C   0  0  0  0  0  0
  -21.9190   -4.6953   22.3400 C   0  0  0  0  0  0
  -22.7827  -13.5221   21.1851 C   0  0  0  0  0  0
  -22.1656   -4.2135   21.0979 F   0  0  0  0  0  0
  -21.5629   -3.4543   25.7739 F   0  0  0  0  0  0
  -30.0123  -13.3755   20.4447 N   0  0  0  0  0  0
  -26.2941  -12.9313   20.3317 N   0  0  0  0  0  0
  -25.9280  -11.6475   20.5783 N   0  0  0  0  0  0
  -22.0506  -12.8225   22.0428 N   0  0  0  0  0  0
  -25.4183  -15.1875   20.4009 N   0  0  0  0  0  0
  -31.8652  -14.5902   20.0486 O   0  0  0  0  0  0
  -21.6636   -6.8870   21.4231 O   0  0  0  0  0  0
  -22.3495  -14.5505   20.6663 O   0  0  0  0  0  0
  -24.6147  -31.8667   23.2092 C   0  0  0  0  0  0
  -25.9036  -32.4818   23.8392 C   0  0  1  0  0  0
  -27.2313  -27.4085   20.1150 C   0  0  0  0  0  0
  -25.5902  -33.8611   24.2321 N   0  0  0  0  0  0
  -23.4048  -30.4906   21.5485 C   0  0  2  0  0  0
  -24.8533  -28.9615   20.1128 C   0  0  0  0  0  0
  -22.7417  -29.4622   22.4931 C   0  0  0  0  0  0
  -18.0262  -28.1326   22.8581 C   0  0  0  0  0  0
  -24.1484  -36.7319   23.2630 C   0  0  0  0  0  0
  -25.9343  -30.8283   21.3664 C   0  0  0  0  0  0
  -26.0127  -29.4613   20.7153 C   0  0  0  0  0  0
  -27.2023  -28.6930   20.7131 C   0  0  0  0  0  0
  -26.0549  -26.9452   19.4780 C   0  0  0  0  0  0
  -24.8701  -27.7034   19.4887 C   0  0  0  0  0  0
  -23.6188  -29.8315   20.1608 C   0  0  0  0  0  0
  -25.4100  -36.3085   24.0329 C   0  0  1  0  0  0
  -20.5870  -28.3655   23.1345 C   0  0  2  0  0  0
  -20.6724  -26.9355   22.5556 C   0  0  0  0  0  0
  -19.5729  -26.6385   21.5320 C   0  0  0  0  0  0
  -18.1876  -26.7883   22.1704 C   0  0  0  0  0  0
  -19.1512  -28.8810   23.2943 C   0  0  0  0  0  0
  -18.9423  -30.1430   23.8893 C   0  0  0  0  0  0
  -17.6416  -30.6580   24.0517 C   0  0  0  0  0  0
  -25.9020  -34.9467   23.5107 C   0  0  0  0  0  0
  -16.5315  -29.9077   23.6281 C   0  0  0  0  0  0
  -16.7241  -28.6467   23.0368 C   0  0  0  0  0  0
  -26.4475  -31.6578   25.0709 C   0  0  0  0  0  0
  -25.3756  -31.3690   26.1467 C   0  0  0  0  0  0
  -27.0271  -30.3010   24.6065 C   0  0  0  0  0  0
  -27.6057  -32.4271   25.7495 C   0  0  0  0  0  0
  -27.5569  -37.1814   24.8459 C   0  0  0  0  0  0
  -21.4135  -29.2927   22.3629 N   0  0  0  0  0  0
  -26.4288  -37.3773   23.9393 N   0  0  0  0  0  0
  -24.6684  -31.0763   22.1006 N   0  0  0  0  0  0
  -23.4181  -28.8213   23.3039 O   0  0  0  0  0  0
  -28.4035  -26.6670   20.1512 O   0  0  0  0  0  0
  -26.5577  -34.8931   22.4663 O   0  0  0  0  0  0
  -23.5341  -32.1443   23.7492 O   0  0  0  0  0  0
  -29.3224  -22.0875   21.9162 C   0  0  0  0  0  0
  -27.5193  -20.5574   22.5442 C   0  0  0  0  0  0
  -27.0620  -22.9272   22.1630 C   0  0  0  0  0  0
  -28.4179  -23.1893   21.8329 C   0  0  0  0  0  0
  -26.6261  -21.6377   22.4640 C   0  0  0  0  0  0
  -28.8872  -20.7797   22.2843 C   0  0  0  0  0  0
  -30.9213  -17.7392   22.5959 C   0  0  0  0  0  0
  -28.7364  -17.7162   21.5387 C   0  0  0  0  0  0
  -31.3534  -16.4711   21.8439 C   0  0  0  0  0  0
  -29.0646  -16.3594   20.8316 C   0  0  0  0  0  0
  -24.7304  -22.9210   22.6044 C   0  0  0  0  0  0
  -25.9039  -23.8880   22.3302 C   0  0  1  0  0  0
  -29.9612  -18.6125   21.7891 C   0  0  0  0  0  0
  -26.0844  -24.8714   23.4984 C   0  0  0  0  0  0
  -28.9200  -24.6064   21.4757 C   0  0  0  0  0  0
  -28.3275  -25.2187   20.1752 C   0  0  0  0  0  0
  -25.2590  -21.5587   22.7195 N   0  0  0  0  0  0
  -30.2766  -15.6120   21.2776 N   0  0  0  0  0  0
  -29.8072  -19.7970   22.5936 O   0  0  0  0  0  0
  -31.4467  -12.3941   19.1634 H   0  0  0  0  0  0
  -30.2790  -11.3461   19.9032 H   0  0  0  0  0  0
  -29.7480  -11.7396   17.4749 H   0  0  0  0  0  0
  -29.6463  -13.4599   17.7605 H   0  0  0  0  0  0
  -27.8528  -11.2773   18.8763 H   0  0  0  0  0  0
  -27.3609  -12.5518   17.7967 H   0  0  0  0  0  0
  -27.6624  -14.2296   19.4921 H   0  0  0  0  0  0
  -28.6797  -12.0619   21.4092 H   0  0  0  0  0  0
  -28.4473  -13.7244   21.8432 H   0  0  0  0  0  0
  -25.2745   -9.5710   22.4741 H   0  0  0  0  0  0
  -23.9995   -7.4647   22.7480 H   0  0  0  0  0  0
  -21.0815   -8.8742   19.8956 H   0  0  0  0  0  0
  -22.3633  -10.9657   19.6165 H   0  0  0  0  0  0
  -21.1990   -7.6138   23.9696 H   0  0  0  0  0  0
  -21.1490   -6.0527   25.9075 H   0  0  0  0  0  0
  -22.0600   -2.7596   23.2850 H   0  0  0  0  0  0
  -22.4146  -11.9883   22.4793 H   0  0  0  0  0  0
  -21.1119  -13.1226   22.2632 H   0  0  0  0  0  0
  -24.6442  -15.8350   20.4955 H   0  0  0  0  0  0
  -26.2576  -15.6270   20.0468 H   0  0  0  0  0  0
  -26.7099  -32.5525   23.1158 H   0  0  0  0  0  0
  -25.0061  -33.9762   25.0474 H   0  0  0  0  0  0
  -22.6905  -31.3051   21.4100 H   0  0  0  0  0  0
  -23.3729  -35.9671   23.3296 H   0  0  0  0  0  0
  -24.3583  -36.8934   22.2042 H   0  0  0  0  0  0
  -23.7286  -37.6549   23.6649 H   0  0  0  0  0  0
  -26.0419  -31.5934   20.5963 H   0  0  0  0  0  0
  -26.8230  -30.8857   21.9825 H   0  0  0  0  0  0
  -28.0972  -29.0743   21.1857 H   0  0  0  0  0  0
  -26.0301  -26.0067   18.9455 H   0  0  0  0  0  0
  -23.9839  -27.3232   19.0012 H   0  0  0  0  0  0
  -23.7337  -30.6117   19.4077 H   0  0  0  0  0  0
  -22.7452  -29.2550   19.8565 H   0  0  0  0  0  0
  -25.1287  -36.1939   25.0832 H   0  0  0  0  0  0
  -21.0009  -28.3323   24.1438 H   0  0  0  0  0  0
  -20.5614  -26.2242   23.3772 H   0  0  0  0  0  0
  -21.6621  -26.7369   22.1422 H   0  0  0  0  0  0
  -19.6880  -25.6332   21.1259 H   0  0  0  0  0  0
  -19.6672  -27.3228   20.6888 H   0  0  0  0  0  0
  -17.4183  -26.6730   21.4050 H   0  0  0  0  0  0
  -18.0197  -26.0006   22.9049 H   0  0  0  0  0  0
  -19.7874  -30.7246   24.2277 H   0  0  0  0  0  0
  -17.4971  -31.6309   24.5037 H   0  0  0  0  0  0
  -15.5308  -30.3011   23.7474 H   0  0  0  0  0  0
  -15.8666  -28.0779   22.7024 H   0  0  0  0  0  0
  -24.5905  -30.7064   25.7797 H   0  0  0  0  0  0
  -24.8995  -32.2854   26.4958 H   0  0  0  0  0  0
  -25.8124  -30.8814   27.0190 H   0  0  0  0  0  0
  -26.2770  -29.6796   24.1154 H   0  0  0  0  0  0
  -27.4062  -29.7229   25.4503 H   0  0  0  0  0  0
  -27.8608  -30.4305   23.9167 H   0  0  0  0  0  0
  -27.2673  -33.3559   26.2108 H   0  0  0  0  0  0
  -28.3884  -32.6857   25.0344 H   0  0  0  0  0  0
  -28.0707  -31.8355   26.5399 H   0  0  0  0  0  0
  -28.2591  -38.0106   24.7488 H   0  0  0  0  0  0
  -28.1067  -36.2643   24.6299 H   0  0  0  0  0  0
  -27.2284  -37.1469   25.8864 H   0  0  0  0  0  0
  -20.9289  -29.8436   21.6685 H   0  0  0  0  0  0
  -26.0167  -38.2845   24.1417 H   0  0  0  0  0  0
  -30.3791  -22.2498   21.7458 H   0  0  0  0  0  0
  -27.1671  -19.5838   22.8544 H   0  0  0  0  0  0
  -31.8103  -18.3167   22.8505 H   0  0  0  0  0  0
  -30.4600  -17.4656   23.5471 H   0  0  0  0  0  0
  -28.2515  -17.5055   22.4920 H   0  0  0  0  0  0
  -27.9998  -18.2600   20.9454 H   0  0  0  0  0  0
  -31.9716  -15.8657   22.5091 H   0  0  0  0  0  0
  -32.0104  -16.8063   21.0385 H   0  0  0  0  0  0
  -29.1558  -16.5379   19.7583 H   0  0  0  0  0  0
  -28.1837  -15.7392   20.9632 H   0  0  0  0  0  0
  -24.1716  -23.1954   23.5009 H   0  0  0  0  0  0
  -24.0276  -22.9491   21.7698 H   0  0  0  0  0  0
  -25.7028  -24.4370   21.4118 H   0  0  0  0  0  0
  -30.4150  -18.9015   20.8398 H   0  0  0  0  0  0
  -26.3471  -24.3460   24.4171 H   0  0  0  0  0  0
  -25.1615  -25.4187   23.6885 H   0  0  0  0  0  0
  -26.8563  -25.6125   23.3070 H   0  0  0  0  0  0
  -30.0063  -24.5939   21.3882 H   0  0  0  0  0  0
  -28.7228  -25.2705   22.3122 H   0  0  0  0  0  0
  -27.3179  -24.8452   20.0652 H   0  0  0  0  0  0
  -28.8630  -24.8273   19.3088 H   0  0  0  0  0  0
  -24.9630  -20.9884   23.5088 H   0  0  0  0  0  0
  1 25  1  0  0  0
  1 30  2  0  0  0
  1 88  1  0  0  0
  2  3  1  0  0  0
  2 25  1  0  0  0
  2 90  1  0  0  0
  2 91  1  0  0  0
  3  4  1  0  0  0
  3 92  1  0  0  0
  3 93  1  0  0  0
  4  5  1  0  0  0
  4 94  1  0  0  0
  4 95  1  0  0  0
  5  6  1  0  0  0
  5 26  1  0  0  0
  5 96  1  0  0  0
  6 25  1  0  0  0
  6 97  1  0  0  0
  6 98  1  0  0  0
  7  8  2  0  0  0
  7 26  1  0  0  0
  7 29  1  0  0  0
  8  9  1  0  0  0
  8 22  1  0  0  0
  9 10  1  0  0  0
  9 27  2  0  0  0
 10 11  2  0  0  0
 10 15  1  0  0  0
 11 12  1  0  0  0
 11 99  1  0  0  0
 12 13  2  0  0  0
 12100  1  0  0  0
 13 14  1  0  0  0
 13 31  1  0  0  0
 14 15  2  0  0  0
 14101  1  0  0  0
 15102  1  0  0  0
 16 17  2  0  0  0
 16 21  1  0  0  0
 16 31  1  0  0  0
 17 18  1  0  0  0
 17103  1  0  0  0
 18 19  2  0  0  0
 18104  1  0  0  0
 19 20  1  0  0  0
 19 24  1  0  0  0
 20 21  2  0  0  0
 20105  1  0  0  0
 21 23  1  0  0  0
 22 28  1  0  0  0
 22 32  2  0  0  0
 26 27  1  0  0  0
 28106  1  0  0  0
 28107  1  0  0  0
 29108  1  0  0  0
 29109  1  0  0  0
 33 34  1  0  0  0
 33 66  1  0  0  0
 33 70  2  0  0  0
 34 36  1  0  0  0
 34 59  1  0  0  0
 34110  1  0  0  0
 35 44  2  0  0  0
 35 45  1  0  0  0
 35 68  1  0  0  0
 36 56  1  0  0  0
 36111  1  0  0  0
 37 39  1  0  0  0
 37 47  1  0  0  0
 37 66  1  0  0  0
 37112  1  0  0  0
 38 43  2  0  0  0
 38 46  1  0  0  0
 38 47  1  0  0  0
 39 64  1  0  0  0
 39 67  2  0  0  0
 40 52  1  0  0  0
 40 53  2  0  0  0
 40 58  1  0  0  0
 41113  1  0  0  0
 41114  1  0  0  0
 41115  1  0  0  0
 41 48  1  0  0  0
 42 43  1  0  0  0
 42 66  1  0  0  0
 42116  1  0  0  0
 42117  1  0  0  0
 43 44  1  0  0  0
 44118  1  0  0  0
 45 46  2  0  0  0
 45119  1  0  0  0
 46120  1  0  0  0
 47121  1  0  0  0
 47122  1  0  0  0
 48 56  1  0  0  0
 48 65  1  0  0  0
 48123  1  0  0  0
 49 50  1  0  0  0
 49 53  1  0  0  0
 49 64  1  0  0  0
 49124  1  0  0  0
 50 51  1  0  0  0
 50125  1  0  0  0
 50126  1  0  0  0
 51 52  1  0  0  0
 51127  1  0  0  0
 51128  1  0  0  0
 52129  1  0  0  0
 52130  1  0  0  0
 53 54  1  0  0  0
 54 55  2  0  0  0
 54131  1  0  0  0
 55 57  1  0  0  0
 55132  1  0  0  0
 56 69  2  0  0  0
 57 58  2  0  0  0
 57133  1  0  0  0
 58134  1  0  0  0
 59 60  1  0  0  0
 59 61  1  0  0  0
 59 62  1  0  0  0
 60135  1  0  0  0
 60136  1  0  0  0
 60137  1  0  0  0
 61138  1  0  0  0
 61139  1  0  0  0
 61140  1  0  0  0
 62141  1  0  0  0
 62142  1  0  0  0
 62143  1  0  0  0
 63 65  1  0  0  0
 63144  1  0  0  0
 63145  1  0  0  0
 63146  1  0  0  0
 64147  1  0  0  0
 65148  1  0  0  0
 68 86  1  0  0  0
 71 74  2  0  0  0
 71 76  1  0  0  0
 71149  1  0  0  0
 72 75  1  0  0  0
 72 76  2  0  0  0
 72150  1  0  0  0
 73 74  1  0  0  0
 73 75  2  0  0  0
 73 82  1  0  0  0
 74 85  1  0  0  0
 75 87  1  0  0  0
 76 89  1  0  0  0
 77 79  1  0  0  0
 77 83  1  0  0  0
 77151  1  0  0  0
 77152  1  0  0  0
 78 80  1  0  0  0
 78 83  1  0  0  0
 78153  1  0  0  0
 78154  1  0  0  0
 79 88  1  0  0  0
 79155  1  0  0  0
 79156  1  0  0  0
 80 88  1  0  0  0
 80157  1  0  0  0
 80158  1  0  0  0
 81 82  1  0  0  0
 81 87  1  0  0  0
 81159  1  0  0  0
 81160  1  0  0  0
 82 84  1  0  0  0
 82161  1  0  0  0
 83 89  1  0  0  0
 83162  1  0  0  0
 84163  1  0  0  0
 84164  1  0  0  0
 84165  1  0  0  0
 85 86  1  0  0  0
 85166  1  0  0  0
 85167  1  0  0  0
 86168  1  0  0  0
 86169  1  0  0  0
 87170  1  0  0  0
M  ISO  4   1 100  68 101  86 101  88 100
M  END
> <chiral flag>
0

> <version>
0

> <s_m_source_file>
/data/baiqing/PycharmProjects/Reinvent-master-3.2/result/LINK_invent/BTK/process_docking_weight1_custom_sum_contain_oxygen_bond_distance_aromatic_linkinvent_7_9_3/rearranged_h_0151.sdf

> <i_m_source_file_index>
14

> <r_mmod_Potential_Energy-OPLS-2005>
289.697601318359

> <r_mmod_Stretch_Energy-OPLS-2005>
54.2334632873535

> <r_mmod_Bend_Energy-OPLS-2005>
187.745712280273

> <r_mmod_Torsional_Energy-OPLS-2005>
364.091918945312

> <r_mmod_Improper_Torsional_Energy-OPLS-2005>
10.540789604187

> <r_mmod_Van_der_Waal_Energy-OPLS-2005>
154.149429321289

> <r_mmod_Electrostatic_Energy-OPLS-2005>
-282.959930419922

> <r_mmod_Solvation_Energy-OPLS-2005>
-220.661819458008

> <b_mmod_Minimization_Converged-OPLS-2005>
0

> <r_mmod_RMS_Derivative-OPLS-2005>
3.4200222492218

$$$$
14
                    3D
 Structure written by MMmdl.
158167  0  0  1  0            999 V2000
  -30.4829  -15.1967   20.3749 C   0  0  0  0  0  0
  -30.4361  -12.7598   19.5324 C   0  0  0  0  0  0
  -29.5365  -12.5704   18.2852 C   0  0  0  0  0  0
  -28.0772  -12.3115   18.7026 C   0  0  0  0  0  0
  -27.6131  -13.2770   19.8231 C   0  0  2  0  0  0
  -28.6484  -13.4309   20.9607 C   0  0  0  0  0  0
  -25.2382  -13.8248   20.5723 C   0  0  0  0  0  0
  -24.1729  -13.0437   20.9250 C   0  0  0  0  0  0
  -24.6372  -11.6927   20.8740 C   0  0  0  0  0  0
  -23.9061  -10.4292   21.0383 C   0  0  0  0  0  0
  -24.3617   -9.4214   21.9154 C   0  0  0  0  0  0
  -23.6298   -8.2244   22.0732 C   0  0  0  0  0  0
  -22.4285   -8.0269   21.3520 C   0  0  0  0  0  0
  -21.9913   -9.0244   20.4630 C   0  0  0  0  0  0
  -22.7236  -10.2128   20.3030 C   0  0  0  0  0  0
  -21.6869   -6.0719   22.5248 C   0  0  0  0  0  0
  -21.4035   -6.5626   23.8174 C   0  0  0  0  0  0
  -21.3659   -5.6779   24.9133 C   0  0  0  0  0  0
  -21.6048   -4.3039   24.7192 C   0  0  0  0  0  0
  -21.8816   -3.8127   23.4311 C   0  0  0  0  0  0
  -21.9192   -4.6947   22.3372 C   0  0  0  0  0  0
  -22.7740  -13.5186   21.1894 C   0  0  0  0  0  0
  -22.1653   -4.2123   21.0958 F   0  0  0  0  0  0
  -21.5637   -3.4529   25.7710 F   0  0  0  0  0  0
  -29.8943  -13.9064   20.3447 N   0  0  0  0  0  0
  -26.2809  -12.9524   20.3194 N   0  0  0  0  0  0
  -25.9311  -11.6633   20.5705 N   0  0  0  0  0  0
  -22.0391  -12.8184   22.0471 N   0  0  0  0  0  0
  -25.4037  -15.1980   20.4134 N   0  0  0  0  0  0
  -31.6962  -15.1867   20.1340 O   0  0  0  0  0  0
  -21.6651   -6.8867   21.4212 O   0  0  0  0  0  0
  -22.3398  -14.5471   20.6695 O   0  0  0  0  0  0
  -24.6604  -31.8304   23.1749 C   0  0  0  0  0  0
  -25.9318  -32.4635   23.8208 C   0  0  1  0  0  0
  -27.2112  -26.9743   20.1666 C   0  0  0  0  0  0
  -25.6014  -33.8447   24.2131 N   0  0  0  0  0  0
  -23.4725  -30.4451   21.5252 C   0  0  2  0  0  0
  -24.9219  -28.8451   20.1091 C   0  0  0  0  0  0
  -22.7647  -29.4482   22.4804 C   0  0  0  0  0  0
  -18.0321  -28.1393   22.8467 C   0  0  0  0  0  0
  -24.1488  -36.7210   23.2633 C   0  0  0  0  0  0
  -26.0395  -30.6508   21.3985 C   0  0  0  0  0  0
  -26.1063  -29.2468   20.7390 C   0  0  0  0  0  0
  -27.2489  -28.3303   20.7469 C   0  0  0  0  0  0
  -26.0000  -26.7237   19.4802 C   0  0  0  0  0  0
  -24.8915  -27.6030   19.4591 C   0  0  0  0  0  0
  -23.7092  -29.7702   20.1487 C   0  0  0  0  0  0
  -25.4126  -36.2996   24.0305 C   0  0  1  0  0  0
  -20.5937  -28.3755   23.1183 C   0  0  2  0  0  0
  -20.6799  -26.9448   22.5387 C   0  0  0  0  0  0
  -19.5781  -26.6378   21.5192 C   0  0  0  0  0  0
  -18.1964  -26.7934   22.1600 C   0  0  0  0  0  0
  -19.1579  -28.8897   23.2818 C   0  0  0  0  0  0
  -18.9490  -30.1478   23.8868 C   0  0  0  0  0  0
  -17.6487  -30.6593   24.0551 C   0  0  0  0  0  0
  -25.9100  -34.9382   23.5027 C   0  0  0  0  0  0
  -16.5382  -29.9076   23.6334 C   0  0  0  0  0  0
  -16.7306  -28.6486   23.0377 C   0  0  0  0  0  0
  -26.4581  -31.6548   25.0713 C   0  0  0  0  0  0
  -25.3733  -31.3770   26.1388 C   0  0  0  0  0  0
  -27.0443  -30.2927   24.6372 C   0  0  0  0  0  0
  -27.6111  -32.4310   25.7496 C   0  0  0  0  0  0
  -27.5590  -37.1750   24.8463 C   0  0  0  0  0  0
  -21.4321  -29.3053   22.3542 N   0  0  0  0  0  0
  -26.4280  -37.3733   23.9437 N   0  0  0  0  0  0
  -24.7456  -31.0000   22.0873 N   0  0  0  0  0  0
  -23.4210  -28.8052   23.3045 O   0  0  0  0  0  0
  -28.1990  -25.8684   20.2547 O   0  0  0  0  0  0
  -26.5674  -34.8900   22.4599 O   0  0  0  0  0  0
  -23.5682  -32.1278   23.6864 O   0  0  0  0  0  0
  -29.8521  -22.2614   20.4154 C   0  0  0  0  0  0
  -27.7058  -21.5260   20.0618 C   0  0  0  0  0  0
  -28.5020  -22.7404   20.1999 C   0  0  0  0  0  0
  -30.3082  -20.8430   20.4593 C   0  0  0  0  0  0
  -28.1329  -20.1034   20.0871 C   0  0  0  0  0  0
  -29.4958  -19.6231   20.2642 C   0  0  0  0  0  0
  -30.1449  -18.9040   17.4297 C   0  0  0  0  0  0
  -30.5549  -17.9354   18.5211 C   0  0  2  0  0  0
  -31.8054  -20.6789   20.6964 C   0  0  0  0  0  0
  -27.0535  -19.0611   19.8518 C   0  0  0  0  0  0
  -27.8065  -24.3174   19.9858 C   0  0  0  0  0  0
  -30.1450  -18.0137   20.0049 C   0  0  2  0  0  0
  -29.7557  -16.4749   20.4438 N   0  0  0  0  0  0
  -31.4317  -18.9765   18.0509 O   0  0  0  0  0  0
  -31.4647  -12.9379   19.2141 H   0  0  0  0  0  0
  -30.4714  -11.8458   20.1267 H   0  0  0  0  0  0
  -29.9068  -11.7522   17.6667 H   0  0  0  0  0  0
  -29.5824  -13.4689   17.6681 H   0  0  0  0  0  0
  -28.0100  -11.2817   19.0539 H   0  0  0  0  0  0
  -27.4147  -12.3811   17.8383 H   0  0  0  0  0  0
  -27.5385  -14.2491   19.3326 H   0  0  0  0  0  0
  -28.7924  -12.4925   21.4979 H   0  0  0  0  0  0
  -28.3010  -14.1620   21.6932 H   0  0  0  0  0  0
  -25.2754   -9.5720   22.4728 H   0  0  0  0  0  0
  -24.0005   -7.4652   22.7477 H   0  0  0  0  0  0
  -21.0823   -8.8749   19.8964 H   0  0  0  0  0  0
  -22.3654  -10.9650   19.6140 H   0  0  0  0  0  0
  -21.2044   -7.6138   23.9673 H   0  0  0  0  0  0
  -21.1500   -6.0508   25.9041 H   0  0  0  0  0  0
  -22.0608   -2.7593   23.2801 H   0  0  0  0  0  0
  -22.4023  -11.9873   22.4905 H   0  0  0  0  0  0
  -21.0984  -13.1164   22.2634 H   0  0  0  0  0  0
  -24.6373  -15.8522   20.5258 H   0  0  0  0  0  0
  -26.2417  -15.6287   20.0477 H   0  0  0  0  0  0
  -26.7397  -32.5178   23.0921 H   0  0  0  0  0  0
  -25.0233  -33.9540   25.0339 H   0  0  0  0  0  0
  -22.7863  -31.2775   21.3593 H   0  0  0  0  0  0
  -23.3800  -35.9487   23.3214 H   0  0  0  0  0  0
  -24.3603  -36.8934   22.2071 H   0  0  0  0  0  0
  -23.7175  -37.6346   23.6728 H   0  0  0  0  0  0
  -26.2078  -31.3987   20.6229 H   0  0  0  0  0  0
  -26.9045  -30.7085   22.0479 H   0  0  0  0  0  0
  -28.1451  -28.6281   21.2726 H   0  0  0  0  0  0
  -25.8621  -25.7815   18.9716 H   0  0  0  0  0  0
  -23.9932  -27.2941   18.9427 H   0  0  0  0  0  0
  -23.8655  -30.5429   19.3946 H   0  0  0  0  0  0
  -22.8195  -29.2278   19.8278 H   0  0  0  0  0  0
  -25.1300  -36.1793   25.0792 H   0  0  0  0  0  0
  -21.0039  -28.3358   24.1302 H   0  0  0  0  0  0
  -20.5672  -26.2388   23.3625 H   0  0  0  0  0  0
  -21.6670  -26.7433   22.1214 H   0  0  0  0  0  0
  -19.6959  -25.6274   21.1268 H   0  0  0  0  0  0
  -19.6716  -27.3145   20.6683 H   0  0  0  0  0  0
  -17.4238  -26.6689   21.3995 H   0  0  0  0  0  0
  -18.0375  -26.0081   22.8999 H   0  0  0  0  0  0
  -19.7971  -30.7279   24.2269 H   0  0  0  0  0  0
  -17.5045  -31.6278   24.5141 H   0  0  0  0  0  0
  -15.5389  -30.2969   23.7663 H   0  0  0  0  0  0
  -15.8708  -28.0771   22.7140 H   0  0  0  0  0  0
  -24.5949  -30.7068   25.7720 H   0  0  0  0  0  0
  -24.8875  -32.2955   26.4699 H   0  0  0  0  0  0
  -25.8010  -30.9045   27.0247 H   0  0  0  0  0  0
  -26.3089  -29.6634   24.1353 H   0  0  0  0  0  0
  -27.3997  -29.7237   25.4975 H   0  0  0  0  0  0
  -27.9021  -30.4125   23.9747 H   0  0  0  0  0  0
  -27.2748  -33.3666   26.1955 H   0  0  0  0  0  0
  -28.3984  -32.6773   25.0363 H   0  0  0  0  0  0
  -28.0709  -31.8511   26.5502 H   0  0  0  0  0  0
  -28.2534  -38.0116   24.7608 H   0  0  0  0  0  0
  -28.1149  -36.2658   24.6147 H   0  0  0  0  0  0
  -27.2339  -37.1225   25.8868 H   0  0  0  0  0  0
  -20.9581  -29.8753   21.6672 H   0  0  0  0  0  0
  -26.0122  -38.2780   24.1498 H   0  0  0  0  0  0
  -30.6059  -23.0306   20.5276 H   0  0  0  0  0  0
  -26.6546  -21.7031   19.8804 H   0  0  0  0  0  0
  -29.4853  -19.7406   17.6465 H   0  0  0  0  0  0
  -30.1628  -18.5615   16.3972 H   0  0  0  0  0  0
  -30.8867  -16.9565   18.1846 H   0  0  0  0  0  0
  -32.2492  -21.5825   21.1135 H   0  0  0  0  0  0
  -32.3354  -20.4722   19.7674 H   0  0  0  0  0  0
  -32.0177  -19.8804   21.4069 H   0  0  0  0  0  0
  -26.0575  -19.5058   19.8156 H   0  0  0  0  0  0
  -27.0500  -18.3301   20.6594 H   0  0  0  0  0  0
  -27.2144  -18.5394   18.9082 H   0  0  0  0  0  0
  -26.8426  -24.2096   20.4850 H   0  0  0  0  0  0
  -27.5627  -24.3088   18.9247 H   0  0  0  0  0  0
  -31.0927  -18.0801   20.5366 H   0  0  0  0  0  0
  -28.7780  -16.3632   20.6604 H   0  0  0  0  0  0
  1 25  1  0  0  0
  1 30  2  0  0  0
  1 83  1  0  0  0
  2  3  1  0  0  0
  2 25  1  0  0  0
  2 85  1  0  0  0
  2 86  1  0  0  0
  3  4  1  0  0  0
  3 87  1  0  0  0
  3 88  1  0  0  0
  4  5  1  0  0  0
  4 89  1  0  0  0
  4 90  1  0  0  0
  5  6  1  0  0  0
  5 26  1  0  0  0
  5 91  1  0  0  0
  6 25  1  0  0  0
  6 92  1  0  0  0
  6 93  1  0  0  0
  7  8  2  0  0  0
  7 26  1  0  0  0
  7 29  1  0  0  0
  8  9  1  0  0  0
  8 22  1  0  0  0
  9 10  1  0  0  0
  9 27  2  0  0  0
 10 11  2  0  0  0
 10 15  1  0  0  0
 11 12  1  0  0  0
 11 94  1  0  0  0
 12 13  2  0  0  0
 12 95  1  0  0  0
 13 14  1  0  0  0
 13 31  1  0  0  0
 14 15  2  0  0  0
 14 96  1  0  0  0
 15 97  1  0  0  0
 16 17  2  0  0  0
 16 21  1  0  0  0
 16 31  1  0  0  0
 17 18  1  0  0  0
 17 98  1  0  0  0
 18 19  2  0  0  0
 18 99  1  0  0  0
 19 20  1  0  0  0
 19 24  1  0  0  0
 20 21  2  0  0  0
 20100  1  0  0  0
 21 23  1  0  0  0
 22 28  1  0  0  0
 22 32  2  0  0  0
 26 27  1  0  0  0
 28101  1  0  0  0
 28102  1  0  0  0
 29103  1  0  0  0
 29104  1  0  0  0
 33 34  1  0  0  0
 33 66  1  0  0  0
 33 70  2  0  0  0
 34 36  1  0  0  0
 34 59  1  0  0  0
 34105  1  0  0  0
 35 44  2  0  0  0
 35 45  1  0  0  0
 35 68  1  0  0  0
 36 56  1  0  0  0
 36106  1  0  0  0
 37 39  1  0  0  0
 37 47  1  0  0  0
 37 66  1  0  0  0
 37107  1  0  0  0
 38 43  2  0  0  0
 38 46  1  0  0  0
 38 47  1  0  0  0
 39 64  1  0  0  0
 39 67  2  0  0  0
 40 52  1  0  0  0
 40 53  2  0  0  0
 40 58  1  0  0  0
 41108  1  0  0  0
 41109  1  0  0  0
 41110  1  0  0  0
 41 48  1  0  0  0
 42 43  1  0  0  0
 42 66  1  0  0  0
 42111  1  0  0  0
 42112  1  0  0  0
 43 44  1  0  0  0
 44113  1  0  0  0
 45 46  2  0  0  0
 45114  1  0  0  0
 46115  1  0  0  0
 47116  1  0  0  0
 47117  1  0  0  0
 48 56  1  0  0  0
 48 65  1  0  0  0
 48118  1  0  0  0
 49 50  1  0  0  0
 49 53  1  0  0  0
 49 64  1  0  0  0
 49119  1  0  0  0
 50 51  1  0  0  0
 50120  1  0  0  0
 50121  1  0  0  0
 51 52  1  0  0  0
 51122  1  0  0  0
 51123  1  0  0  0
 52124  1  0  0  0
 52125  1  0  0  0
 53 54  1  0  0  0
 54 55  2  0  0  0
 54126  1  0  0  0
 55 57  1  0  0  0
 55127  1  0  0  0
 56 69  2  0  0  0
 57 58  2  0  0  0
 57128  1  0  0  0
 58129  1  0  0  0
 59 60  1  0  0  0
 59 61  1  0  0  0
 59 62  1  0  0  0
 60130  1  0  0  0
 60131  1  0  0  0
 60132  1  0  0  0
 61133  1  0  0  0
 61134  1  0  0  0
 61135  1  0  0  0
 62136  1  0  0  0
 62137  1  0  0  0
 62138  1  0  0  0
 63 65  1  0  0  0
 63139  1  0  0  0
 63140  1  0  0  0
 63141  1  0  0  0
 64142  1  0  0  0
 65143  1  0  0  0
 68 81  1  0  0  0
 71 73  2  0  0  0
 71 74  1  0  0  0
 71144  1  0  0  0
 72 73  1  0  0  0
 72 75  2  0  0  0
 72145  1  0  0  0
 73 81  1  0  0  0
 74 76  2  0  0  0
 74 79  1  0  0  0
 75 76  1  0  0  0
 75 80  1  0  0  0
 76 82  1  0  0  0
 77 84  1  0  0  0
 77146  1  0  0  0
 77147  1  0  0  0
 77 78  1  0  0  0
 78 82  1  0  0  0
 78 84  1  0  0  0
 78148  1  0  0  0
 79149  1  0  0  0
 79150  1  0  0  0
 79151  1  0  0  0
 80152  1  0  0  0
 80153  1  0  0  0
 80154  1  0  0  0
 81155  1  0  0  0
 81156  1  0  0  0
 82 83  1  0  0  0
 82157  1  0  0  0
 83158  1  0  0  0
M  ISO  4   1 100  68 101  81 101  83 100
M  END
> <chiral flag>
0

> <version>
0

> <s_m_source_file>
/data/baiqing/PycharmProjects/Reinvent-master-3.2/result/LINK_invent/BTK/process_docking_weight1_custom_sum_contain_oxygen_bond_distance_aromatic_linkinvent_7_9_3/rearranged_h_0151.sdf

> <i_m_source_file_index>
15

> <r_mmod_Potential_Energy-OPLS-2005>
1050.59106445312

> <r_mmod_Stretch_Energy-OPLS-2005>
464.352844238281

> <r_mmod_Bend_Energy-OPLS-2005>
430.640380859375

> <r_mmod_Torsional_Energy-OPLS-2005>
242.474014282227

> <r_mmod_Improper_Torsional_Energy-OPLS-2005>
7.23945808410645

> <r_mmod_Van_der_Waal_Energy-OPLS-2005>
131.624267578125

> <r_mmod_Electrostatic_Energy-OPLS-2005>
-399.461517333984

> <r_mmod_Solvation_Energy-OPLS-2005>
-219.907241821289

> <b_mmod_Minimization_Converged-OPLS-2005>
0

> <r_mmod_RMS_Derivative-OPLS-2005>
3.38761496543884

$$$$
15
                    3D
 Structure written by MMmdl.
171180  0  0  1  0            999 V2000
  -30.7015  -14.4926   20.5109 C   0  0  0  0  0  0
  -30.4258  -12.2948   19.4417 C   0  0  0  0  0  0
  -29.5050  -12.4695   18.2183 C   0  0  0  0  0  0
  -28.0245  -12.3361   18.6279 C   0  0  0  0  0  0
  -27.6573  -13.2010   19.8644 C   0  0  2  0  0  0
  -28.7006  -13.0309   20.9938 C   0  0  0  0  0  0
  -25.2569  -13.8139   20.5620 C   0  0  0  0  0  0
  -24.1823  -13.0430   20.9131 C   0  0  0  0  0  0
  -24.6361  -11.6904   20.8703 C   0  0  0  0  0  0
  -23.9033  -10.4288   21.0384 C   0  0  0  0  0  0
  -24.3613   -9.4167   21.9131 C   0  0  0  0  0  0
  -23.6269   -8.2231   22.0757 C   0  0  0  0  0  0
  -22.4238   -8.0293   21.3574 C   0  0  0  0  0  0
  -21.9836   -9.0279   20.4709 C   0  0  0  0  0  0
  -22.7164  -10.2147   20.3070 C   0  0  0  0  0  0
  -21.6848   -6.0712   22.5283 C   0  0  0  0  0  0
  -21.3978   -6.5628   23.8199 C   0  0  0  0  0  0
  -21.3672   -5.6805   24.9195 C   0  0  0  0  0  0
  -21.6049   -4.3069   24.7272 C   0  0  0  0  0  0
  -21.8791   -3.8128   23.4397 C   0  0  0  0  0  0
  -21.9168   -4.6947   22.3430 C   0  0  0  0  0  0
  -22.7842  -13.5262   21.1767 C   0  0  0  0  0  0
  -22.1652   -4.2107   21.1023 F   0  0  0  0  0  0
  -21.5619   -3.4550   25.7787 F   0  0  0  0  0  0
  -30.0295  -13.3101   20.4270 N   0  0  0  0  0  0
  -26.3006  -12.9295   20.3324 N   0  0  0  0  0  0
  -25.9283  -11.6483   20.5719 N   0  0  0  0  0  0
  -22.0403  -12.8294   22.0301 N   0  0  0  0  0  0
  -25.4311  -15.1860   20.3977 N   0  0  0  0  0  0
  -31.8780  -14.6191   20.1641 O   0  0  0  0  0  0
  -21.6640   -6.8864   21.4238 O   0  0  0  0  0  0
  -22.3554  -14.5534   20.6599 O   0  0  0  0  0  0
  -24.6131  -31.8686   23.2128 C   0  0  0  0  0  0
  -25.9012  -32.4827   23.8431 C   0  0  1  0  0  0
  -27.2303  -27.4305   20.1044 C   0  0  0  0  0  0
  -25.5858  -33.8623   24.2333 N   0  0  0  0  0  0
  -23.4044  -30.4909   21.5510 C   0  0  2  0  0  0
  -24.8555  -28.9610   20.1147 C   0  0  0  0  0  0
  -22.7407  -29.4645   22.4986 C   0  0  0  0  0  0
  -18.0273  -28.1373   22.8472 C   0  0  0  0  0  0
  -24.1505  -36.7330   23.2641 C   0  0  0  0  0  0
  -25.9348  -30.8267   21.3781 C   0  0  0  0  0  0
  -26.0117  -29.4608   20.7262 C   0  0  0  0  0  0
  -27.2021  -28.6964   20.7319 C   0  0  0  0  0  0
  -26.0771  -26.9729   19.4381 C   0  0  0  0  0  0
  -24.8821  -27.7141   19.4670 C   0  0  0  0  0  0
  -23.6161  -29.8265   20.1652 C   0  0  0  0  0  0
  -25.4119  -36.3108   24.0337 C   0  0  1  0  0  0
  -20.5857  -28.3663   23.1320 C   0  0  2  0  0  0
  -20.6759  -26.9404   22.5412 C   0  0  0  0  0  0
  -19.5756  -26.6386   21.5197 C   0  0  0  0  0  0
  -18.1935  -26.7931   22.1611 C   0  0  0  0  0  0
  -19.1516  -28.8840   23.2894 C   0  0  0  0  0  0
  -18.9446  -30.1435   23.8920 C   0  0  0  0  0  0
  -17.6449  -30.6581   24.0564 C   0  0  0  0  0  0
  -25.9038  -34.9464   23.5141 C   0  0  0  0  0  0
  -16.5343  -29.9083   23.6322 C   0  0  0  0  0  0
  -16.7256  -28.6501   23.0342 C   0  0  0  0  0  0
  -26.4471  -31.6613   25.0743 C   0  0  0  0  0  0
  -25.3747  -31.3715   26.1504 C   0  0  0  0  0  0
  -27.0313  -30.3059   24.6105 C   0  0  0  0  0  0
  -27.6055  -32.4359   25.7459 C   0  0  0  0  0  0
  -27.5600  -37.1811   24.8456 C   0  0  0  0  0  0
  -21.4137  -29.3021   22.3712 N   0  0  0  0  0  0
  -26.4307  -37.3786   23.9408 N   0  0  0  0  0  0
  -24.6671  -31.0789   22.1041 N   0  0  0  0  0  0
  -23.4170  -28.8151   23.3018 O   0  0  0  0  0  0
  -28.3685  -26.6541   20.0969 O   0  0  0  0  0  0
  -26.5616  -34.8904   22.4713 O   0  0  0  0  0  0
  -23.5318  -32.1433   23.7510 O   0  0  0  0  0  0
  -26.4162  -24.1165   20.6724 C   0  0  0  0  0  0
  -25.8293  -22.9313   20.1926 C   0  0  0  0  0  0
  -28.6140  -23.1202   20.4323 C   0  0  0  0  0  0
  -27.8155  -24.2617   20.7112 C   0  0  0  0  0  0
  -26.6219  -21.8190   19.8251 C   0  0  0  0  0  0
  -28.0314  -21.8949   20.0122 C   0  0  0  0  0  0
  -29.0261  -17.7285   19.5831 C   0  0  0  0  0  0
  -30.3778  -17.7954   21.7298 C   0  0  0  0  0  0
  -29.6954  -16.3645   19.3499 C   0  0  0  0  0  0
  -29.7991  -16.3581   21.8460 C   0  0  0  0  0  0
  -29.8727  -18.6207   20.5102 C   0  0  0  0  0  0
  -25.8681  -20.7287   17.6689 C   0  0  0  0  0  0
  -24.5546  -20.2679   19.7775 C   0  0  0  0  0  0
  -28.4374  -25.6145   21.0983 C   0  0  0  0  0  0
  -29.1465  -19.9376   20.9032 C   0  0  0  0  0  0
  -25.9467  -20.5872   19.1988 C   0  0  0  0  0  0
  -29.9094  -15.5907   20.5900 N   0  0  0  0  0  0
  -28.8523  -20.7847   19.7438 N   0  0  0  0  0  0
  -31.4738  -12.3823   19.1504 H   0  0  0  0  0  0
  -30.3195  -11.2957   19.8687 H   0  0  0  0  0  0
  -29.7545  -11.7210   17.4650 H   0  0  0  0  0  0
  -29.6791  -13.4446   17.7598 H   0  0  0  0  0  0
  -27.8483  -11.2840   18.8564 H   0  0  0  0  0  0
  -27.3695  -12.5831   17.7908 H   0  0  0  0  0  0
  -27.6747  -14.2376   19.5347 H   0  0  0  0  0  0
  -28.6746  -12.0211   21.4017 H   0  0  0  0  0  0
  -28.4713  -13.6959   21.8287 H   0  0  0  0  0  0
  -25.2796   -9.5611   22.4657 H   0  0  0  0  0  0
  -24.0003   -7.4588   22.7415 H   0  0  0  0  0  0
  -21.0752   -8.8785   19.9038 H   0  0  0  0  0  0
  -22.3618  -10.9695   19.6176 H   0  0  0  0  0  0
  -21.1933   -7.6115   23.9706 H   0  0  0  0  0  0
  -21.1528   -6.0548   25.9109 H   0  0  0  0  0  0
  -22.0531   -2.7595   23.2914 H   0  0  0  0  0  0
  -22.3990  -11.9971   22.4722 H   0  0  0  0  0  0
  -21.0997  -13.1318   22.2417 H   0  0  0  0  0  0
  -24.6509  -15.8345   20.4263 H   0  0  0  0  0  0
  -26.2855  -15.6113   20.0647 H   0  0  0  0  0  0
  -26.7059  -32.5542   23.1179 H   0  0  0  0  0  0
  -24.9942  -33.9803   25.0431 H   0  0  0  0  0  0
  -22.6955  -31.3086   21.4114 H   0  0  0  0  0  0
  -23.3754  -35.9683   23.3312 H   0  0  0  0  0  0
  -24.3616  -36.8937   22.2061 H   0  0  0  0  0  0
  -23.7277  -37.6542   23.6661 H   0  0  0  0  0  0
  -26.0574  -31.5907   20.6114 H   0  0  0  0  0  0
  -26.8198  -30.8776   22.0000 H   0  0  0  0  0  0
  -28.0899  -29.0671   21.2258 H   0  0  0  0  0  0
  -26.1037  -26.0374   18.8982 H   0  0  0  0  0  0
  -24.0009  -27.3348   18.9690 H   0  0  0  0  0  0
  -23.7249  -30.6038   19.4086 H   0  0  0  0  0  0
  -22.7427  -29.2442   19.8662 H   0  0  0  0  0  0
  -25.1300  -36.1977   25.0831 H   0  0  0  0  0  0
  -20.9962  -28.3229   24.1445 H   0  0  0  0  0  0
  -20.5669  -26.2269   23.3576 H   0  0  0  0  0  0
  -21.6634  -26.7440   22.1208 H   0  0  0  0  0  0
  -19.6928  -25.6299   21.1217 H   0  0  0  0  0  0
  -19.6722  -27.3204   20.6734 H   0  0  0  0  0  0
  -17.4194  -26.6641   21.4023 H   0  0  0  0  0  0
  -18.0364  -26.0074   22.9023 H   0  0  0  0  0  0
  -19.7922  -30.7221   24.2340 H   0  0  0  0  0  0
  -17.5013  -31.6285   24.5133 H   0  0  0  0  0  0
  -15.5349  -30.2996   23.7652 H   0  0  0  0  0  0
  -15.8648  -28.0826   22.7068 H   0  0  0  0  0  0
  -24.5804  -30.7217   25.7822 H   0  0  0  0  0  0
  -24.9080  -32.2880   26.5111 H   0  0  0  0  0  0
  -25.8074  -30.8712   27.0170 H   0  0  0  0  0  0
  -26.2871  -29.6829   24.1129 H   0  0  0  0  0  0
  -27.4078  -29.7278   25.4559 H   0  0  0  0  0  0
  -27.8714  -30.4443   23.9286 H   0  0  0  0  0  0
  -27.2648  -33.3574   26.2194 H   0  0  0  0  0  0
  -28.3734  -32.7059   25.0198 H   0  0  0  0  0  0
  -28.0891  -31.8413   26.5223 H   0  0  0  0  0  0
  -28.2583  -38.0133   24.7481 H   0  0  0  0  0  0
  -28.1103  -36.2647   24.6276 H   0  0  0  0  0  0
  -27.2314  -37.1465   25.8853 H   0  0  0  0  0  0
  -20.9301  -29.8756   21.6935 H   0  0  0  0  0  0
  -26.0190  -38.2868   24.1384 H   0  0  0  0  0  0
  -25.7752  -24.9319   20.9744 H   0  0  0  0  0  0
  -24.7529  -22.9068   20.1080 H   0  0  0  0  0  0
  -29.6909  -23.1923   20.5135 H   0  0  0  0  0  0
  -28.0290  -17.5782   20.0034 H   0  0  0  0  0  0
  -28.8822  -18.2196   18.6213 H   0  0  0  0  0  0
  -31.4659  -17.7100   21.6545 H   0  0  0  0  0  0
  -30.2020  -18.3343   22.6614 H   0  0  0  0  0  0
  -30.6472  -16.5164   18.8363 H   0  0  0  0  0  0
  -29.0805  -15.7762   18.6641 H   0  0  0  0  0  0
  -28.7447  -16.4072   22.1163 H   0  0  0  0  0  0
  -30.2931  -15.8318   22.6644 H   0  0  0  0  0  0
  -30.7673  -18.9120   19.9530 H   0  0  0  0  0  0
  -26.8587  -20.8645   17.2338 H   0  0  0  0  0  0
  -25.2574  -21.5821   17.3734 H   0  0  0  0  0  0
  -25.4301  -19.8384   17.2122 H   0  0  0  0  0  0
  -24.5977  -20.1421   20.8591 H   0  0  0  0  0  0
  -24.1688  -19.3374   19.3560 H   0  0  0  0  0  0
  -23.8172  -21.0394   19.5530 H   0  0  0  0  0  0
  -29.4919  -25.4568   21.3275 H   0  0  0  0  0  0
  -27.9860  -25.9621   22.0311 H   0  0  0  0  0  0
  -29.7703  -20.4997   21.5994 H   0  0  0  0  0  0
  -28.2215  -19.7042   21.4335 H   0  0  0  0  0  0
  -26.5590  -19.7126   19.4206 H   0  0  0  0  0  0
  -28.4685  -20.2148   18.9957 H   0  0  0  0  0  0
  1 25  1  0  0  0
  1 30  2  0  0  0
  1 87  1  0  0  0
  2  3  1  0  0  0
  2 25  1  0  0  0
  2 89  1  0  0  0
  2 90  1  0  0  0
  3  4  1  0  0  0
  3 91  1  0  0  0
  3 92  1  0  0  0
  4  5  1  0  0  0
  4 93  1  0  0  0
  4 94  1  0  0  0
  5  6  1  0  0  0
  5 26  1  0  0  0
  5 95  1  0  0  0
  6 25  1  0  0  0
  6 96  1  0  0  0
  6 97  1  0  0  0
  7  8  2  0  0  0
  7 26  1  0  0  0
  7 29  1  0  0  0
  8  9  1  0  0  0
  8 22  1  0  0  0
  9 10  1  0  0  0
  9 27  2  0  0  0
 10 11  2  0  0  0
 10 15  1  0  0  0
 11 12  1  0  0  0
 11 98  1  0  0  0
 12 13  2  0  0  0
 12 99  1  0  0  0
 13 14  1  0  0  0
 13 31  1  0  0  0
 14 15  2  0  0  0
 14100  1  0  0  0
 15101  1  0  0  0
 16 17  2  0  0  0
 16 21  1  0  0  0
 16 31  1  0  0  0
 17 18  1  0  0  0
 17102  1  0  0  0
 18 19  2  0  0  0
 18103  1  0  0  0
 19 20  1  0  0  0
 19 24  1  0  0  0
 20 21  2  0  0  0
 20104  1  0  0  0
 21 23  1  0  0  0
 22 28  1  0  0  0
 22 32  2  0  0  0
 26 27  1  0  0  0
 28105  1  0  0  0
 28106  1  0  0  0
 29107  1  0  0  0
 29108  1  0  0  0
 33 34  1  0  0  0
 33 66  1  0  0  0
 33 70  2  0  0  0
 34 36  1  0  0  0
 34 59  1  0  0  0
 34109  1  0  0  0
 35 44  2  0  0  0
 35 45  1  0  0  0
 35 68  1  0  0  0
 36 56  1  0  0  0
 36110  1  0  0  0
 37 39  1  0  0  0
 37 47  1  0  0  0
 37 66  1  0  0  0
 37111  1  0  0  0
 38 43  2  0  0  0
 38 46  1  0  0  0
 38 47  1  0  0  0
 39 64  1  0  0  0
 39 67  2  0  0  0
 40 52  1  0  0  0
 40 53  2  0  0  0
 40 58  1  0  0  0
 41112  1  0  0  0
 41113  1  0  0  0
 41114  1  0  0  0
 41 48  1  0  0  0
 42 43  1  0  0  0
 42 66  1  0  0  0
 42115  1  0  0  0
 42116  1  0  0  0
 43 44  1  0  0  0
 44117  1  0  0  0
 45 46  2  0  0  0
 45118  1  0  0  0
 46119  1  0  0  0
 47120  1  0  0  0
 47121  1  0  0  0
 48 56  1  0  0  0
 48 65  1  0  0  0
 48122  1  0  0  0
 49 50  1  0  0  0
 49 53  1  0  0  0
 49 64  1  0  0  0
 49123  1  0  0  0
 50 51  1  0  0  0
 50124  1  0  0  0
 50125  1  0  0  0
 51 52  1  0  0  0
 51126  1  0  0  0
 51127  1  0  0  0
 52128  1  0  0  0
 52129  1  0  0  0
 53 54  1  0  0  0
 54 55  2  0  0  0
 54130  1  0  0  0
 55 57  1  0  0  0
 55131  1  0  0  0
 56 69  2  0  0  0
 57 58  2  0  0  0
 57132  1  0  0  0
 58133  1  0  0  0
 59 60  1  0  0  0
 59 61  1  0  0  0
 59 62  1  0  0  0
 60134  1  0  0  0
 60135  1  0  0  0
 60136  1  0  0  0
 61137  1  0  0  0
 61138  1  0  0  0
 61139  1  0  0  0
 62140  1  0  0  0
 62141  1  0  0  0
 62142  1  0  0  0
 63 65  1  0  0  0
 63143  1  0  0  0
 63144  1  0  0  0
 63145  1  0  0  0
 64146  1  0  0  0
 65147  1  0  0  0
 68 84  1  0  0  0
 71 72  2  0  0  0
 71 74  1  0  0  0
 71148  1  0  0  0
 72 75  1  0  0  0
 72149  1  0  0  0
 73 74  2  0  0  0
 73 76  1  0  0  0
 73150  1  0  0  0
 74 84  1  0  0  0
 75 76  2  0  0  0
 75 86  1  0  0  0
 76 88  1  0  0  0
 77 79  1  0  0  0
 77 81  1  0  0  0
 77151  1  0  0  0
 77152  1  0  0  0
 78 80  1  0  0  0
 78 81  1  0  0  0
 78153  1  0  0  0
 78154  1  0  0  0
 79 87  1  0  0  0
 79155  1  0  0  0
 79156  1  0  0  0
 80 87  1  0  0  0
 80157  1  0  0  0
 80158  1  0  0  0
 81 85  1  0  0  0
 81159  1  0  0  0
 82160  1  0  0  0
 82161  1  0  0  0
 82162  1  0  0  0
 82 86  1  0  0  0
 83 86  1  0  0  0
 83163  1  0  0  0
 83164  1  0  0  0
 83165  1  0  0  0
 84166  1  0  0  0
 84167  1  0  0  0
 85 88  1  0  0  0
 85168  1  0  0  0
 85169  1  0  0  0
 86170  1  0  0  0
 88171  1  0  0  0
M  ISO  4   1 100  68 101  84 101  87 100
M  END
> <chiral flag>
0

> <version>
0

> <s_m_source_file>
/data/baiqing/PycharmProjects/Reinvent-master-3.2/result/LINK_invent/BTK/process_docking_weight1_custom_sum_contain_oxygen_bond_distance_aromatic_linkinvent_7_9_3/rearranged_h_0151.sdf

> <i_m_source_file_index>
16

> <r_mmod_Potential_Energy-OPLS-2005>
237.828842163086

> <r_mmod_Stretch_Energy-OPLS-2005>
43.0208206176758

> <r_mmod_Bend_Energy-OPLS-2005>
97.9142456054688

> <r_mmod_Torsional_Energy-OPLS-2005>
410.560546875

> <r_mmod_Improper_Torsional_Energy-OPLS-2005>
19.4547157287598

> <r_mmod_Van_der_Waal_Energy-OPLS-2005>
150.476470947266

> <r_mmod_Electrostatic_Energy-OPLS-2005>
-313.370269775391

> <r_mmod_Solvation_Energy-OPLS-2005>
-189.912353515625

> <b_mmod_Minimization_Converged-OPLS-2005>
0

> <r_mmod_RMS_Derivative-OPLS-2005>
4.99016332626343

$$$$
16
                    3D
 Structure written by MMmdl.
155163  0  0  1  0            999 V2000
  -30.5136  -14.8540   20.4431 C   0  0  0  0  0  0
  -30.4614  -12.5209   19.4703 C   0  0  0  0  0  0
  -29.5240  -12.5220   18.2394 C   0  0  0  0  0  0
  -28.0559  -12.3011   18.6590 C   0  0  0  0  0  0
  -27.6404  -13.2175   19.8381 C   0  0  2  0  0  0
  -28.6855  -13.1762   20.9744 C   0  0  0  0  0  0
  -25.2538  -13.8132   20.5676 C   0  0  0  0  0  0
  -24.1819  -13.0431   20.9226 C   0  0  0  0  0  0
  -24.6380  -11.6891   20.8751 C   0  0  0  0  0  0
  -23.9047  -10.4297   21.0414 C   0  0  0  0  0  0
  -24.3604   -9.4217   21.9190 C   0  0  0  0  0  0
  -23.6278   -8.2245   22.0755 C   0  0  0  0  0  0
  -22.4265   -8.0271   21.3538 C   0  0  0  0  0  0
  -21.9909   -9.0239   20.4646 C   0  0  0  0  0  0
  -22.7221  -10.2126   20.3059 C   0  0  0  0  0  0
  -21.6850   -6.0738   22.5284 C   0  0  0  0  0  0
  -21.4010   -6.5637   23.8215 C   0  0  0  0  0  0
  -21.3648   -5.6794   24.9180 C   0  0  0  0  0  0
  -21.6043   -4.3055   24.7234 C   0  0  0  0  0  0
  -21.8821   -3.8147   23.4355 C   0  0  0  0  0  0
  -21.9193   -4.6971   22.3410 C   0  0  0  0  0  0
  -22.7840  -13.5229   21.1849 C   0  0  0  0  0  0
  -22.1649   -4.2170   21.0982 F   0  0  0  0  0  0
  -21.5645   -3.4526   25.7735 F   0  0  0  0  0  0
  -29.9835  -13.5722   20.4056 N   0  0  0  0  0  0
  -26.2942  -12.9299   20.3211 N   0  0  0  0  0  0
  -25.9307  -11.6475   20.5721 N   0  0  0  0  0  0
  -22.0458  -12.8259   22.0402 N   0  0  0  0  0  0
  -25.4261  -15.1858   20.4056 N   0  0  0  0  0  0
  -31.6845  -15.0108   20.0822 O   0  0  0  0  0  0
  -21.6628   -6.8870   21.4238 O   0  0  0  0  0  0
  -22.3557  -14.5546   20.6667 O   0  0  0  0  0  0
  -24.6433  -31.8428   23.1928 C   0  0  0  0  0  0
  -25.9220  -32.4666   23.8301 C   0  0  1  0  0  0
  -27.2209  -27.1820   20.1243 C   0  0  0  0  0  0
  -25.5946  -33.8469   24.2207 N   0  0  0  0  0  0
  -23.4432  -30.4665   21.5365 C   0  0  2  0  0  0
  -24.8902  -28.9040   20.1045 C   0  0  0  0  0  0
  -22.7548  -29.4550   22.4866 C   0  0  0  0  0  0
  -18.0276  -28.1375   22.8455 C   0  0  0  0  0  0
  -24.1474  -36.7248   23.2654 C   0  0  0  0  0  0
  -25.9998  -30.7267   21.3897 C   0  0  0  0  0  0
  -26.0662  -29.3477   20.7193 C   0  0  0  0  0  0
  -27.2323  -28.5017   20.7153 C   0  0  0  0  0  0
  -26.0197  -26.8306   19.4685 C   0  0  0  0  0  0
  -24.8752  -27.6545   19.4700 C   0  0  0  0  0  0
  -23.6648  -29.8016   20.1531 C   0  0  0  0  0  0
  -25.4100  -36.3007   24.0337 C   0  0  1  0  0  0
  -20.5889  -28.3683   23.1207 C   0  0  2  0  0  0
  -20.6743  -26.9371   22.5387 C   0  0  0  0  0  0
  -19.5719  -26.6349   21.5181 C   0  0  0  0  0  0
  -18.1903  -26.7913   22.1585 C   0  0  0  0  0  0
  -19.1542  -28.8854   23.2808 C   0  0  0  0  0  0
  -18.9491  -30.1470   23.8814 C   0  0  0  0  0  0
  -17.6494  -30.6581   24.0563 C   0  0  0  0  0  0
  -25.9073  -34.9379   23.5094 C   0  0  0  0  0  0
  -16.5380  -29.9077   23.6353 C   0  0  0  0  0  0
  -16.7277  -28.6509   23.0343 C   0  0  0  0  0  0
  -26.4545  -31.6541   25.0752 C   0  0  0  0  0  0
  -25.3781  -31.3707   26.1508 C   0  0  0  0  0  0
  -27.0430  -30.2927   24.6380 C   0  0  0  0  0  0
  -27.6038  -32.4371   25.7521 C   0  0  0  0  0  0
  -27.5586  -37.1732   24.8446 C   0  0  0  0  0  0
  -21.4237  -29.3025   22.3598 N   0  0  0  0  0  0
  -26.4250  -37.3734   23.9469 N   0  0  0  0  0  0
  -24.7152  -31.0326   22.0932 N   0  0  0  0  0  0
  -23.4198  -28.8082   23.3007 O   0  0  0  0  0  0
  -28.2838  -26.2244   20.2020 O   0  0  0  0  0  0
  -26.5651  -34.8887   22.4671 O   0  0  0  0  0  0
  -23.5566  -32.1284   23.7171 O   0  0  0  0  0  0
  -29.0753  -18.6311   21.5455 C   0  0  0  0  0  0
  -29.7789  -19.8599   19.1973 C   0  0  0  0  0  0
  -29.6604  -17.7437   20.5747 C   0  0  0  0  0  0
  -28.8070  -20.0437   21.3645 C   0  0  0  0  0  0
  -30.0288  -18.4370   19.3692 C   0  0  0  0  0  0
  -29.1474  -20.7340   20.1533 C   0  0  0  0  0  0
  -28.0276  -20.7587   22.4641 C   0  0  0  0  0  0
  -30.6470  -17.6749   18.1990 C   0  0  0  0  0  0
  -29.5804  -16.1334   20.8644 C   0  0  0  0  0  0
  -28.0278  -24.7306   19.9330 C   0  0  0  0  0  0
  -28.9363  -23.4225   20.4085 C   0  0  0  0  0  0
  -28.7142  -22.0655   19.7591 O   0  0  0  0  0  0
  -31.4897  -12.7013   19.1522 H   0  0  0  0  0  0
  -30.4664  -11.5438   19.9593 H   0  0  0  0  0  0
  -29.8360  -11.7551   17.5295 H   0  0  0  0  0  0
  -29.6184  -13.4729   17.7124 H   0  0  0  0  0  0
  -27.9571  -11.2565   18.9598 H   0  0  0  0  0  0
  -27.3880  -12.4369   17.8096 H   0  0  0  0  0  0
  -27.6195  -14.2260   19.4264 H   0  0  0  0  0  0
  -28.7457  -12.1783   21.4117 H   0  0  0  0  0  0
  -28.3913  -13.8445   21.7851 H   0  0  0  0  0  0
  -25.2758   -9.5685   22.4771 H   0  0  0  0  0  0
  -23.9991   -7.4656   22.7477 H   0  0  0  0  0  0
  -21.0843   -8.8744   19.8955 H   0  0  0  0  0  0
  -22.3679  -10.9655   19.6160 H   0  0  0  0  0  0
  -21.1980   -7.6146   23.9737 H   0  0  0  0  0  0
  -21.1468   -6.0511   25.9082 H   0  0  0  0  0  0
  -22.0607   -2.7617   23.2856 H   0  0  0  0  0  0
  -22.4004  -11.9920   22.4846 H   0  0  0  0  0  0
  -21.1066  -13.1297   22.2522 H   0  0  0  0  0  0
  -24.6620  -15.8415   20.5222 H   0  0  0  0  0  0
  -26.2660  -15.6202   20.0448 H   0  0  0  0  0  0
  -26.7308  -32.5246   23.1042 H   0  0  0  0  0  0
  -25.0018  -33.9567   25.0309 H   0  0  0  0  0  0
  -22.7488  -31.2948   21.3848 H   0  0  0  0  0  0
  -23.3754  -35.9551   23.3209 H   0  0  0  0  0  0
  -24.3594  -36.8993   22.2093 H   0  0  0  0  0  0
  -23.7204  -37.6402   23.6771 H   0  0  0  0  0  0
  -26.1732  -31.4892   20.6291 H   0  0  0  0  0  0
  -26.8651  -30.7536   22.0404 H   0  0  0  0  0  0
  -28.1289  -28.8380   21.2138 H   0  0  0  0  0  0
  -25.9282  -25.8821   18.9634 H   0  0  0  0  0  0
  -23.9770  -27.3065   18.9781 H   0  0  0  0  0  0
  -23.7944  -30.5792   19.4000 H   0  0  0  0  0  0
  -22.7813  -29.2417   19.8419 H   0  0  0  0  0  0
  -25.1273  -36.1802   25.0823 H   0  0  0  0  0  0
  -20.9986  -28.3245   24.1324 H   0  0  0  0  0  0
  -20.5545  -26.2301   23.3608 H   0  0  0  0  0  0
  -21.6611  -26.7297   22.1237 H   0  0  0  0  0  0
  -19.6865  -25.6247   21.1224 H   0  0  0  0  0  0
  -19.6684  -27.3147   20.6699 H   0  0  0  0  0  0
  -17.4172  -26.6684   21.3980 H   0  0  0  0  0  0
  -18.0269  -26.0047   22.8965 H   0  0  0  0  0  0
  -19.7979  -30.7301   24.2102 H   0  0  0  0  0  0
  -17.5064  -31.6240   24.5193 H   0  0  0  0  0  0
  -15.5386  -30.2979   23.7728 H   0  0  0  0  0  0
  -15.8651  -28.0858   22.7053 H   0  0  0  0  0  0
  -24.5879  -30.7140   25.7858 H   0  0  0  0  0  0
  -24.9095  -32.2882   26.5056 H   0  0  0  0  0  0
  -25.8113  -30.8776   27.0227 H   0  0  0  0  0  0
  -26.3057  -29.6612   24.1405 H   0  0  0  0  0  0
  -27.4041  -29.7254   25.4979 H   0  0  0  0  0  0
  -27.8961  -30.4138   23.9699 H   0  0  0  0  0  0
  -27.2555  -33.3650   26.2071 H   0  0  0  0  0  0
  -28.3814  -32.7009   25.0336 H   0  0  0  0  0  0
  -28.0769  -31.8578   26.5468 H   0  0  0  0  0  0
  -28.2478  -38.0139   24.7636 H   0  0  0  0  0  0
  -28.1203  -36.2692   24.6055 H   0  0  0  0  0  0
  -27.2361  -37.1108   25.8849 H   0  0  0  0  0  0
  -20.9449  -29.8801   21.6820 H   0  0  0  0  0  0
  -26.0096  -38.2770   24.1580 H   0  0  0  0  0  0
  -28.7288  -18.1837   22.4695 H   0  0  0  0  0  0
  -30.0284  -20.2909   18.2361 H   0  0  0  0  0  0
  -27.8028  -20.0957   23.3024 H   0  0  0  0  0  0
  -27.0715  -21.1259   22.0856 H   0  0  0  0  0  0
  -28.5838  -21.5989   22.8771 H   0  0  0  0  0  0
  -30.5496  -18.2196   17.2547 H   0  0  0  0  0  0
  -30.1712  -16.7065   18.0474 H   0  0  0  0  0  0
  -31.7140  -17.5061   18.3591 H   0  0  0  0  0  0
  -28.5842  -15.8870   20.5016 H   0  0  0  0  0  0
  -29.5036  -16.0401   21.9471 H   0  0  0  0  0  0
  -27.0287  -24.5078   20.3099 H   0  0  0  0  0  0
  -27.9506  -24.6559   18.8476 H   0  0  0  0  0  0
  -28.8655  -23.3319   21.4911 H   0  0  0  0  0  0
  -29.9808  -23.6677   20.2093 H   0  0  0  0  0  0
  1 25  1  0  0  0
  1 30  2  0  0  0
  1 79  1  0  0  0
  2  3  1  0  0  0
  2 25  1  0  0  0
  2 83  1  0  0  0
  2 84  1  0  0  0
  3  4  1  0  0  0
  3 85  1  0  0  0
  3 86  1  0  0  0
  4  5  1  0  0  0
  4 87  1  0  0  0
  4 88  1  0  0  0
  5  6  1  0  0  0
  5 26  1  0  0  0
  5 89  1  0  0  0
  6 25  1  0  0  0
  6 90  1  0  0  0
  6 91  1  0  0  0
  7  8  2  0  0  0
  7 26  1  0  0  0
  7 29  1  0  0  0
  8  9  1  0  0  0
  8 22  1  0  0  0
  9 10  1  0  0  0
  9 27  2  0  0  0
 10 11  2  0  0  0
 10 15  1  0  0  0
 11 12  1  0  0  0
 11 92  1  0  0  0
 12 13  2  0  0  0
 12 93  1  0  0  0
 13 14  1  0  0  0
 13 31  1  0  0  0
 14 15  2  0  0  0
 14 94  1  0  0  0
 15 95  1  0  0  0
 16 17  2  0  0  0
 16 21  1  0  0  0
 16 31  1  0  0  0
 17 18  1  0  0  0
 17 96  1  0  0  0
 18 19  2  0  0  0
 18 97  1  0  0  0
 19 20  1  0  0  0
 19 24  1  0  0  0
 20 21  2  0  0  0
 20 98  1  0  0  0
 21 23  1  0  0  0
 22 28  1  0  0  0
 22 32  2  0  0  0
 26 27  1  0  0  0
 28 99  1  0  0  0
 28100  1  0  0  0
 29101  1  0  0  0
 29102  1  0  0  0
 33 34  1  0  0  0
 33 66  1  0  0  0
 33 70  2  0  0  0
 34 36  1  0  0  0
 34 59  1  0  0  0
 34103  1  0  0  0
 35 44  2  0  0  0
 35 45  1  0  0  0
 35 68  1  0  0  0
 36 56  1  0  0  0
 36104  1  0  0  0
 37 39  1  0  0  0
 37 47  1  0  0  0
 37 66  1  0  0  0
 37105  1  0  0  0
 38 43  2  0  0  0
 38 46  1  0  0  0
 38 47  1  0  0  0
 39 64  1  0  0  0
 39 67  2  0  0  0
 40 52  1  0  0  0
 40 53  2  0  0  0
 40 58  1  0  0  0
 41106  1  0  0  0
 41107  1  0  0  0
 41108  1  0  0  0
 41 48  1  0  0  0
 42 43  1  0  0  0
 42 66  1  0  0  0
 42109  1  0  0  0
 42110  1  0  0  0
 43 44  1  0  0  0
 44111  1  0  0  0
 45 46  2  0  0  0
 45112  1  0  0  0
 46113  1  0  0  0
 47114  1  0  0  0
 47115  1  0  0  0
 48 56  1  0  0  0
 48 65  1  0  0  0
 48116  1  0  0  0
 49 50  1  0  0  0
 49 53  1  0  0  0
 49 64  1  0  0  0
 49117  1  0  0  0
 50 51  1  0  0  0
 50118  1  0  0  0
 50119  1  0  0  0
 51 52  1  0  0  0
 51120  1  0  0  0
 51121  1  0  0  0
 52122  1  0  0  0
 52123  1  0  0  0
 53 54  1  0  0  0
 54 55  2  0  0  0
 54124  1  0  0  0
 55 57  1  0  0  0
 55125  1  0  0  0
 56 69  2  0  0  0
 57 58  2  0  0  0
 57126  1  0  0  0
 58127  1  0  0  0
 59 60  1  0  0  0
 59 61  1  0  0  0
 59 62  1  0  0  0
 60128  1  0  0  0
 60129  1  0  0  0
 60130  1  0  0  0
 61131  1  0  0  0
 61132  1  0  0  0
 61133  1  0  0  0
 62134  1  0  0  0
 62135  1  0  0  0
 62136  1  0  0  0
 63 65  1  0  0  0
 63137  1  0  0  0
 63138  1  0  0  0
 63139  1  0  0  0
 64140  1  0  0  0
 65141  1  0  0  0
 68 80  1  0  0  0
 71 73  2  0  0  0
 71 74  1  0  0  0
 71142  1  0  0  0
 72 75  2  0  0  0
 72 76  1  0  0  0
 72143  1  0  0  0
 73 75  1  0  0  0
 73 79  1  0  0  0
 74 76  2  0  0  0
 74 77  1  0  0  0
 75 78  1  0  0  0
 76 82  1  0  0  0
 77144  1  0  0  0
 77145  1  0  0  0
 77146  1  0  0  0
 78147  1  0  0  0
 78148  1  0  0  0
 78149  1  0  0  0
 79150  1  0  0  0
 79151  1  0  0  0
 80 81  1  0  0  0
 80152  1  0  0  0
 80153  1  0  0  0
 81 82  1  0  0  0
 81154  1  0  0  0
 81155  1  0  0  0
M  ISO  4   1 100  68 101  79 100  80 101
M  END
> <chiral flag>
0

> <version>
0

> <s_m_source_file>
/data/baiqing/PycharmProjects/Reinvent-master-3.2/result/LINK_invent/BTK/process_docking_weight1_custom_sum_contain_oxygen_bond_distance_aromatic_linkinvent_7_9_3/rearranged_h_0151.sdf

> <i_m_source_file_index>
17

> <r_mmod_Potential_Energy-OPLS-2005>
432.768341064453

> <r_mmod_Stretch_Energy-OPLS-2005>
191.095352172852

> <r_mmod_Bend_Energy-OPLS-2005>
267.811309814453

> <r_mmod_Torsional_Energy-OPLS-2005>
202.946578979492

> <r_mmod_Improper_Torsional_Energy-OPLS-2005>
6.17190217971802

> <r_mmod_Van_der_Waal_Energy-OPLS-2005>
131.278442382812

> <r_mmod_Electrostatic_Energy-OPLS-2005>
-308.826110839844

> <r_mmod_Solvation_Energy-OPLS-2005>
-202.441833496094

> <b_mmod_Minimization_Converged-OPLS-2005>
0

> <r_mmod_RMS_Derivative-OPLS-2005>
4.73720121383667

$$$$
17
                    3D
 Structure written by MMmdl.
158167  0  0  1  0            999 V2000
  -30.7299  -14.7115   20.4989 C   0  0  0  0  0  0
  -30.4463  -12.4116   19.5041 C   0  0  0  0  0  0
  -29.5363  -12.4850   18.2608 C   0  0  0  0  0  0
  -28.0580  -12.3245   18.6613 C   0  0  0  0  0  0
  -27.6576  -13.2358   19.8561 C   0  0  2  0  0  0
  -28.6948  -13.2091   21.0014 C   0  0  0  0  0  0
  -25.2639  -13.8222   20.5703 C   0  0  0  0  0  0
  -24.1903  -13.0482   20.9180 C   0  0  0  0  0  0
  -24.6494  -11.6938   20.8723 C   0  0  0  0  0  0
  -23.9152  -10.4331   21.0406 C   0  0  0  0  0  0
  -24.3653   -9.4248   21.9220 C   0  0  0  0  0  0
  -23.6303   -8.2299   22.0786 C   0  0  0  0  0  0
  -22.4301   -8.0335   21.3581 C   0  0  0  0  0  0
  -21.9966   -9.0316   20.4687 C   0  0  0  0  0  0
  -22.7297  -10.2198   20.3088 C   0  0  0  0  0  0
  -21.6873   -6.0767   22.5283 C   0  0  0  0  0  0
  -21.4006   -6.5661   23.8205 C   0  0  0  0  0  0
  -21.3645   -5.6813   24.9179 C   0  0  0  0  0  0
  -21.6044   -4.3077   24.7221 C   0  0  0  0  0  0
  -21.8803   -3.8174   23.4343 C   0  0  0  0  0  0
  -21.9186   -4.6993   22.3398 C   0  0  0  0  0  0
  -22.7937  -13.5278   21.1818 C   0  0  0  0  0  0
  -22.1671   -4.2171   21.0989 F   0  0  0  0  0  0
  -21.5617   -3.4571   25.7745 F   0  0  0  0  0  0
  -30.0190  -13.4794   20.4315 N   0  0  0  0  0  0
  -26.3078  -12.9416   20.3325 N   0  0  0  0  0  0
  -25.9450  -11.6554   20.5788 N   0  0  0  0  0  0
  -22.0568  -12.8277   22.0352 N   0  0  0  0  0  0
  -25.4406  -15.1941   20.4102 N   0  0  0  0  0  0
  -31.9017  -14.8187   20.1431 O   0  0  0  0  0  0
  -21.6651   -6.8946   21.4265 O   0  0  0  0  0  0
  -22.3631  -14.5612   20.6702 O   0  0  0  0  0  0
  -24.6302  -31.8529   23.2035 C   0  0  0  0  0  0
  -25.9136  -32.4730   23.8363 C   0  0  1  0  0  0
  -27.2449  -27.2621   20.1470 C   0  0  0  0  0  0
  -25.5927  -33.8528   24.2289 N   0  0  0  0  0  0
  -23.4312  -30.4763   21.5404 C   0  0  2  0  0  0
  -24.8892  -28.9317   20.1132 C   0  0  0  0  0  0
  -22.7508  -29.4589   22.4865 C   0  0  0  0  0  0
  -18.0284  -28.1349   22.8480 C   0  0  0  0  0  0
  -24.1487  -36.7287   23.2632 C   0  0  0  0  0  0
  -25.9763  -30.7710   21.3839 C   0  0  0  0  0  0
  -26.0595  -29.3934   20.7269 C   0  0  0  0  0  0
  -27.2364  -28.5729   20.7371 C   0  0  0  0  0  0
  -26.0460  -26.8852   19.4837 C   0  0  0  0  0  0
  -24.8865  -27.6818   19.4848 C   0  0  0  0  0  0
  -23.6567  -29.8153   20.1544 C   0  0  0  0  0  0
  -25.4108  -36.3033   24.0303 C   0  0  1  0  0  0
  -20.5910  -28.3687   23.1224 C   0  0  2  0  0  0
  -20.6762  -26.9384   22.5402 C   0  0  0  0  0  0
  -19.5738  -26.6373   21.5191 C   0  0  0  0  0  0
  -18.1928  -26.7896   22.1625 C   0  0  0  0  0  0
  -19.1547  -28.8826   23.2852 C   0  0  0  0  0  0
  -18.9468  -30.1436   23.8865 C   0  0  0  0  0  0
  -17.6461  -30.6557   24.0550 C   0  0  0  0  0  0
  -25.9031  -34.9406   23.5100 C   0  0  0  0  0  0
  -16.5357  -29.9057   23.6312 C   0  0  0  0  0  0
  -16.7274  -28.6469   23.0352 C   0  0  0  0  0  0
  -26.4532  -31.6520   25.0726 C   0  0  0  0  0  0
  -25.3774  -31.3736   26.1461 C   0  0  0  0  0  0
  -27.0389  -30.2907   24.6253 C   0  0  0  0  0  0
  -27.6050  -32.4271   25.7535 C   0  0  0  0  0  0
  -27.5571  -37.1811   24.8473 C   0  0  0  0  0  0
  -21.4199  -29.3062   22.3635 N   0  0  0  0  0  0
  -26.4293  -37.3724   23.9383 N   0  0  0  0  0  0
  -24.6982  -31.0508   22.1000 N   0  0  0  0  0  0
  -23.4205  -28.8094   23.2936 O   0  0  0  0  0  0
  -28.3214  -26.3340   20.2468 O   0  0  0  0  0  0
  -26.5596  -34.8868   22.4665 O   0  0  0  0  0  0
  -23.5452  -32.1380   23.7327 O   0  0  0  0  0  0
  -30.1436  -23.2813   20.0449 C   0  0  0  0  0  0
  -28.1186  -22.4572   20.9543 C   0  0  0  0  0  0
  -28.8099  -23.5836   20.4212 C   0  0  0  0  0  0
  -30.6891  -21.9589   20.2202 C   0  0  0  0  0  0
  -29.8940  -20.8971   20.7551 C   0  0  0  0  0  0
  -29.4722  -18.2874   21.5985 C   0  0  0  0  0  0
  -30.4209  -19.4308   21.1174 C   0  0  1  0  0  0
  -31.0190  -18.2815   20.1928 C   0  0  2  0  0  0
  -30.5085  -17.1918   21.2123 C   0  0  2  0  0  0
  -32.1383  -21.7181   19.8132 C   0  0  0  0  0  0
  -32.5308  -18.2776   19.9222 C   0  0  0  0  0  0
  -27.9648  -24.8879   20.0441 C   0  0  0  0  0  0
  -28.6206  -21.1948   21.1180 N   0  0  0  0  0  0
  -29.9482  -15.8550   20.8656 O   0  0  0  0  0  0
  -31.4947  -12.5215   19.2158 H   0  0  0  0  0  0
  -30.3644  -11.4397   19.9935 H   0  0  0  0  0  0
  -29.8173  -11.7111   17.5431 H   0  0  0  0  0  0
  -29.6835  -13.4413   17.7605 H   0  0  0  0  0  0
  -27.9085  -11.2772   18.9246 H   0  0  0  0  0  0
  -27.4151  -12.5209   17.8065 H   0  0  0  0  0  0
  -27.6496  -14.2572   19.4722 H   0  0  0  0  0  0
  -28.6968  -12.2529   21.5254 H   0  0  0  0  0  0
  -28.4385  -13.9622   21.7506 H   0  0  0  0  0  0
  -25.2798   -9.5703   22.4804 H   0  0  0  0  0  0
  -24.0005   -7.4685   22.7488 H   0  0  0  0  0  0
  -21.0908   -8.8811   19.9006 H   0  0  0  0  0  0
  -22.3724  -10.9729   19.6192 H   0  0  0  0  0  0
  -21.2005   -7.6170   23.9715 H   0  0  0  0  0  0
  -21.1486   -6.0563   25.9078 H   0  0  0  0  0  0
  -22.0593   -2.7646   23.2836 H   0  0  0  0  0  0
  -22.4134  -11.9899   22.4670 H   0  0  0  0  0  0
  -21.1203  -13.1368   22.2558 H   0  0  0  0  0  0
  -24.6935  -15.8654   20.5446 H   0  0  0  0  0  0
  -26.3116  -15.6257   20.1252 H   0  0  0  0  0  0
  -26.7199  -32.5412   23.1092 H   0  0  0  0  0  0
  -25.0076  -33.9653   25.0446 H   0  0  0  0  0  0
  -22.7269  -31.2961   21.3911 H   0  0  0  0  0  0
  -23.3698  -35.9682   23.3324 H   0  0  0  0  0  0
  -24.3583  -36.8889   22.2056 H   0  0  0  0  0  0
  -23.7320  -37.6518   23.6656 H   0  0  0  0  0  0
  -26.1113  -31.5307   20.6130 H   0  0  0  0  0  0
  -26.8530  -30.8231   22.0162 H   0  0  0  0  0  0
  -28.1238  -28.9230   21.2479 H   0  0  0  0  0  0
  -25.9518  -25.9457   18.9635 H   0  0  0  0  0  0
  -23.9932  -27.3191   18.9973 H   0  0  0  0  0  0
  -23.7731  -30.5932   19.3961 H   0  0  0  0  0  0
  -22.7775  -29.2403   19.8556 H   0  0  0  0  0  0
  -25.1289  -36.1880   25.0794 H   0  0  0  0  0  0
  -21.0010  -28.3250   24.1325 H   0  0  0  0  0  0
  -20.5587  -26.2277   23.3624 H   0  0  0  0  0  0
  -21.6627  -26.7322   22.1224 H   0  0  0  0  0  0
  -19.6891  -25.6286   21.1206 H   0  0  0  0  0  0
  -19.6671  -27.3171   20.6718 H   0  0  0  0  0  0
  -17.4196  -26.6625   21.4053 H   0  0  0  0  0  0
  -18.0333  -26.0027   22.9008 H   0  0  0  0  0  0
  -19.7950  -30.7267   24.2217 H   0  0  0  0  0  0
  -17.5014  -31.6219   24.5180 H   0  0  0  0  0  0
  -15.5364  -30.2952   23.7629 H   0  0  0  0  0  0
  -15.8680  -28.0781   22.7072 H   0  0  0  0  0  0
  -24.5916  -30.7077   25.7878 H   0  0  0  0  0  0
  -24.8995  -32.2942   26.4809 H   0  0  0  0  0  0
  -25.8077  -30.9016   27.0296 H   0  0  0  0  0  0
  -26.3017  -29.6633   24.1215 H   0  0  0  0  0  0
  -27.3985  -29.7152   25.4800 H   0  0  0  0  0  0
  -27.8916  -30.4127   23.9567 H   0  0  0  0  0  0
  -27.2593  -33.3548   26.2100 H   0  0  0  0  0  0
  -28.3892  -32.6870   25.0415 H   0  0  0  0  0  0
  -28.0673  -31.8419   26.5494 H   0  0  0  0  0  0
  -28.2591  -38.0089   24.7377 H   0  0  0  0  0  0
  -28.1043  -36.2601   24.6434 H   0  0  0  0  0  0
  -27.2259  -37.1589   25.8866 H   0  0  0  0  0  0
  -20.9368  -29.8835   21.6897 H   0  0  0  0  0  0
  -26.0157  -38.2794   24.1336 H   0  0  0  0  0  0
  -30.7444  -24.0521   19.5826 H   0  0  0  0  0  0
  -27.0729  -22.5484   21.2021 H   0  0  0  0  0  0
  -28.5658  -18.2334   20.9944 H   0  0  0  0  0  0
  -29.2291  -18.3375   22.6603 H   0  0  0  0  0  0
  -31.1282  -19.6150   21.9278 H   0  0  0  0  0  0
  -30.4515  -18.1998   19.2639 H   0  0  0  0  0  0
  -31.2362  -17.0713   22.0163 H   0  0  0  0  0  0
  -32.1782  -21.1093   18.9134 H   0  0  0  0  0  0
  -32.7083  -21.2214   20.5983 H   0  0  0  0  0  0
  -32.6454  -22.6574   19.5770 H   0  0  0  0  0  0
  -32.7928  -18.8633   19.0420 H   0  0  0  0  0  0
  -32.9155  -17.2693   19.7626 H   0  0  0  0  0  0
  -33.0954  -18.6875   20.7629 H   0  0  0  0  0  0
  -27.0228  -24.7372   20.5777 H   0  0  0  0  0  0
  -27.7478  -24.7626   18.9838 H   0  0  0  0  0  0
  1 25  1  0  0  0
  1 30  2  0  0  0
  1 84  1  0  0  0
  2  3  1  0  0  0
  2 25  1  0  0  0
  2 85  1  0  0  0
  2 86  1  0  0  0
  3  4  1  0  0  0
  3 87  1  0  0  0
  3 88  1  0  0  0
  4  5  1  0  0  0
  4 89  1  0  0  0
  4 90  1  0  0  0
  5  6  1  0  0  0
  5 26  1  0  0  0
  5 91  1  0  0  0
  6 25  1  0  0  0
  6 92  1  0  0  0
  6 93  1  0  0  0
  7  8  2  0  0  0
  7 26  1  0  0  0
  7 29  1  0  0  0
  8  9  1  0  0  0
  8 22  1  0  0  0
  9 10  1  0  0  0
  9 27  2  0  0  0
 10 11  2  0  0  0
 10 15  1  0  0  0
 11 12  1  0  0  0
 11 94  1  0  0  0
 12 13  2  0  0  0
 12 95  1  0  0  0
 13 14  1  0  0  0
 13 31  1  0  0  0
 14 15  2  0  0  0
 14 96  1  0  0  0
 15 97  1  0  0  0
 16 17  2  0  0  0
 16 21  1  0  0  0
 16 31  1  0  0  0
 17 18  1  0  0  0
 17 98  1  0  0  0
 18 19  2  0  0  0
 18 99  1  0  0  0
 19 20  1  0  0  0
 19 24  1  0  0  0
 20 21  2  0  0  0
 20100  1  0  0  0
 21 23  1  0  0  0
 22 28  1  0  0  0
 22 32  2  0  0  0
 26 27  1  0  0  0
 28101  1  0  0  0
 28102  1  0  0  0
 29103  1  0  0  0
 29104  1  0  0  0
 33 34  1  0  0  0
 33 66  1  0  0  0
 33 70  2  0  0  0
 34 36  1  0  0  0
 34 59  1  0  0  0
 34105  1  0  0  0
 35 44  2  0  0  0
 35 45  1  0  0  0
 35 68  1  0  0  0
 36 56  1  0  0  0
 36106  1  0  0  0
 37 39  1  0  0  0
 37 47  1  0  0  0
 37 66  1  0  0  0
 37107  1  0  0  0
 38 43  2  0  0  0
 38 46  1  0  0  0
 38 47  1  0  0  0
 39 64  1  0  0  0
 39 67  2  0  0  0
 40 52  1  0  0  0
 40 53  2  0  0  0
 40 58  1  0  0  0
 41108  1  0  0  0
 41109  1  0  0  0
 41110  1  0  0  0
 41 48  1  0  0  0
 42 43  1  0  0  0
 42 66  1  0  0  0
 42111  1  0  0  0
 42112  1  0  0  0
 43 44  1  0  0  0
 44113  1  0  0  0
 45 46  2  0  0  0
 45114  1  0  0  0
 46115  1  0  0  0
 47116  1  0  0  0
 47117  1  0  0  0
 48 56  1  0  0  0
 48 65  1  0  0  0
 48118  1  0  0  0
 49 50  1  0  0  0
 49 53  1  0  0  0
 49 64  1  0  0  0
 49119  1  0  0  0
 50 51  1  0  0  0
 50120  1  0  0  0
 50121  1  0  0  0
 51 52  1  0  0  0
 51122  1  0  0  0
 51123  1  0  0  0
 52124  1  0  0  0
 52125  1  0  0  0
 53 54  1  0  0  0
 54 55  2  0  0  0
 54126  1  0  0  0
 55 57  1  0  0  0
 55127  1  0  0  0
 56 69  2  0  0  0
 57 58  2  0  0  0
 57128  1  0  0  0
 58129  1  0  0  0
 59 60  1  0  0  0
 59 61  1  0  0  0
 59 62  1  0  0  0
 60130  1  0  0  0
 60131  1  0  0  0
 60132  1  0  0  0
 61133  1  0  0  0
 61134  1  0  0  0
 61135  1  0  0  0
 62136  1  0  0  0
 62137  1  0  0  0
 62138  1  0  0  0
 63 65  1  0  0  0
 63139  1  0  0  0
 63140  1  0  0  0
 63141  1  0  0  0
 64142  1  0  0  0
 65143  1  0  0  0
 68 82  1  0  0  0
 71 73  2  0  0  0
 71 74  1  0  0  0
 71144  1  0  0  0
 72 73  1  0  0  0
 72 83  2  0  0  0
 72145  1  0  0  0
 73 82  1  0  0  0
 74 75  2  0  0  0
 74 80  1  0  0  0
 75 83  1  0  0  0
 75 77  1  0  0  0
 76 77  1  0  0  0
 76 79  1  0  0  0
 76146  1  0  0  0
 76147  1  0  0  0
 77 78  1  0  0  0
 77148  1  0  0  0
 78 79  1  0  0  0
 78 81  1  0  0  0
 78149  1  0  0  0
 79 84  1  0  0  0
 79150  1  0  0  0
 80151  1  0  0  0
 80152  1  0  0  0
 80153  1  0  0  0
 81154  1  0  0  0
 81155  1  0  0  0
 81156  1  0  0  0
 82157  1  0  0  0
 82158  1  0  0  0
M  ISO  4   1 100  68 101  82 101  84 100
M  END
> <chiral flag>
0

> <version>
0

> <s_m_source_file>
/data/baiqing/PycharmProjects/Reinvent-master-3.2/result/LINK_invent/BTK/process_docking_weight1_custom_sum_contain_oxygen_bond_distance_aromatic_linkinvent_7_9_3/rearranged_h_0151.sdf

> <i_m_source_file_index>
18

> <r_mmod_Potential_Energy-OPLS-2005>
76.226806640625

> <r_mmod_Stretch_Energy-OPLS-2005>
116.339126586914

> <r_mmod_Bend_Energy-OPLS-2005>
204.613342285156

> <r_mmod_Torsional_Energy-OPLS-2005>
194.70524597168

> <r_mmod_Improper_Torsional_Energy-OPLS-2005>
5.56939172744751

> <r_mmod_Van_der_Waal_Energy-OPLS-2005>
141.413238525391

> <r_mmod_Electrostatic_Energy-OPLS-2005>
-468.263214111328

> <r_mmod_Solvation_Energy-OPLS-2005>
-201.562927246094

> <b_mmod_Minimization_Converged-OPLS-2005>
0

> <r_mmod_RMS_Derivative-OPLS-2005>
6.13115167617798

$$$$
18
                    3D
 Structure written by MMmdl.
154163  0  0  1  0            999 V2000
  -30.5396  -14.9345   20.4224 C   0  0  0  0  0  0
  -30.4453  -12.5803   19.4858 C   0  0  0  0  0  0
  -29.5201  -12.5277   18.2481 C   0  0  0  0  0  0
  -28.0524  -12.3181   18.6681 C   0  0  0  0  0  0
  -27.6321  -13.2451   19.8383 C   0  0  2  0  0  0
  -28.6788  -13.2594   20.9724 C   0  0  0  0  0  0
  -25.2477  -13.8209   20.5710 C   0  0  0  0  0  0
  -24.1790  -13.0434   20.9232 C   0  0  0  0  0  0
  -24.6403  -11.6919   20.8754 C   0  0  0  0  0  0
  -23.9086  -10.4290   21.0410 C   0  0  0  0  0  0
  -24.3630   -9.4202   21.9190 C   0  0  0  0  0  0
  -23.6299   -8.2237   22.0758 C   0  0  0  0  0  0
  -22.4281   -8.0280   21.3546 C   0  0  0  0  0  0
  -21.9926   -9.0254   20.4643 C   0  0  0  0  0  0
  -22.7259  -10.2131   20.3056 C   0  0  0  0  0  0
  -21.6855   -6.0737   22.5281 C   0  0  0  0  0  0
  -21.4017   -6.5640   23.8212 C   0  0  0  0  0  0
  -21.3660   -5.6796   24.9176 C   0  0  0  0  0  0
  -21.6046   -4.3058   24.7224 C   0  0  0  0  0  0
  -21.8820   -3.8147   23.4347 C   0  0  0  0  0  0
  -21.9196   -4.6965   22.3405 C   0  0  0  0  0  0
  -22.7805  -13.5205   21.1879 C   0  0  0  0  0  0
  -22.1660   -4.2149   21.0982 F   0  0  0  0  0  0
  -21.5631   -3.4540   25.7738 F   0  0  0  0  0  0
  -29.9529  -13.6728   20.3700 N   0  0  0  0  0  0
  -26.2904  -12.9434   20.3250 N   0  0  0  0  0  0
  -25.9339  -11.6565   20.5747 N   0  0  0  0  0  0
  -22.0450  -12.8185   22.0427 N   0  0  0  0  0  0
  -25.4137  -15.1936   20.4117 N   0  0  0  0  0  0
  -31.7476  -15.0138   20.1772 O   0  0  0  0  0  0
  -21.6641   -6.8877   21.4243 O   0  0  0  0  0  0
  -22.3483  -14.5507   20.6721 O   0  0  0  0  0  0
  -24.6429  -31.8433   23.1882 C   0  0  0  0  0  0
  -25.9207  -32.4684   23.8265 C   0  0  1  0  0  0
  -27.2153  -27.1343   20.1523 C   0  0  0  0  0  0
  -25.5955  -33.8490   24.2184 N   0  0  0  0  0  0
  -23.4464  -30.4626   21.5344 C   0  0  2  0  0  0
  -24.8971  -28.8889   20.1120 C   0  0  0  0  0  0
  -22.7560  -29.4542   22.4867 C   0  0  0  0  0  0
  -18.0300  -28.1396   22.8482 C   0  0  0  0  0  0
  -24.1491  -36.7246   23.2642 C   0  0  0  0  0  0
  -26.0032  -30.7146   21.3897 C   0  0  0  0  0  0
  -26.0751  -29.3250   20.7338 C   0  0  0  0  0  0
  -27.2379  -28.4641   20.7379 C   0  0  0  0  0  0
  -26.0177  -26.8080   19.4806 C   0  0  0  0  0  0
  -24.8816  -27.6433   19.4685 C   0  0  0  0  0  0
  -23.6723  -29.7895   20.1551 C   0  0  0  0  0  0
  -25.4123  -36.3023   24.0316 C   0  0  1  0  0  0
  -20.5911  -28.3719   23.1237 C   0  0  2  0  0  0
  -20.6778  -26.9423   22.5405 C   0  0  0  0  0  0
  -19.5754  -26.6386   21.5209 C   0  0  0  0  0  0
  -18.1936  -26.7939   22.1621 C   0  0  0  0  0  0
  -19.1556  -28.8876   23.2852 C   0  0  0  0  0  0
  -18.9476  -30.1476   23.8874 C   0  0  0  0  0  0
  -17.6472  -30.6596   24.0558 C   0  0  0  0  0  0
  -25.9081  -34.9399   23.5061 C   0  0  0  0  0  0
  -16.5363  -29.9087   23.6343 C   0  0  0  0  0  0
  -16.7284  -28.6502   23.0371 C   0  0  0  0  0  0
  -26.4540  -31.6549   25.0702 C   0  0  0  0  0  0
  -25.3729  -31.3717   26.1396 C   0  0  0  0  0  0
  -27.0413  -30.2946   24.6282 C   0  0  0  0  0  0
  -27.6069  -32.4312   25.7491 C   0  0  0  0  0  0
  -27.5578  -37.1771   24.8461 C   0  0  0  0  0  0
  -21.4251  -29.3043   22.3607 N   0  0  0  0  0  0
  -26.4282  -37.3739   23.9414 N   0  0  0  0  0  0
  -24.7173  -31.0287   22.0919 N   0  0  0  0  0  0
  -23.4203  -28.8099   23.3027 O   0  0  0  0  0  0
  -28.2488  -26.1272   20.1745 O   0  0  0  0  0  0
  -26.5671  -34.8898   22.4643 O   0  0  0  0  0  0
  -23.5550  -32.1315   23.7104 O   0  0  0  0  0  0
  -28.8798  -21.2277   18.7713 C   0  0  0  0  0  0
  -28.5787  -22.6227   19.0196 C   0  0  0  0  0  0
  -28.9204  -22.2333   21.3329 C   0  0  0  0  0  0
  -29.1962  -20.2662   19.7879 C   0  0  0  0  0  0
  -29.2339  -20.8203   21.0889 C   0  0  0  0  0  0
  -28.5614  -23.2167   20.3194 C   0  0  0  0  0  0
  -29.4242  -18.6889   19.4972 C   0  0  0  0  0  0
  -29.6350  -19.8366   22.2098 C   0  0  0  0  0  0
  -29.3908  -18.2901   21.9582 C   0  0  0  0  0  0
  -29.9668  -17.6634   20.6441 C   0  0  1  0  0  0
  -27.8932  -24.6950   20.6648 C   0  0  0  0  0  0
  -29.7314  -16.0963   20.5482 N   0  0  0  0  0  0
  -31.4767  -12.7454   19.1702 H   0  0  0  0  0  0
  -30.4429  -11.6260   20.0148 H   0  0  0  0  0  0
  -29.8335  -11.7308   17.5725 H   0  0  0  0  0  0
  -29.6107  -13.4591   17.6866 H   0  0  0  0  0  0
  -27.9429  -11.2751   18.9678 H   0  0  0  0  0  0
  -27.3899  -12.4613   17.8134 H   0  0  0  0  0  0
  -27.5987  -14.2497   19.4157 H   0  0  0  0  0  0
  -28.7643  -12.2781   21.4420 H   0  0  0  0  0  0
  -28.3835  -13.9541   21.7599 H   0  0  0  0  0  0
  -25.2774   -9.5674   22.4767 H   0  0  0  0  0  0
  -24.0009   -7.4630   22.7478 H   0  0  0  0  0  0
  -21.0865   -8.8773   19.8940 H   0  0  0  0  0  0
  -22.3725  -10.9669   19.6160 H   0  0  0  0  0  0
  -21.2008   -7.6150   23.9714 H   0  0  0  0  0  0
  -21.1481   -6.0527   25.9081 H   0  0  0  0  0  0
  -22.0600   -2.7610   23.2851 H   0  0  0  0  0  0
  -22.4077  -11.9859   22.4828 H   0  0  0  0  0  0
  -21.1055  -13.1183   22.2605 H   0  0  0  0  0  0
  -24.6416  -15.8421   20.5193 H   0  0  0  0  0  0
  -26.2490  -15.6344   20.0503 H   0  0  0  0  0  0
  -26.7262  -32.5299   23.0983 H   0  0  0  0  0  0
  -25.0073  -33.9599   25.0311 H   0  0  0  0  0  0
  -22.7483  -31.2882   21.3793 H   0  0  0  0  0  0
  -23.3767  -35.9562   23.3269 H   0  0  0  0  0  0
  -24.3577  -36.8918   22.2064 H   0  0  0  0  0  0
  -23.7231  -37.6421   23.6709 H   0  0  0  0  0  0
  -26.1600  -31.4670   20.6156 H   0  0  0  0  0  0
  -26.8731  -30.7654   22.0328 H   0  0  0  0  0  0
  -28.1347  -28.7927   21.2443 H   0  0  0  0  0  0
  -25.9410  -25.8609   18.9660 H   0  0  0  0  0  0
  -23.9873  -27.3095   18.9599 H   0  0  0  0  0  0
  -23.8013  -30.5611   19.3952 H   0  0  0  0  0  0
  -22.7878  -29.2264   19.8510 H   0  0  0  0  0  0
  -25.1307  -36.1845   25.0806 H   0  0  0  0  0  0
  -21.0006  -28.3315   24.1357 H   0  0  0  0  0  0
  -20.5662  -26.2332   23.3622 H   0  0  0  0  0  0
  -21.6644  -26.7421   22.1211 H   0  0  0  0  0  0
  -19.6913  -25.6296   21.1244 H   0  0  0  0  0  0
  -19.6693  -27.3184   20.6731 H   0  0  0  0  0  0
  -17.4204  -26.6688   21.4028 H   0  0  0  0  0  0
  -18.0338  -26.0085   22.9019 H   0  0  0  0  0  0
  -19.7951  -30.7299   24.2231 H   0  0  0  0  0  0
  -17.5027  -31.6276   24.5162 H   0  0  0  0  0  0
  -15.5363  -30.2982   23.7681 H   0  0  0  0  0  0
  -15.8683  -28.0808   22.7114 H   0  0  0  0  0  0
  -24.5951  -30.7012   25.7718 H   0  0  0  0  0  0
  -24.8868  -32.2884   26.4742 H   0  0  0  0  0  0
  -25.8034  -30.8959   27.0218 H   0  0  0  0  0  0
  -26.3032  -29.6661   24.1286 H   0  0  0  0  0  0
  -27.4025  -29.7249   25.4855 H   0  0  0  0  0  0
  -27.8939  -30.4178   23.9599 H   0  0  0  0  0  0
  -27.2672  -33.3649   26.1980 H   0  0  0  0  0  0
  -28.3931  -32.6804   25.0353 H   0  0  0  0  0  0
  -28.0675  -31.8486   26.5479 H   0  0  0  0  0  0
  -28.2560  -38.0105   24.7550 H   0  0  0  0  0  0
  -28.1116  -36.2634   24.6241 H   0  0  0  0  0  0
  -27.2299  -37.1355   25.8864 H   0  0  0  0  0  0
  -20.9463  -29.8741   21.6768 H   0  0  0  0  0  0
  -26.0147  -38.2798   24.1448 H   0  0  0  0  0  0
  -28.8259  -20.8804   17.7483 H   0  0  0  0  0  0
  -28.2893  -23.2377   18.1790 H   0  0  0  0  0  0
  -28.9102  -22.5655   22.3619 H   0  0  0  0  0  0
  -30.0724  -18.6015   18.6242 H   0  0  0  0  0  0
  -28.4551  -18.3166   19.1642 H   0  0  0  0  0  0
  -29.1206  -20.1319   23.1253 H   0  0  0  0  0  0
  -30.6970  -19.9908   22.4035 H   0  0  0  0  0  0
  -28.3131  -18.1218   21.9661 H   0  0  0  0  0  0
  -29.7774  -17.7379   22.8153 H   0  0  0  0  0  0
  -31.0485  -17.7962   20.6935 H   0  0  0  0  0  0
  -27.9478  -24.7734   21.7508 H   0  0  0  0  0  0
  -26.8329  -24.5325   20.4809 H   0  0  0  0  0  0
  -28.7591  -15.8476   20.6518 H   0  0  0  0  0  0
  1 25  1  0  0  0
  1 30  2  0  0  0
  1 82  1  0  0  0
  2  3  1  0  0  0
  2 25  1  0  0  0
  2 83  1  0  0  0
  2 84  1  0  0  0
  3  4  1  0  0  0
  3 85  1  0  0  0
  3 86  1  0  0  0
  4  5  1  0  0  0
  4 87  1  0  0  0
  4 88  1  0  0  0
  5  6  1  0  0  0
  5 26  1  0  0  0
  5 89  1  0  0  0
  6 25  1  0  0  0
  6 90  1  0  0  0
  6 91  1  0  0  0
  7  8  2  0  0  0
  7 26  1  0  0  0
  7 29  1  0  0  0
  8  9  1  0  0  0
  8 22  1  0  0  0
  9 10  1  0  0  0
  9 27  2  0  0  0
 10 11  2  0  0  0
 10 15  1  0  0  0
 11 12  1  0  0  0
 11 92  1  0  0  0
 12 13  2  0  0  0
 12 93  1  0  0  0
 13 14  1  0  0  0
 13 31  1  0  0  0
 14 15  2  0  0  0
 14 94  1  0  0  0
 15 95  1  0  0  0
 16 17  2  0  0  0
 16 21  1  0  0  0
 16 31  1  0  0  0
 17 18  1  0  0  0
 17 96  1  0  0  0
 18 19  2  0  0  0
 18 97  1  0  0  0
 19 20  1  0  0  0
 19 24  1  0  0  0
 20 21  2  0  0  0
 20 98  1  0  0  0
 21 23  1  0  0  0
 22 28  1  0  0  0
 22 32  2  0  0  0
 26 27  1  0  0  0
 28 99  1  0  0  0
 28100  1  0  0  0
 29101  1  0  0  0
 29102  1  0  0  0
 33 34  1  0  0  0
 33 66  1  0  0  0
 33 70  2  0  0  0
 34 36  1  0  0  0
 34 59  1  0  0  0
 34103  1  0  0  0
 35 44  2  0  0  0
 35 45  1  0  0  0
 35 68  1  0  0  0
 36 56  1  0  0  0
 36104  1  0  0  0
 37 39  1  0  0  0
 37 47  1  0  0  0
 37 66  1  0  0  0
 37105  1  0  0  0
 38 43  2  0  0  0
 38 46  1  0  0  0
 38 47  1  0  0  0
 39 64  1  0  0  0
 39 67  2  0  0  0
 40 52  1  0  0  0
 40 53  2  0  0  0
 40 58  1  0  0  0
 41106  1  0  0  0
 41107  1  0  0  0
 41108  1  0  0  0
 41 48  1  0  0  0
 42 43  1  0  0  0
 42 66  1  0  0  0
 42109  1  0  0  0
 42110  1  0  0  0
 43 44  1  0  0  0
 44111  1  0  0  0
 45 46  2  0  0  0
 45112  1  0  0  0
 46113  1  0  0  0
 47114  1  0  0  0
 47115  1  0  0  0
 48 56  1  0  0  0
 48 65  1  0  0  0
 48116  1  0  0  0
 49 50  1  0  0  0
 49 53  1  0  0  0
 49 64  1  0  0  0
 49117  1  0  0  0
 50 51  1  0  0  0
 50118  1  0  0  0
 50119  1  0  0  0
 51 52  1  0  0  0
 51120  1  0  0  0
 51121  1  0  0  0
 52122  1  0  0  0
 52123  1  0  0  0
 53 54  1  0  0  0
 54 55  2  0  0  0
 54124  1  0  0  0
 55 57  1  0  0  0
 55125  1  0  0  0
 56 69  2  0  0  0
 57 58  2  0  0  0
 57126  1  0  0  0
 58127  1  0  0  0
 59 60  1  0  0  0
 59 61  1  0  0  0
 59 62  1  0  0  0
 60128  1  0  0  0
 60129  1  0  0  0
 60130  1  0  0  0
 61131  1  0  0  0
 61132  1  0  0  0
 61133  1  0  0  0
 62134  1  0  0  0
 62135  1  0  0  0
 62136  1  0  0  0
 63 65  1  0  0  0
 63137  1  0  0  0
 63138  1  0  0  0
 63139  1  0  0  0
 64140  1  0  0  0
 65141  1  0  0  0
 68 81  1  0  0  0
 71 72  2  0  0  0
 71 74  1  0  0  0
 71142  1  0  0  0
 72 76  1  0  0  0
 72143  1  0  0  0
 73 75  1  0  0  0
 73 76  2  0  0  0
 73144  1  0  0  0
 74 75  2  0  0  0
 74 77  1  0  0  0
 75 78  1  0  0  0
 76 81  1  0  0  0
 77 80  1  0  0  0
 77145  1  0  0  0
 77146  1  0  0  0
 78 79  1  0  0  0
 78147  1  0  0  0
 78148  1  0  0  0
 79 80  1  0  0  0
 79149  1  0  0  0
 79150  1  0  0  0
 80 82  1  0  0  0
 80151  1  0  0  0
 81152  1  0  0  0
 81153  1  0  0  0
 82154  1  0  0  0
M  ISO  4   1 100  68 101  81 101  82 100
M  END
> <chiral flag>
0

> <version>
0

> <s_m_source_file>
/data/baiqing/PycharmProjects/Reinvent-master-3.2/result/LINK_invent/BTK/process_docking_weight1_custom_sum_contain_oxygen_bond_distance_aromatic_linkinvent_7_9_3/rearranged_h_0151.sdf

> <i_m_source_file_index>
19

> <r_mmod_Potential_Energy-OPLS-2005>
459.381286621094

> <r_mmod_Stretch_Energy-OPLS-2005>
219.59130859375

> <r_mmod_Bend_Energy-OPLS-2005>
242.499099731445

> <r_mmod_Torsional_Energy-OPLS-2005>
239.750152587891

> <r_mmod_Improper_Torsional_Energy-OPLS-2005>
6.61181402206421

> <r_mmod_Van_der_Waal_Energy-OPLS-2005>
130.917663574219

> <r_mmod_Electrostatic_Energy-OPLS-2005>
-360.459259033203

> <r_mmod_Solvation_Energy-OPLS-2005>
-209.707824707031

> <b_mmod_Minimization_Converged-OPLS-2005>
0

> <r_mmod_RMS_Derivative-OPLS-2005>
0.900226891040802

$$$$
19
                    3D
 Structure written by MMmdl.
166175  0  0  1  0            999 V2000
  -30.5550  -14.7855   20.5039 C   0  0  0  0  0  0
  -30.4463  -12.4970   19.4665 C   0  0  0  0  0  0
  -29.5104  -12.5122   18.2359 C   0  0  0  0  0  0
  -28.0377  -12.3208   18.6514 C   0  0  0  0  0  0
  -27.6363  -13.2223   19.8477 C   0  0  2  0  0  0
  -28.6788  -13.1451   20.9818 C   0  0  0  0  0  0
  -25.2500  -13.8163   20.5736 C   0  0  0  0  0  0
  -24.1771  -13.0393   20.9210 C   0  0  0  0  0  0
  -24.6359  -11.6887   20.8731 C   0  0  0  0  0  0
  -23.9041  -10.4246   21.0380 C   0  0  0  0  0  0
  -24.3599   -9.4177   21.9155 C   0  0  0  0  0  0
  -23.6272   -8.2222   22.0757 C   0  0  0  0  0  0
  -22.4257   -8.0254   21.3551 C   0  0  0  0  0  0
  -21.9885   -9.0209   20.4650 C   0  0  0  0  0  0
  -22.7219  -10.2079   20.3035 C   0  0  0  0  0  0
  -21.6836   -6.0712   22.5269 C   0  0  0  0  0  0
  -21.4011   -6.5625   23.8203 C   0  0  0  0  0  0
  -21.3660   -5.6786   24.9164 C   0  0  0  0  0  0
  -21.6044   -4.3045   24.7227 C   0  0  0  0  0  0
  -21.8823   -3.8137   23.4345 C   0  0  0  0  0  0
  -21.9192   -4.6944   22.3402 C   0  0  0  0  0  0
  -22.7798  -13.5199   21.1849 C   0  0  0  0  0  0
  -22.1661   -4.2130   21.0978 F   0  0  0  0  0  0
  -21.5629   -3.4535   25.7739 F   0  0  0  0  0  0
  -29.9688  -13.5410   20.4026 N   0  0  0  0  0  0
  -26.2897  -12.9345   20.3275 N   0  0  0  0  0  0
  -25.9287  -11.6496   20.5732 N   0  0  0  0  0  0
  -22.0473  -12.8168   22.0423 N   0  0  0  0  0  0
  -25.4172  -15.1890   20.4264 N   0  0  0  0  0  0
  -31.7556  -14.9120   20.2387 O   0  0  0  0  0  0
  -21.6636   -6.8844   21.4233 O   0  0  0  0  0  0
  -22.3477  -14.5480   20.6679 O   0  0  0  0  0  0
  -24.6330  -31.8515   23.1920 C   0  0  0  0  0  0
  -25.9147  -32.4717   23.8270 C   0  0  1  0  0  0
  -27.2234  -27.2348   20.1614 C   0  0  0  0  0  0
  -25.5913  -33.8510   24.2196 N   0  0  0  0  0  0
  -23.4309  -30.4688   21.5358 C   0  0  2  0  0  0
  -24.8775  -28.9048   20.1097 C   0  0  0  0  0  0
  -22.7532  -29.4585   22.4877 C   0  0  0  0  0  0
  -18.0360  -28.1377   22.8528 C   0  0  0  0  0  0
  -24.1490  -36.7277   23.2638 C   0  0  0  0  0  0
  -25.9741  -30.7584   21.3710 C   0  0  0  0  0  0
  -26.0469  -29.3752   20.7229 C   0  0  0  0  0  0
  -27.2185  -28.5565   20.7283 C   0  0  0  0  0  0
  -26.0333  -26.8224   19.5274 C   0  0  0  0  0  0
  -24.8805  -27.6406   19.4947 C   0  0  0  0  0  0
  -23.6448  -29.7911   20.1563 C   0  0  0  0  0  0
  -25.4115  -36.3044   24.0323 C   0  0  1  0  0  0
  -20.5946  -28.3731   23.1250 C   0  0  2  0  0  0
  -20.6810  -26.9445   22.5338 C   0  0  0  0  0  0
  -19.5772  -26.6415   21.5152 C   0  0  0  0  0  0
  -18.2018  -26.7884   22.1746 C   0  0  0  0  0  0
  -19.1603  -28.8886   23.2869 C   0  0  0  0  0  0
  -18.9557  -30.1516   23.8823 C   0  0  0  0  0  0
  -17.6577  -30.6655   24.0476 C   0  0  0  0  0  0
  -25.9041  -34.9421   23.5068 C   0  0  0  0  0  0
  -16.5450  -29.9121   23.6304 C   0  0  0  0  0  0
  -16.7344  -28.6499   23.0382 C   0  0  0  0  0  0
  -26.4501  -31.6565   25.0692 C   0  0  0  0  0  0
  -25.3728  -31.3759   26.1428 C   0  0  0  0  0  0
  -27.0364  -30.2968   24.6240 C   0  0  0  0  0  0
  -27.6008  -32.4313   25.7509 C   0  0  0  0  0  0
  -27.5568  -37.1805   24.8462 C   0  0  0  0  0  0
  -21.4229  -29.3090   22.3645 N   0  0  0  0  0  0
  -26.4288  -37.3757   23.9391 N   0  0  0  0  0  0
  -24.6973  -31.0499   22.0867 N   0  0  0  0  0  0
  -23.4237  -28.8089   23.2933 O   0  0  0  0  0  0
  -28.3488  -26.3799   20.2513 O   0  0  0  0  0  0
  -26.5643  -34.8924   22.4647 O   0  0  0  0  0  0
  -23.5503  -32.1270   23.7291 O   0  0  0  0  0  0
  -30.1469  -18.5909   23.2324 C   0  0  0  0  0  0
  -29.9247  -19.8161   22.5703 C   0  0  0  0  0  0
  -30.0873  -17.3409   22.5929 C   0  0  0  0  0  0
  -29.5310  -19.8518   21.2001 C   0  0  0  0  0  0
  -29.5416  -18.5374   20.5227 C   0  0  0  0  0  0
  -29.8388  -17.2579   21.1991 C   0  0  0  0  0  0
  -26.5096  -23.4252   21.2443 C   0  0  0  0  0  0
  -26.9200  -21.9621   21.4140 C   0  0  0  0  0  0
  -27.9776  -23.8318   21.1398 C   0  0  1  0  0  0
  -30.1885  -21.0651   23.4041 C   0  0  0  0  0  0
  -30.2861  -16.1098   23.4711 C   0  0  0  0  0  0
  -29.2734  -18.5075   19.0218 C   0  0  0  0  0  0
  -29.2166  -21.3103   20.5313 C   0  0  0  0  0  0
  -28.3804  -24.8837   19.9851 C   0  0  0  0  0  0
  -29.6999  -15.8852   20.6209 N   0  0  0  0  0  0
  -28.3371  -22.3177   21.3109 N   0  3  2  0  0  0
  -31.4706  -12.6823   19.1442 H   0  0  0  0  0  0
  -30.4528  -11.5202   19.9529 H   0  0  0  0  0  0
  -29.8049  -11.7346   17.5291 H   0  0  0  0  0  0
  -29.6145  -13.4638   17.7141 H   0  0  0  0  0  0
  -27.8960  -11.2722   18.9187 H   0  0  0  0  0  0
  -27.3803  -12.5069   17.7998 H   0  0  0  0  0  0
  -27.6260  -14.2445   19.4706 H   0  0  0  0  0  0
  -28.7302  -12.1349   21.3915 H   0  0  0  0  0  0
  -28.3974  -13.7964   21.8108 H   0  0  0  0  0  0
  -25.2744   -9.5648   22.4724 H   0  0  0  0  0  0
  -23.9969   -7.4622   22.7488 H   0  0  0  0  0  0
  -21.0812   -8.8723   19.8964 H   0  0  0  0  0  0
  -22.3675  -10.9604   19.6140 H   0  0  0  0  0  0
  -21.2013   -7.6135   23.9688 H   0  0  0  0  0  0
  -21.1477   -6.0524   25.9058 H   0  0  0  0  0  0
  -22.0607   -2.7601   23.2858 H   0  0  0  0  0  0
  -22.4144  -11.9852   22.4807 H   0  0  0  0  0  0
  -21.1081  -13.1155   22.2646 H   0  0  0  0  0  0
  -24.6488  -15.8354   20.5722 H   0  0  0  0  0  0
  -26.2614  -15.6469   20.1110 H   0  0  0  0  0  0
  -26.7204  -32.5365   23.0991 H   0  0  0  0  0  0
  -25.0063  -33.9629   25.0357 H   0  0  0  0  0  0
  -22.7271  -31.2878   21.3867 H   0  0  0  0  0  0
  -23.3752  -35.9611   23.3315 H   0  0  0  0  0  0
  -24.3589  -36.8894   22.2047 H   0  0  0  0  0  0
  -23.7261  -37.6488   23.6668 H   0  0  0  0  0  0
  -26.1180  -31.5181   20.6008 H   0  0  0  0  0  0
  -26.8508  -30.8090   22.0059 H   0  0  0  0  0  0
  -28.1158  -28.9235   21.2048 H   0  0  0  0  0  0
  -25.9726  -25.8440   19.0791 H   0  0  0  0  0  0
  -23.9833  -27.2706   19.0161 H   0  0  0  0  0  0
  -23.7555  -30.5593   19.3915 H   0  0  0  0  0  0
  -22.7647  -29.2127   19.8692 H   0  0  0  0  0  0
  -25.1320  -36.1878   25.0831 H   0  0  0  0  0  0
  -21.0015  -28.3333   24.1372 H   0  0  0  0  0  0
  -20.5756  -26.2302   23.3537 H   0  0  0  0  0  0
  -21.6695  -26.7491   22.1206 H   0  0  0  0  0  0
  -19.6950  -25.6337   21.1133 H   0  0  0  0  0  0
  -19.6630  -27.3282   20.6708 H   0  0  0  0  0  0
  -17.4194  -26.6454   21.4297 H   0  0  0  0  0  0
  -18.0634  -26.0124   22.9294 H   0  0  0  0  0  0
  -19.8013  -30.7397   24.2114 H   0  0  0  0  0  0
  -17.5137  -31.6329   24.5119 H   0  0  0  0  0  0
  -15.5474  -30.3011   23.7668 H   0  0  0  0  0  0
  -15.8749  -28.0800   22.7143 H   0  0  0  0  0  0
  -24.5880  -30.7093   25.7825 H   0  0  0  0  0  0
  -24.8951  -32.2958   26.4822 H   0  0  0  0  0  0
  -25.8078  -30.8990   27.0222 H   0  0  0  0  0  0
  -26.2983  -29.6680   24.1234 H   0  0  0  0  0  0
  -27.3967  -29.7260   25.4811 H   0  0  0  0  0  0
  -27.8879  -30.4199   23.9531 H   0  0  0  0  0  0
  -27.2547  -33.3593   26.2076 H   0  0  0  0  0  0
  -28.3867  -32.6903   25.0399 H   0  0  0  0  0  0
  -28.0595  -31.8426   26.5469 H   0  0  0  0  0  0
  -28.2601  -38.0086   24.7506 H   0  0  0  0  0  0
  -28.1048  -36.2628   24.6300 H   0  0  0  0  0  0
  -27.2279  -37.1455   25.8860 H   0  0  0  0  0  0
  -20.9346  -29.8882   21.6944 H   0  0  0  0  0  0
  -26.0162  -38.2834   24.1381 H   0  0  0  0  0  0
  -30.3849  -18.6067   24.2873 H   0  0  0  0  0  0
  -25.9444  -23.5987   20.3280 H   0  0  0  0  0  0
  -25.9945  -23.8502   22.1073 H   0  0  0  0  0  0
  -26.5779  -21.3261   20.5961 H   0  0  0  0  0  0
  -26.6397  -21.5471   22.3848 H   0  0  0  0  0  0
  -28.2584  -24.2687   22.1000 H   0  0  0  0  0  0
  -31.0274  -20.8685   24.0734 H   0  0  0  0  0  0
  -29.3411  -21.3270   24.0379 H   0  0  0  0  0  0
  -30.4820  -21.9319   22.8144 H   0  0  0  0  0  0
  -30.3520  -16.3882   24.5245 H   0  0  0  0  0  0
  -31.2136  -15.5913   23.2271 H   0  0  0  0  0  0
  -29.4538  -15.4096   23.3888 H   0  0  0  0  0  0
  -29.8662  -19.2653   18.5060 H   0  0  0  0  0  0
  -28.2216  -18.6970   18.8121 H   0  0  0  0  0  0
  -29.5359  -17.5477   18.5749 H   0  0  0  0  0  0
  -28.7911  -21.1785   19.5364 H   0  0  0  0  0  0
  -30.1854  -21.7901   20.3838 H   0  0  0  0  0  0
  -27.8410  -24.6676   19.0666 H   0  0  0  0  0  0
  -29.4181  -24.6891   19.7153 H   0  0  0  0  0  0
  -28.7395  -15.5948   20.5406 H   0  0  0  0  0  0
  -28.7150  -22.2726   22.2452 H   0  0  0  0  0  0
  1 25  1  0  0  0
  1 30  2  0  0  0
  1 85  1  0  0  0
  2  3  1  0  0  0
  2 25  1  0  0  0
  2 87  1  0  0  0
  2 88  1  0  0  0
  3  4  1  0  0  0
  3 89  1  0  0  0
  3 90  1  0  0  0
  4  5  1  0  0  0
  4 91  1  0  0  0
  4 92  1  0  0  0
  5  6  1  0  0  0
  5 26  1  0  0  0
  5 93  1  0  0  0
  6 25  1  0  0  0
  6 94  1  0  0  0
  6 95  1  0  0  0
  7  8  2  0  0  0
  7 26  1  0  0  0
  7 29  1  0  0  0
  8  9  1  0  0  0
  8 22  1  0  0  0
  9 10  1  0  0  0
  9 27  2  0  0  0
 10 11  2  0  0  0
 10 15  1  0  0  0
 11 12  1  0  0  0
 11 96  1  0  0  0
 12 13  2  0  0  0
 12 97  1  0  0  0
 13 14  1  0  0  0
 13 31  1  0  0  0
 14 15  2  0  0  0
 14 98  1  0  0  0
 15 99  1  0  0  0
 16 17  2  0  0  0
 16 21  1  0  0  0
 16 31  1  0  0  0
 17 18  1  0  0  0
 17100  1  0  0  0
 18 19  2  0  0  0
 18101  1  0  0  0
 19 20  1  0  0  0
 19 24  1  0  0  0
 20 21  2  0  0  0
 20102  1  0  0  0
 21 23  1  0  0  0
 22 28  1  0  0  0
 22 32  2  0  0  0
 26 27  1  0  0  0
 28103  1  0  0  0
 28104  1  0  0  0
 29105  1  0  0  0
 29106  1  0  0  0
 33 34  1  0  0  0
 33 66  1  0  0  0
 33 70  2  0  0  0
 34 36  1  0  0  0
 34 59  1  0  0  0
 34107  1  0  0  0
 35 44  2  0  0  0
 35 45  1  0  0  0
 35 68  1  0  0  0
 36 56  1  0  0  0
 36108  1  0  0  0
 37 39  1  0  0  0
 37 47  1  0  0  0
 37 66  1  0  0  0
 37109  1  0  0  0
 38 43  2  0  0  0
 38 46  1  0  0  0
 38 47  1  0  0  0
 39 64  1  0  0  0
 39 67  2  0  0  0
 40 52  1  0  0  0
 40 53  2  0  0  0
 40 58  1  0  0  0
 41110  1  0  0  0
 41111  1  0  0  0
 41112  1  0  0  0
 41 48  1  0  0  0
 42 43  1  0  0  0
 42 66  1  0  0  0
 42113  1  0  0  0
 42114  1  0  0  0
 43 44  1  0  0  0
 44115  1  0  0  0
 45 46  2  0  0  0
 45116  1  0  0  0
 46117  1  0  0  0
 47118  1  0  0  0
 47119  1  0  0  0
 48 56  1  0  0  0
 48 65  1  0  0  0
 48120  1  0  0  0
 49 50  1  0  0  0
 49 53  1  0  0  0
 49 64  1  0  0  0
 49121  1  0  0  0
 50 51  1  0  0  0
 50122  1  0  0  0
 50123  1  0  0  0
 51 52  1  0  0  0
 51124  1  0  0  0
 51125  1  0  0  0
 52126  1  0  0  0
 52127  1  0  0  0
 53 54  1  0  0  0
 54 55  2  0  0  0
 54128  1  0  0  0
 55 57  1  0  0  0
 55129  1  0  0  0
 56 69  2  0  0  0
 57 58  2  0  0  0
 57130  1  0  0  0
 58131  1  0  0  0
 59 60  1  0  0  0
 59 61  1  0  0  0
 59 62  1  0  0  0
 60132  1  0  0  0
 60133  1  0  0  0
 60134  1  0  0  0
 61135  1  0  0  0
 61136  1  0  0  0
 61137  1  0  0  0
 62138  1  0  0  0
 62139  1  0  0  0
 62140  1  0  0  0
 63 65  1  0  0  0
 63141  1  0  0  0
 63142  1  0  0  0
 63143  1  0  0  0
 64144  1  0  0  0
 65145  1  0  0  0
 68 84  1  0  0  0
 71 72  2  0  0  0
 71 73  1  0  0  0
 71146  1  0  0  0
 72 74  1  0  0  0
 72 80  1  0  0  0
 73 76  2  0  0  0
 73 81  1  0  0  0
 74 75  2  0  0  0
 74 83  1  0  0  0
 75 76  1  0  0  0
 75 82  1  0  0  0
 76 85  1  0  0  0
 77 78  1  0  0  0
 77 79  1  0  0  0
 77147  1  0  0  0
 77148  1  0  0  0
 78 86  1  0  0  0
 78149  1  0  0  0
 78150  1  0  0  0
 79 84  1  0  0  0
 79 86  1  0  0  0
 79151  1  0  0  0
 80152  1  0  0  0
 80153  1  0  0  0
 80154  1  0  0  0
 81155  1  0  0  0
 81156  1  0  0  0
 81157  1  0  0  0
 82158  1  0  0  0
 82159  1  0  0  0
 82160  1  0  0  0
 83161  1  0  0  0
 83162  1  0  0  0
 83 86  1  0  0  0
 84163  1  0  0  0
 84164  1  0  0  0
 85165  1  0  0  0
 86166  1  0  0  0
M  CHG  1  86   1
M  ISO  4   1 100  68 101  84 101  85 100
M  END
> <chiral flag>
0

> <version>
0

> <s_m_source_file>
/data/baiqing/PycharmProjects/Reinvent-master-3.2/result/LINK_invent/BTK/process_docking_weight1_custom_sum_contain_oxygen_bond_distance_aromatic_linkinvent_7_9_3/rearranged_h_0151.sdf

> <i_m_source_file_index>
20

> <r_mmod_Potential_Energy-OPLS-2005>
162.402114868164

> <r_mmod_Stretch_Energy-OPLS-2005>
165.389266967773

> <r_mmod_Bend_Energy-OPLS-2005>
269.073364257812

> <r_mmod_Torsional_Energy-OPLS-2005>
276.330139160156

> <r_mmod_Improper_Torsional_Energy-OPLS-2005>
8.96057891845703

> <r_mmod_Van_der_Waal_Energy-OPLS-2005>
127.956611633301

> <r_mmod_Electrostatic_Energy-OPLS-2005>
-337.364013671875

> <r_mmod_Solvation_Energy-OPLS-2005>
-451.251739501953

> <b_mmod_Minimization_Converged-OPLS-2005>
0

> <r_mmod_RMS_Derivative-OPLS-2005>
5.52571249008179

$$$$
20
                    3D
 Structure written by MMmdl.
170179  0  0  1  0            999 V2000
  -30.6701  -14.5919   20.6311 C   0  0  0  0  0  0
  -30.4382  -12.4162   19.4443 C   0  0  0  0  0  0
  -29.4971  -12.5174   18.2251 C   0  0  0  0  0  0
  -28.0242  -12.3522   18.6435 C   0  0  0  0  0  0
  -27.6519  -13.2152   19.8772 C   0  0  2  0  0  0
  -28.6931  -13.0552   21.0052 C   0  0  0  0  0  0
  -25.2513  -13.8174   20.5700 C   0  0  0  0  0  0
  -24.1774  -13.0441   20.9207 C   0  0  0  0  0  0
  -24.6344  -11.6913   20.8768 C   0  0  0  0  0  0
  -23.9006  -10.4297   21.0427 C   0  0  0  0  0  0
  -24.3602   -9.4219   21.9174 C   0  0  0  0  0  0
  -23.6318   -8.2232   22.0720 C   0  0  0  0  0  0
  -22.4281   -8.0270   21.3532 C   0  0  0  0  0  0
  -21.9904   -9.0220   20.4619 C   0  0  0  0  0  0
  -22.7199  -10.2123   20.3046 C   0  0  0  0  0  0
  -21.6844   -6.0731   22.5291 C   0  0  0  0  0  0
  -21.3995   -6.5636   23.8227 C   0  0  0  0  0  0
  -21.3662   -5.6788   24.9184 C   0  0  0  0  0  0
  -21.6070   -4.3061   24.7222 C   0  0  0  0  0  0
  -21.8822   -3.8149   23.4348 C   0  0  0  0  0  0
  -21.9190   -4.6961   22.3408 C   0  0  0  0  0  0
  -22.7796  -13.5211   21.1901 C   0  0  0  0  0  0
  -22.1666   -4.2147   21.0976 F   0  0  0  0  0  0
  -21.5648   -3.4542   25.7749 F   0  0  0  0  0  0
  -30.0034  -13.4107   20.4430 N   0  0  0  0  0  0
  -26.2957  -12.9342   20.3398 N   0  0  0  0  0  0
  -25.9269  -11.6513   20.5802 N   0  0  0  0  0  0
  -22.0454  -12.8187   22.0461 N   0  0  0  0  0  0
  -25.4217  -15.1895   20.4097 N   0  0  0  0  0  0
  -31.8040  -14.7656   20.1696 O   0  0  0  0  0  0
  -21.6655   -6.8867   21.4243 O   0  0  0  0  0  0
  -22.3482  -14.5520   20.6781 O   0  0  0  0  0  0
  -24.6240  -31.8624   23.2066 C   0  0  0  0  0  0
  -25.9104  -32.4787   23.8376 C   0  0  1  0  0  0
  -27.2148  -27.3512   20.0961 C   0  0  0  0  0  0
  -25.5944  -33.8591   24.2294 N   0  0  0  0  0  0
  -23.4128  -30.4903   21.5481 C   0  0  2  0  0  0
  -24.8530  -28.9468   20.1147 C   0  0  0  0  0  0
  -22.7456  -29.4647   22.4948 C   0  0  0  0  0  0
  -18.0276  -28.1368   22.8488 C   0  0  0  0  0  0
  -24.1494  -36.7295   23.2634 C   0  0  0  0  0  0
  -25.9525  -30.8017   21.3729 C   0  0  0  0  0  0
  -26.0224  -29.4334   20.7111 C   0  0  0  0  0  0
  -27.2044  -28.6429   20.6981 C   0  0  0  0  0  0
  -26.0103  -26.8926   19.5156 C   0  0  0  0  0  0
  -24.8441  -27.6778   19.5170 C   0  0  0  0  0  0
  -23.6241  -29.8285   20.1620 C   0  0  0  0  0  0
  -25.4114  -36.3080   24.0329 C   0  0  1  0  0  0
  -20.5882  -28.3672   23.1297 C   0  0  2  0  0  0
  -20.6760  -26.9390   22.5419 C   0  0  0  0  0  0
  -19.5741  -26.6371   21.5208 C   0  0  0  0  0  0
  -18.1916  -26.7931   22.1606 C   0  0  0  0  0  0
  -19.1531  -28.8832   23.2895 C   0  0  0  0  0  0
  -18.9458  -30.1441   23.8902 C   0  0  0  0  0  0
  -17.6455  -30.6578   24.0555 C   0  0  0  0  0  0
  -25.9057  -34.9453   23.5100 C   0  0  0  0  0  0
  -16.5342  -29.9070   23.6331 C   0  0  0  0  0  0
  -16.7264  -28.6487   23.0349 C   0  0  0  0  0  0
  -26.4490  -31.6597   25.0751 C   0  0  0  0  0  0
  -25.3741  -31.3779   26.1505 C   0  0  0  0  0  0
  -27.0299  -30.3001   24.6219 C   0  0  0  0  0  0
  -27.6077  -32.4321   25.7498 C   0  0  0  0  0  0
  -27.5595  -37.1789   24.8443 C   0  0  0  0  0  0
  -21.4171  -29.3044   22.3698 N   0  0  0  0  0  0
  -26.4278  -37.3783   23.9432 N   0  0  0  0  0  0
  -24.6815  -31.0688   22.0988 N   0  0  0  0  0  0
  -23.4196  -28.8168   23.2999 O   0  0  0  0  0  0
  -28.3575  -26.5530   20.1303 O   0  0  0  0  0  0
  -26.5607  -34.8907   22.4658 O   0  0  0  0  0  0
  -23.5420  -32.1401   23.7425 O   0  0  0  0  0  0
  -31.9275  -17.4249   23.9180 C   0  0  0  0  0  0
  -27.8230  -22.9175   19.1989 C   0  0  0  0  0  0
  -30.0108  -22.1711   20.7508 C   0  0  0  0  0  0
  -30.7682  -19.0908   22.6079 C   0  0  0  0  0  0
  -31.6412  -18.7709   23.6545 C   0  0  0  0  0  0
  -28.1403  -21.5339   19.3624 C   0  0  0  0  0  0
  -29.6778  -23.5493   20.6083 C   0  0  0  0  0  0
  -28.6199  -23.9542   19.7551 C   0  0  0  0  0  0
  -29.2951  -21.1367   20.0919 C   0  0  0  0  0  0
  -31.3615  -16.4011   23.1308 C   0  0  0  0  0  0
  -30.5361  -16.7096   22.0017 C   0  0  0  0  0  0
  -30.2249  -18.1026   21.7511 C   0  0  0  0  0  0
  -32.2631  -19.8836   24.4772 C   0  0  0  0  0  0
  -27.2916  -20.4857   18.6586 C   0  0  0  0  0  0
  -30.5124  -24.5965   21.3227 C   0  0  0  0  0  0
  -31.6586  -14.9742   23.5730 C   0  0  0  0  0  0
  -28.4994  -25.4207   19.2162 C   0  0  0  0  0  0
  -29.9179  -19.7042   19.9553 C   0  0  0  0  0  0
  -29.9845  -15.6120   21.2291 N   0  0  0  0  0  0
  -29.4090  -18.5679   20.7237 O   0  0  0  0  0  0
  -31.4684  -12.5747   19.1256 H   0  0  0  0  0  0
  -30.4139  -11.4145   19.8759 H   0  0  0  0  0  0
  -29.7646  -11.7584   17.4881 H   0  0  0  0  0  0
  -29.6321  -13.4841   17.7367 H   0  0  0  0  0  0
  -27.8582  -11.2993   18.8689 H   0  0  0  0  0  0
  -27.3645  -12.5920   17.8076 H   0  0  0  0  0  0
  -27.6757  -14.2551   19.5513 H   0  0  0  0  0  0
  -28.7108  -12.0287   21.3720 H   0  0  0  0  0  0
  -28.4287  -13.6708   21.8676 H   0  0  0  0  0  0
  -25.2740   -9.5721   22.4745 H   0  0  0  0  0  0
  -24.0077   -7.4590   22.7392 H   0  0  0  0  0  0
  -21.0857   -8.8683   19.8894 H   0  0  0  0  0  0
  -22.3631  -10.9649   19.6162 H   0  0  0  0  0  0
  -21.1964   -7.6142   23.9721 H   0  0  0  0  0  0
  -21.1490   -6.0518   25.9087 H   0  0  0  0  0  0
  -22.0602   -2.7612   23.2839 H   0  0  0  0  0  0
  -22.4099  -11.9881   22.4911 H   0  0  0  0  0  0
  -21.1039  -13.1118   22.2632 H   0  0  0  0  0  0
  -24.6546  -15.8421   20.5168 H   0  0  0  0  0  0
  -26.2751  -15.6317   20.0902 H   0  0  0  0  0  0
  -26.7186  -32.5451   23.1137 H   0  0  0  0  0  0
  -25.0120  -33.9749   25.0453 H   0  0  0  0  0  0
  -22.7039  -31.3099   21.4103 H   0  0  0  0  0  0
  -23.3759  -35.9622   23.3259 H   0  0  0  0  0  0
  -24.3599  -36.8948   22.2058 H   0  0  0  0  0  0
  -23.7235  -37.6481   23.6677 H   0  0  0  0  0  0
  -26.0900  -31.5693   20.6105 H   0  0  0  0  0  0
  -26.8318  -30.8405   22.0040 H   0  0  0  0  0  0
  -28.1060  -29.0131   21.1645 H   0  0  0  0  0  0
  -25.9241  -25.9041   19.0917 H   0  0  0  0  0  0
  -23.9368  -27.2881   19.0736 H   0  0  0  0  0  0
  -23.7485  -30.6062   19.4083 H   0  0  0  0  0  0
  -22.7424  -29.2632   19.8564 H   0  0  0  0  0  0
  -25.1287  -36.1912   25.0817 H   0  0  0  0  0  0
  -20.9982  -28.3238   24.1420 H   0  0  0  0  0  0
  -20.5631  -26.2285   23.3619 H   0  0  0  0  0  0
  -21.6633  -26.7402   22.1239 H   0  0  0  0  0  0
  -19.6895  -25.6278   21.1249 H   0  0  0  0  0  0
  -19.6698  -27.3170   20.6734 H   0  0  0  0  0  0
  -17.4206  -26.6710   21.3984 H   0  0  0  0  0  0
  -18.0279  -26.0053   22.8975 H   0  0  0  0  0  0
  -19.7928  -30.7251   24.2285 H   0  0  0  0  0  0
  -17.5004  -31.6261   24.5141 H   0  0  0  0  0  0
  -15.5344  -30.2956   23.7658 H   0  0  0  0  0  0
  -15.8671  -28.0799   22.7061 H   0  0  0  0  0  0
  -24.5896  -30.7131   25.7869 H   0  0  0  0  0  0
  -24.8961  -32.2973   26.4909 H   0  0  0  0  0  0
  -25.8084  -30.8990   27.0289 H   0  0  0  0  0  0
  -26.2857  -29.6779   24.1242 H   0  0  0  0  0  0
  -27.3950  -29.7250   25.4736 H   0  0  0  0  0  0
  -27.8755  -30.4241   23.9452 H   0  0  0  0  0  0
  -27.2704  -33.3619   26.2085 H   0  0  0  0  0  0
  -28.3874  -32.6886   25.0316 H   0  0  0  0  0  0
  -28.0756  -31.8445   26.5404 H   0  0  0  0  0  0
  -28.2565  -38.0129   24.7544 H   0  0  0  0  0  0
  -28.1132  -36.2675   24.6167 H   0  0  0  0  0  0
  -27.2352  -37.1303   25.8847 H   0  0  0  0  0  0
  -20.9314  -29.8810   21.6967 H   0  0  0  0  0  0
  -26.0152  -38.2846   24.1462 H   0  0  0  0  0  0
  -32.5758  -17.1731   24.7459 H   0  0  0  0  0  0
  -26.9959  -23.1884   18.5575 H   0  0  0  0  0  0
  -30.9006  -21.9166   21.3095 H   0  0  0  0  0  0
  -30.5206  -20.1281   22.4664 H   0  0  0  0  0  0
  -32.7326  -19.5052   25.3858 H   0  0  0  0  0  0
  -31.5174  -20.6239   24.7653 H   0  0  0  0  0  0
  -33.0263  -20.3966   23.8916 H   0  0  0  0  0  0
  -26.3571  -20.8981   18.2780 H   0  0  0  0  0  0
  -27.0364  -19.6725   19.3400 H   0  0  0  0  0  0
  -27.8344  -20.0611   17.8145 H   0  0  0  0  0  0
  -31.2081  -24.1440   22.0285 H   0  0  0  0  0  0
  -29.8616  -25.2657   21.8881 H   0  0  0  0  0  0
  -31.0877  -25.1938   20.6157 H   0  0  0  0  0  0
  -32.4451  -14.5352   22.9602 H   0  0  0  0  0  0
  -30.7694  -14.3438   23.5168 H   0  0  0  0  0  0
  -31.9969  -14.9492   24.6098 H   0  0  0  0  0  0
  -27.8143  -25.4527   18.3704 H   0  0  0  0  0  0
  -29.4581  -25.6053   18.7304 H   0  0  0  0  0  0
  -30.9998  -19.7864   20.0717 H   0  0  0  0  0  0
  -29.8073  -19.4122   18.9125 H   0  0  0  0  0  0
  -28.9985  -15.4542   21.3647 H   0  0  0  0  0  0
  1 25  1  0  0  0
  1 30  2  0  0  0
  1 89  1  0  0  0
  2  3  1  0  0  0
  2 25  1  0  0  0
  2 91  1  0  0  0
  2 92  1  0  0  0
  3  4  1  0  0  0
  3 93  1  0  0  0
  3 94  1  0  0  0
  4  5  1  0  0  0
  4 95  1  0  0  0
  4 96  1  0  0  0
  5  6  1  0  0  0
  5 26  1  0  0  0
  5 97  1  0  0  0
  6 25  1  0  0  0
  6 98  1  0  0  0
  6 99  1  0  0  0
  7  8  2  0  0  0
  7 26  1  0  0  0
  7 29  1  0  0  0
  8  9  1  0  0  0
  8 22  1  0  0  0
  9 10  1  0  0  0
  9 27  2  0  0  0
 10 11  2  0  0  0
 10 15  1  0  0  0
 11 12  1  0  0  0
 11100  1  0  0  0
 12 13  2  0  0  0
 12101  1  0  0  0
 13 14  1  0  0  0
 13 31  1  0  0  0
 14 15  2  0  0  0
 14102  1  0  0  0
 15103  1  0  0  0
 16 17  2  0  0  0
 16 21  1  0  0  0
 16 31  1  0  0  0
 17 18  1  0  0  0
 17104  1  0  0  0
 18 19  2  0  0  0
 18105  1  0  0  0
 19 20  1  0  0  0
 19 24  1  0  0  0
 20 21  2  0  0  0
 20106  1  0  0  0
 21 23  1  0  0  0
 22 28  1  0  0  0
 22 32  2  0  0  0
 26 27  1  0  0  0
 28107  1  0  0  0
 28108  1  0  0  0
 29109  1  0  0  0
 29110  1  0  0  0
 33 34  1  0  0  0
 33 66  1  0  0  0
 33 70  2  0  0  0
 34 36  1  0  0  0
 34 59  1  0  0  0
 34111  1  0  0  0
 35 44  2  0  0  0
 35 45  1  0  0  0
 35 68  1  0  0  0
 36 56  1  0  0  0
 36112  1  0  0  0
 37 39  1  0  0  0
 37 47  1  0  0  0
 37 66  1  0  0  0
 37113  1  0  0  0
 38 43  2  0  0  0
 38 46  1  0  0  0
 38 47  1  0  0  0
 39 64  1  0  0  0
 39 67  2  0  0  0
 40 52  1  0  0  0
 40 53  2  0  0  0
 40 58  1  0  0  0
 41114  1  0  0  0
 41115  1  0  0  0
 41116  1  0  0  0
 41 48  1  0  0  0
 42 43  1  0  0  0
 42 66  1  0  0  0
 42117  1  0  0  0
 42118  1  0  0  0
 43 44  1  0  0  0
 44119  1  0  0  0
 45 46  2  0  0  0
 45120  1  0  0  0
 46121  1  0  0  0
 47122  1  0  0  0
 47123  1  0  0  0
 48 56  1  0  0  0
 48 65  1  0  0  0
 48124  1  0  0  0
 49 50  1  0  0  0
 49 53  1  0  0  0
 49 64  1  0  0  0
 49125  1  0  0  0
 50 51  1  0  0  0
 50126  1  0  0  0
 50127  1  0  0  0
 51 52  1  0  0  0
 51128  1  0  0  0
 51129  1  0  0  0
 52130  1  0  0  0
 52131  1  0  0  0
 53 54  1  0  0  0
 54 55  2  0  0  0
 54132  1  0  0  0
 55 57  1  0  0  0
 55133  1  0  0  0
 56 69  2  0  0  0
 57 58  2  0  0  0
 57134  1  0  0  0
 58135  1  0  0  0
 59 60  1  0  0  0
 59 61  1  0  0  0
 59 62  1  0  0  0
 60136  1  0  0  0
 60137  1  0  0  0
 60138  1  0  0  0
 61139  1  0  0  0
 61140  1  0  0  0
 61141  1  0  0  0
 62142  1  0  0  0
 62143  1  0  0  0
 62144  1  0  0  0
 63 65  1  0  0  0
 63145  1  0  0  0
 63146  1  0  0  0
 63147  1  0  0  0
 64148  1  0  0  0
 65149  1  0  0  0
 68 87  1  0  0  0
 71 75  2  0  0  0
 71 80  1  0  0  0
 71150  1  0  0  0
 72 76  2  0  0  0
 72 78  1  0  0  0
 72151  1  0  0  0
 73 77  1  0  0  0
 73 79  2  0  0  0
 73152  1  0  0  0
 74 75  1  0  0  0
 74 82  2  0  0  0
 74153  1  0  0  0
 75 83  1  0  0  0
 76 79  1  0  0  0
 76 84  1  0  0  0
 77 78  2  0  0  0
 77 85  1  0  0  0
 78 87  1  0  0  0
 79 88  1  0  0  0
 80 81  2  0  0  0
 80 86  1  0  0  0
 81 82  1  0  0  0
 81 89  1  0  0  0
 82 90  1  0  0  0
 83154  1  0  0  0
 83155  1  0  0  0
 83156  1  0  0  0
 84157  1  0  0  0
 84158  1  0  0  0
 84159  1  0  0  0
 85160  1  0  0  0
 85161  1  0  0  0
 85162  1  0  0  0
 86163  1  0  0  0
 86164  1  0  0  0
 86165  1  0  0  0
 87166  1  0  0  0
 87167  1  0  0  0
 88 90  1  0  0  0
 88168  1  0  0  0
 88169  1  0  0  0
 89170  1  0  0  0
M  ISO  4   1 100  68 101  87 101  89 100
M  END
> <chiral flag>
0

> <version>
0

> <s_m_source_file>
/data/baiqing/PycharmProjects/Reinvent-master-3.2/result/LINK_invent/BTK/process_docking_weight1_custom_sum_contain_oxygen_bond_distance_aromatic_linkinvent_7_9_3/rearranged_h_0151.sdf

> <i_m_source_file_index>
21

> <r_mmod_Potential_Energy-OPLS-2005>
115.661590576172

> <r_mmod_Stretch_Energy-OPLS-2005>
71.3704528808594

> <r_mmod_Bend_Energy-OPLS-2005>
138.641876220703

> <r_mmod_Torsional_Energy-OPLS-2005>
290.246765136719

> <r_mmod_Improper_Torsional_Energy-OPLS-2005>
7.2388162612915

> <r_mmod_Van_der_Waal_Energy-OPLS-2005>
173.571838378906

> <r_mmod_Electrostatic_Energy-OPLS-2005>
-400.559173583984

> <r_mmod_Solvation_Energy-OPLS-2005>
-200.621505737305

> <b_mmod_Minimization_Converged-OPLS-2005>
0

> <r_mmod_RMS_Derivative-OPLS-2005>
4.29913282394409

$$$$
21
                    3D
 Structure written by MMmdl.
164173  0  0  1  0            999 V2000
  -30.7273  -14.4534   20.5806 C   0  0  0  0  0  0
  -30.4142  -12.3003   19.4203 C   0  0  0  0  0  0
  -29.4890  -12.5000   18.2038 C   0  0  0  0  0  0
  -28.0116  -12.3628   18.6191 C   0  0  0  0  0  0
  -27.6590  -13.2088   19.8722 C   0  0  2  0  0  0
  -28.7012  -13.0028   20.9945 C   0  0  0  0  0  0
  -25.2576  -13.8169   20.5680 C   0  0  0  0  0  0
  -24.1831  -13.0443   20.9182 C   0  0  0  0  0  0
  -24.6389  -11.6910   20.8743 C   0  0  0  0  0  0
  -23.9059  -10.4294   21.0408 C   0  0  0  0  0  0
  -24.3612   -9.4210   21.9186 C   0  0  0  0  0  0
  -23.6290   -8.2244   22.0755 C   0  0  0  0  0  0
  -22.4272   -8.0282   21.3544 C   0  0  0  0  0  0
  -21.9907   -9.0256   20.4647 C   0  0  0  0  0  0
  -22.7233  -10.2136   20.3058 C   0  0  0  0  0  0
  -21.6852   -6.0736   22.5279 C   0  0  0  0  0  0
  -21.4013   -6.5640   23.8213 C   0  0  0  0  0  0
  -21.3659   -5.6793   24.9175 C   0  0  0  0  0  0
  -21.6043   -4.3056   24.7225 C   0  0  0  0  0  0
  -21.8820   -3.8148   23.4346 C   0  0  0  0  0  0
  -21.9192   -4.6964   22.3402 C   0  0  0  0  0  0
  -22.7854  -13.5239   21.1845 C   0  0  0  0  0  0
  -22.1661   -4.2150   21.0980 F   0  0  0  0  0  0
  -21.5629   -3.4540   25.7738 F   0  0  0  0  0  0
  -30.0304  -13.2945   20.4347 N   0  0  0  0  0  0
  -26.3011  -12.9341   20.3361 N   0  0  0  0  0  0
  -25.9316  -11.6500   20.5773 N   0  0  0  0  0  0
  -22.0494  -12.8233   22.0401 N   0  0  0  0  0  0
  -25.4304  -15.1885   20.4075 N   0  0  0  0  0  0
  -31.8602  -14.6035   20.1128 O   0  0  0  0  0  0
  -21.6637   -6.8878   21.4240 O   0  0  0  0  0  0
  -22.3542  -14.5548   20.6696 O   0  0  0  0  0  0
  -24.6143  -31.8687   23.2107 C   0  0  0  0  0  0
  -25.9039  -32.4827   23.8398 C   0  0  1  0  0  0
  -27.2290  -27.4316   20.0970 C   0  0  0  0  0  0
  -25.5893  -33.8624   24.2330 N   0  0  0  0  0  0
  -23.4015  -30.4932   21.5518 C   0  0  2  0  0  0
  -24.8457  -28.9612   20.1126 C   0  0  0  0  0  0
  -22.7409  -29.4661   22.4994 C   0  0  0  0  0  0
  -18.0271  -28.1375   22.8493 C   0  0  0  0  0  0
  -24.1486  -36.7320   23.2638 C   0  0  0  0  0  0
  -25.9304  -30.8341   21.3632 C   0  0  0  0  0  0
  -26.0063  -29.4692   20.7086 C   0  0  0  0  0  0
  -27.2006  -28.7129   20.6956 C   0  0  0  0  0  0
  -26.0507  -26.9452   19.4832 C   0  0  0  0  0  0
  -24.8632  -27.6992   19.4960 C   0  0  0  0  0  0
  -23.6084  -29.8282   20.1651 C   0  0  0  0  0  0
  -25.4106  -36.3116   24.0338 C   0  0  1  0  0  0
  -20.5861  -28.3663   23.1321 C   0  0  2  0  0  0
  -20.6763  -26.9400   22.5418 C   0  0  0  0  0  0
  -19.5742  -26.6385   21.5214 C   0  0  0  0  0  0
  -18.1921  -26.7921   22.1624 C   0  0  0  0  0  0
  -19.1520  -28.8833   23.2904 C   0  0  0  0  0  0
  -18.9450  -30.1439   23.8915 C   0  0  0  0  0  0
  -17.6455  -30.6583   24.0565 C   0  0  0  0  0  0
  -25.9030  -34.9480   23.5132 C   0  0  0  0  0  0
  -16.5344  -29.9087   23.6323 C   0  0  0  0  0  0
  -16.7261  -28.6502   23.0346 C   0  0  0  0  0  0
  -26.4466  -31.6601   25.0723 C   0  0  0  0  0  0
  -25.3734  -31.3704   26.1475 C   0  0  0  0  0  0
  -27.0293  -30.3045   24.6087 C   0  0  0  0  0  0
  -27.6046  -32.4317   25.7483 C   0  0  0  0  0  0
  -27.5582  -37.1815   24.8465 C   0  0  0  0  0  0
  -21.4138  -29.3033   22.3732 N   0  0  0  0  0  0
  -26.4297  -37.3796   23.9404 N   0  0  0  0  0  0
  -24.6672  -31.0792   22.1005 N   0  0  0  0  0  0
  -23.4188  -28.8199   23.3028 O   0  0  0  0  0  0
  -28.3983  -26.6965   20.1308 O   0  0  0  0  0  0
  -26.5598  -34.8930   22.4697 O   0  0  0  0  0  0
  -23.5338  -32.1439   23.7505 O   0  0  0  0  0  0
  -31.8578  -17.0697   21.8908 C   0  0  0  0  0  0
  -29.9473  -17.9821   21.0770 C   0  0  0  0  0  0
  -30.5805  -16.7950   21.3364 C   0  0  0  0  0  0
  -32.0009  -18.4286   21.9179 C   0  0  0  0  0  0
  -29.8019  -20.8582   19.9840 C   0  0  0  0  0  0
  -30.0319  -21.1265   22.4390 C   0  0  0  0  0  0
  -29.8066  -22.3990   19.8145 C   0  0  0  0  0  0
  -30.0460  -22.6618   22.2705 C   0  0  0  0  0  0
  -30.6448  -20.4539   21.2052 C   0  0  1  0  0  0
  -33.1657  -19.2356   22.4027 C   0  0  0  0  0  0
  -29.4397  -24.6201   20.8956 C   0  0  0  0  0  0
  -28.2828  -25.2621   20.0987 C   0  0  0  0  0  0
  -30.8470  -19.0059   21.3786 N   0  0  0  0  0  0
  -30.0502  -15.4906   21.1155 N   0  0  0  0  0  0
  -29.3483  -23.1303   21.0356 N   0  3  1  0  0  0
  -31.4593  -12.3854   19.1175 H   0  0  0  0  0  0
  -30.3052  -11.2927   19.8244 H   0  0  0  0  0  0
  -29.7269  -11.7731   17.4258 H   0  0  0  0  0  0
  -29.6599  -13.4847   17.7658 H   0  0  0  0  0  0
  -27.8227  -11.3077   18.8204 H   0  0  0  0  0  0
  -27.3599  -12.6332   17.7875 H   0  0  0  0  0  0
  -27.7003  -14.2546   19.5672 H   0  0  0  0  0  0
  -28.6747  -11.9733   21.3545 H   0  0  0  0  0  0
  -28.4679  -13.6218   21.8620 H   0  0  0  0  0  0
  -25.2758   -9.5684   22.4760 H   0  0  0  0  0  0
  -24.0000   -7.4634   22.7473 H   0  0  0  0  0  0
  -21.0839   -8.8774   19.8952 H   0  0  0  0  0  0
  -22.3693  -10.9675   19.6167 H   0  0  0  0  0  0
  -21.2006   -7.6149   23.9716 H   0  0  0  0  0  0
  -21.1479   -6.0524   25.9078 H   0  0  0  0  0  0
  -22.0599   -2.7610   23.2847 H   0  0  0  0  0  0
  -22.4103  -11.9890   22.4786 H   0  0  0  0  0  0
  -21.1114  -13.1263   22.2609 H   0  0  0  0  0  0
  -24.6645  -15.8454   20.5117 H   0  0  0  0  0  0
  -26.2828  -15.6247   20.0788 H   0  0  0  0  0  0
  -26.7113  -32.5538   23.1165 H   0  0  0  0  0  0
  -25.0044  -33.9786   25.0475 H   0  0  0  0  0  0
  -22.6902  -31.3103   21.4154 H   0  0  0  0  0  0
  -23.3744  -35.9660   23.3312 H   0  0  0  0  0  0
  -24.3584  -36.8919   22.2050 H   0  0  0  0  0  0
  -23.7245  -37.6531   23.6644 H   0  0  0  0  0  0
  -26.0426  -31.6010   20.5955 H   0  0  0  0  0  0
  -26.8183  -30.8863   21.9813 H   0  0  0  0  0  0
  -28.0957  -29.1008   21.1621 H   0  0  0  0  0  0
  -26.0299  -25.9869   18.9851 H   0  0  0  0  0  0
  -23.9722  -27.3057   19.0260 H   0  0  0  0  0  0
  -23.7167  -30.6048   19.4070 H   0  0  0  0  0  0
  -22.7316  -29.2489   19.8695 H   0  0  0  0  0  0
  -25.1284  -36.1989   25.0832 H   0  0  0  0  0  0
  -20.9952  -28.3229   24.1441 H   0  0  0  0  0  0
  -20.5669  -26.2271   23.3605 H   0  0  0  0  0  0
  -21.6635  -26.7449   22.1210 H   0  0  0  0  0  0
  -19.6904  -25.6302   21.1230 H   0  0  0  0  0  0
  -19.6677  -27.3209   20.6756 H   0  0  0  0  0  0
  -17.4191  -26.6671   21.4025 H   0  0  0  0  0  0
  -18.0316  -26.0061   22.9016 H   0  0  0  0  0  0
  -19.7928  -30.7246   24.2295 H   0  0  0  0  0  0
  -17.5013  -31.6266   24.5164 H   0  0  0  0  0  0
  -15.5346  -30.2996   23.7637 H   0  0  0  0  0  0
  -15.8660  -28.0830   22.7049 H   0  0  0  0  0  0
  -24.5905  -30.7052   25.7813 H   0  0  0  0  0  0
  -24.8930  -32.2859   26.4938 H   0  0  0  0  0  0
  -25.8092  -30.8865   27.0225 H   0  0  0  0  0  0
  -26.2832  -29.6813   24.1142 H   0  0  0  0  0  0
  -27.4067  -29.7274   25.4539 H   0  0  0  0  0  0
  -27.8667  -30.4367   23.9231 H   0  0  0  0  0  0
  -27.2667  -33.3604   26.2095 H   0  0  0  0  0  0
  -28.3838  -32.6894   25.0296 H   0  0  0  0  0  0
  -28.0735  -31.8418   26.5370 H   0  0  0  0  0  0
  -28.2608  -38.0105   24.7511 H   0  0  0  0  0  0
  -28.1069  -36.2638   24.6295 H   0  0  0  0  0  0
  -27.2302  -37.1472   25.8868 H   0  0  0  0  0  0
  -20.9295  -29.8769   21.6969 H   0  0  0  0  0  0
  -26.0190  -38.2878   24.1400 H   0  0  0  0  0  0
  -32.5988  -16.3554   22.2246 H   0  0  0  0  0  0
  -28.9683  -18.1960   20.6688 H   0  0  0  0  0  0
  -30.2046  -20.3926   19.0840 H   0  0  0  0  0  0
  -28.7777  -20.4989   20.0867 H   0  0  0  0  0  0
  -29.0140  -20.7694   22.5990 H   0  0  0  0  0  0
  -30.5929  -20.8577   23.3343 H   0  0  0  0  0  0
  -29.1781  -22.6690   18.9656 H   0  0  0  0  0  0
  -30.8172  -22.7247   19.5615 H   0  0  0  0  0  0
  -31.0795  -23.0124   22.2508 H   0  0  0  0  0  0
  -29.5836  -23.1190   23.1464 H   0  0  0  0  0  0
  -31.6340  -20.8847   21.0449 H   0  0  0  0  0  0
  -33.8996  -18.6006   22.8998 H   0  0  0  0  0  0
  -32.8547  -19.9941   23.1208 H   0  0  0  0  0  0
  -33.6720  -19.7339   21.5756 H   0  0  0  0  0  0
  -29.4198  -25.0691   21.8897 H   0  0  0  0  0  0
  -30.3999  -24.9022   20.4620 H   0  0  0  0  0  0
  -27.3457  -24.9340   20.5516 H   0  0  0  0  0  0
  -28.2863  -24.9241   19.0620 H   0  0  0  0  0  0
  -29.0690  -15.3438   21.2980 H   0  0  0  0  0  0
  -28.3719  -22.9048   21.1699 H   0  0  0  0  0  0
  1 25  1  0  0  0
  1 30  2  0  0  0
  1 84  1  0  0  0
  2  3  1  0  0  0
  2 25  1  0  0  0
  2 86  1  0  0  0
  2 87  1  0  0  0
  3  4  1  0  0  0
  3 88  1  0  0  0
  3 89  1  0  0  0
  4  5  1  0  0  0
  4 90  1  0  0  0
  4 91  1  0  0  0
  5  6  1  0  0  0
  5 26  1  0  0  0
  5 92  1  0  0  0
  6 25  1  0  0  0
  6 93  1  0  0  0
  6 94  1  0  0  0
  7  8  2  0  0  0
  7 26  1  0  0  0
  7 29  1  0  0  0
  8  9  1  0  0  0
  8 22  1  0  0  0
  9 10  1  0  0  0
  9 27  2  0  0  0
 10 11  2  0  0  0
 10 15  1  0  0  0
 11 12  1  0  0  0
 11 95  1  0  0  0
 12 13  2  0  0  0
 12 96  1  0  0  0
 13 14  1  0  0  0
 13 31  1  0  0  0
 14 15  2  0  0  0
 14 97  1  0  0  0
 15 98  1  0  0  0
 16 17  2  0  0  0
 16 21  1  0  0  0
 16 31  1  0  0  0
 17 18  1  0  0  0
 17 99  1  0  0  0
 18 19  2  0  0  0
 18100  1  0  0  0
 19 20  1  0  0  0
 19 24  1  0  0  0
 20 21  2  0  0  0
 20101  1  0  0  0
 21 23  1  0  0  0
 22 28  1  0  0  0
 22 32  2  0  0  0
 26 27  1  0  0  0
 28102  1  0  0  0
 28103  1  0  0  0
 29104  1  0  0  0
 29105  1  0  0  0
 33 34  1  0  0  0
 33 66  1  0  0  0
 33 70  2  0  0  0
 34 36  1  0  0  0
 34 59  1  0  0  0
 34106  1  0  0  0
 35 44  2  0  0  0
 35 45  1  0  0  0
 35 68  1  0  0  0
 36 56  1  0  0  0
 36107  1  0  0  0
 37 39  1  0  0  0
 37 47  1  0  0  0
 37 66  1  0  0  0
 37108  1  0  0  0
 38 43  2  0  0  0
 38 46  1  0  0  0
 38 47  1  0  0  0
 39 64  1  0  0  0
 39 67  2  0  0  0
 40 52  1  0  0  0
 40 53  2  0  0  0
 40 58  1  0  0  0
 41109  1  0  0  0
 41110  1  0  0  0
 41111  1  0  0  0
 41 48  1  0  0  0
 42 43  1  0  0  0
 42 66  1  0  0  0
 42112  1  0  0  0
 42113  1  0  0  0
 43 44  1  0  0  0
 44114  1  0  0  0
 45 46  2  0  0  0
 45115  1  0  0  0
 46116  1  0  0  0
 47117  1  0  0  0
 47118  1  0  0  0
 48 56  1  0  0  0
 48 65  1  0  0  0
 48119  1  0  0  0
 49 50  1  0  0  0
 49 53  1  0  0  0
 49 64  1  0  0  0
 49120  1  0  0  0
 50 51  1  0  0  0
 50121  1  0  0  0
 50122  1  0  0  0
 51 52  1  0  0  0
 51123  1  0  0  0
 51124  1  0  0  0
 52125  1  0  0  0
 52126  1  0  0  0
 53 54  1  0  0  0
 54 55  2  0  0  0
 54127  1  0  0  0
 55 57  1  0  0  0
 55128  1  0  0  0
 56 69  2  0  0  0
 57 58  2  0  0  0
 57129  1  0  0  0
 58130  1  0  0  0
 59 60  1  0  0  0
 59 61  1  0  0  0
 59 62  1  0  0  0
 60131  1  0  0  0
 60132  1  0  0  0
 60133  1  0  0  0
 61134  1  0  0  0
 61135  1  0  0  0
 61136  1  0  0  0
 62137  1  0  0  0
 62138  1  0  0  0
 62139  1  0  0  0
 63 65  1  0  0  0
 63140  1  0  0  0
 63141  1  0  0  0
 63142  1  0  0  0
 64143  1  0  0  0
 65144  1  0  0  0
 68 82  1  0  0  0
 71 73  1  0  0  0
 71 74  2  0  0  0
 71145  1  0  0  0
 72 73  2  0  0  0
 72 83  1  0  0  0
 72146  1  0  0  0
 73 84  1  0  0  0
 74 80  1  0  0  0
 74 83  1  0  0  0
 75 77  1  0  0  0
 75 79  1  0  0  0
 75147  1  0  0  0
 75148  1  0  0  0
 76 78  1  0  0  0
 76 79  1  0  0  0
 76149  1  0  0  0
 76150  1  0  0  0
 77 85  1  0  0  0
 77151  1  0  0  0
 77152  1  0  0  0
 78 85  1  0  0  0
 78153  1  0  0  0
 78154  1  0  0  0
 79 83  1  0  0  0
 79155  1  0  0  0
 80156  1  0  0  0
 80157  1  0  0  0
 80158  1  0  0  0
 81 82  1  0  0  0
 81159  1  0  0  0
 81160  1  0  0  0
 81 85  1  0  0  0
 82161  1  0  0  0
 82162  1  0  0  0
 84163  1  0  0  0
 85164  1  0  0  0
M  CHG  1  85   1
M  ISO  4   1 100  68 101  82 101  84 100
M  END
> <chiral flag>
0

> <version>
0

> <s_m_source_file>
/data/baiqing/PycharmProjects/Reinvent-master-3.2/result/LINK_invent/BTK/process_docking_weight1_custom_sum_contain_oxygen_bond_distance_aromatic_linkinvent_7_9_3/rearranged_h_0151.sdf

> <i_m_source_file_index>
22

> <r_mmod_Potential_Energy-OPLS-2005>
-119.614318847656

> <r_mmod_Stretch_Energy-OPLS-2005>
38.1588478088379

> <r_mmod_Bend_Energy-OPLS-2005>
106.576026916504

> <r_mmod_Torsional_Energy-OPLS-2005>
276.324493408203

> <r_mmod_Improper_Torsional_Energy-OPLS-2005>
3.64059615135193

> <r_mmod_Van_der_Waal_Energy-OPLS-2005>
140.200332641602

> <r_mmod_Electrostatic_Energy-OPLS-2005>
-240.934616088867

> <r_mmod_Solvation_Energy-OPLS-2005>
-457.116821289062

> <b_mmod_Minimization_Converged-OPLS-2005>
0

> <r_mmod_RMS_Derivative-OPLS-2005>
0.402074426412582

$$$$
22
                    3D
 Structure written by MMmdl.
168178  0  0  1  0            999 V2000
  -30.7202  -14.4549   20.5533 C   0  0  0  0  0  0
  -30.4123  -12.2941   19.4146 C   0  0  0  0  0  0
  -29.4868  -12.5046   18.1991 C   0  0  0  0  0  0
  -28.0082  -12.3686   18.6131 C   0  0  0  0  0  0
  -27.6573  -13.2051   19.8724 C   0  0  2  0  0  0
  -28.7031  -13.0044   20.9930 C   0  0  0  0  0  0
  -25.2582  -13.8161   20.5693 C   0  0  0  0  0  0
  -24.1826  -13.0441   20.9178 C   0  0  0  0  0  0
  -24.6376  -11.6909   20.8728 C   0  0  0  0  0  0
  -23.9049  -10.4302   21.0396 C   0  0  0  0  0  0
  -24.3619   -9.4221   21.9167 C   0  0  0  0  0  0
  -23.6308   -8.2241   22.0743 C   0  0  0  0  0  0
  -22.4280   -8.0279   21.3545 C   0  0  0  0  0  0
  -21.9907   -9.0246   20.4641 C   0  0  0  0  0  0
  -22.7219  -10.2131   20.3052 C   0  0  0  0  0  0
  -21.6851   -6.0736   22.5282 C   0  0  0  0  0  0
  -21.4000   -6.5639   23.8216 C   0  0  0  0  0  0
  -21.3655   -5.6787   24.9176 C   0  0  0  0  0  0
  -21.6050   -4.3053   24.7222 C   0  0  0  0  0  0
  -21.8820   -3.8144   23.4340 C   0  0  0  0  0  0
  -21.9199   -4.6966   22.3402 C   0  0  0  0  0  0
  -22.7854  -13.5233   21.1864 C   0  0  0  0  0  0
  -22.1670   -4.2154   21.0978 F   0  0  0  0  0  0
  -21.5641   -3.4536   25.7732 F   0  0  0  0  0  0
  -30.0322  -13.2880   20.4285 N   0  0  0  0  0  0
  -26.3001  -12.9318   20.3369 N   0  0  0  0  0  0
  -25.9303  -11.6482   20.5758 N   0  0  0  0  0  0
  -22.0513  -12.8215   22.0425 N   0  0  0  0  0  0
  -25.4353  -15.1871   20.4124 N   0  0  0  0  0  0
  -31.8667  -14.6037   20.1202 O   0  0  0  0  0  0
  -21.6650   -6.8873   21.4242 O   0  0  0  0  0  0
  -22.3532  -14.5545   20.6727 O   0  0  0  0  0  0
  -24.6112  -31.8696   23.2120 C   0  0  0  0  0  0
  -25.9011  -32.4836   23.8407 C   0  0  1  0  0  0
  -27.2449  -27.4541   20.1045 C   0  0  0  0  0  0
  -25.5882  -33.8632   24.2336 N   0  0  0  0  0  0
  -23.3999  -30.4913   21.5509 C   0  0  2  0  0  0
  -24.8518  -28.9578   20.1192 C   0  0  0  0  0  0
  -22.7392  -29.4657   22.5001 C   0  0  0  0  0  0
  -18.0262  -28.1376   22.8490 C   0  0  0  0  0  0
  -24.1480  -36.7324   23.2639 C   0  0  0  0  0  0
  -25.9255  -30.8397   21.3649 C   0  0  0  0  0  0
  -26.0068  -29.4712   20.7236 C   0  0  0  0  0  0
  -27.2055  -28.7244   20.7263 C   0  0  0  0  0  0
  -26.0804  -26.9575   19.4866 C   0  0  0  0  0  0
  -24.8815  -27.6958   19.4997 C   0  0  0  0  0  0
  -23.6097  -29.8193   20.1667 C   0  0  0  0  0  0
  -25.4101  -36.3121   24.0346 C   0  0  1  0  0  0
  -20.5852  -28.3651   23.1334 C   0  0  2  0  0  0
  -20.6751  -26.9387   22.5440 C   0  0  0  0  0  0
  -19.5748  -26.6377   21.5218 C   0  0  0  0  0  0
  -18.1913  -26.7932   22.1602 C   0  0  0  0  0  0
  -19.1511  -28.8828   23.2914 C   0  0  0  0  0  0
  -18.9442  -30.1438   23.8922 C   0  0  0  0  0  0
  -17.6446  -30.6583   24.0562 C   0  0  0  0  0  0
  -25.9030  -34.9489   23.5137 C   0  0  0  0  0  0
  -16.5338  -29.9086   23.6326 C   0  0  0  0  0  0
  -16.7252  -28.6504   23.0346 C   0  0  0  0  0  0
  -26.4457  -31.6611   25.0724 C   0  0  0  0  0  0
  -25.3735  -31.3729   26.1485 C   0  0  0  0  0  0
  -27.0277  -30.3052   24.6088 C   0  0  0  0  0  0
  -27.6051  -32.4328   25.7460 C   0  0  0  0  0  0
  -27.5596  -37.1792   24.8449 C   0  0  0  0  0  0
  -21.4121  -29.3019   22.3738 N   0  0  0  0  0  0
  -26.4287  -37.3809   23.9428 N   0  0  0  0  0  0
  -24.6631  -31.0809   22.1011 N   0  0  0  0  0  0
  -23.4175  -28.8212   23.3042 O   0  0  0  0  0  0
  -28.3740  -26.6721   20.0310 O   0  0  0  0  0  0
  -26.5597  -34.8940   22.4700 O   0  0  0  0  0  0
  -23.5307  -32.1434   23.7531 O   0  0  0  0  0  0
  -31.8446  -23.1994   20.3888 C   0  0  0  0  0  0
  -30.0811  -21.7598   21.1850 C   0  0  0  0  0  0
  -30.5418  -23.0684   20.9177 C   0  0  0  0  0  0
  -32.6015  -22.0462   20.1313 C   0  0  0  0  0  0
  -30.9109  -20.6496   20.9156 C   0  0  0  0  0  0
  -35.1868  -21.6836   20.3219 C   0  0  0  0  0  0
  -34.9810  -23.1396   19.9811 C   0  0  0  0  0  0
  -31.4949  -17.2470   21.9842 C   0  0  0  0  0  0
  -30.5705  -17.5216   19.5972 C   0  0  0  0  0  0
  -30.3572  -16.2271   22.2208 C   0  0  0  0  0  0
  -29.4882  -16.4956   20.0037 C   0  0  0  0  0  0
  -33.9720  -22.1080   19.5299 C   0  0  0  0  0  0
  -31.2534  -18.2128   20.7986 C   0  0  0  0  0  0
  -29.1686  -26.5594   21.2090 C   0  0  0  0  0  0
  -30.2318  -25.4623   21.0002 C   0  0  0  0  0  0
  -32.1437  -20.8079   20.3882 N   0  0  0  0  0  0
  -30.0033  -15.5244   20.9822 N   0  0  0  0  0  0
  -29.7027  -24.1405   21.1741 O   0  0  0  0  0  0
  -30.4761  -19.3606   21.2071 O   0  0  0  0  0  0
  -31.4589  -12.3754   19.1142 H   0  0  0  0  0  0
  -30.2921  -11.2872   19.8160 H   0  0  0  0  0  0
  -29.7214  -11.7850   17.4142 H   0  0  0  0  0  0
  -29.6569  -13.4935   17.7689 H   0  0  0  0  0  0
  -27.8098  -11.3138   18.8024 H   0  0  0  0  0  0
  -27.3580  -12.6520   17.7840 H   0  0  0  0  0  0
  -27.6880  -14.2489   19.5674 H   0  0  0  0  0  0
  -28.6723  -11.9821   21.3717 H   0  0  0  0  0  0
  -28.4762  -13.6434   21.8484 H   0  0  0  0  0  0
  -25.2769   -9.5700   22.4721 H   0  0  0  0  0  0
  -24.0036   -7.4624   22.7442 H   0  0  0  0  0  0
  -21.0838   -8.8745   19.8945 H   0  0  0  0  0  0
  -22.3670  -10.9663   19.6157 H   0  0  0  0  0  0
  -21.1976   -7.6144   23.9720 H   0  0  0  0  0  0
  -21.1477   -6.0515   25.9078 H   0  0  0  0  0  0
  -22.0604   -2.7609   23.2838 H   0  0  0  0  0  0
  -22.4134  -11.9866   22.4792 H   0  0  0  0  0  0
  -21.1134  -13.1227   22.2648 H   0  0  0  0  0  0
  -24.6789  -15.8518   20.5326 H   0  0  0  0  0  0
  -26.3066  -15.6205   20.1325 H   0  0  0  0  0  0
  -26.7089  -32.5567   23.1184 H   0  0  0  0  0  0
  -25.0026  -33.9800   25.0476 H   0  0  0  0  0  0
  -22.6884  -31.3078   21.4099 H   0  0  0  0  0  0
  -23.3753  -35.9642   23.3280 H   0  0  0  0  0  0
  -24.3583  -36.8958   22.2057 H   0  0  0  0  0  0
  -23.7214  -37.6518   23.6662 H   0  0  0  0  0  0
  -26.0323  -31.5999   20.5899 H   0  0  0  0  0  0
  -26.8159  -30.9010   21.9790 H   0  0  0  0  0  0
  -28.0929  -29.1357   21.1863 H   0  0  0  0  0  0
  -26.1031  -25.9921   19.0007 H   0  0  0  0  0  0
  -23.9968  -27.2947   19.0247 H   0  0  0  0  0  0
  -23.7129  -30.5911   19.4033 H   0  0  0  0  0  0
  -22.7369  -29.2322   19.8752 H   0  0  0  0  0  0
  -25.1269  -36.1984   25.0837 H   0  0  0  0  0  0
  -20.9943  -28.3207   24.1457 H   0  0  0  0  0  0
  -20.5621  -26.2258   23.3623 H   0  0  0  0  0  0
  -21.6627  -26.7415   22.1249 H   0  0  0  0  0  0
  -19.6905  -25.6287   21.1245 H   0  0  0  0  0  0
  -19.6720  -27.3188   20.6754 H   0  0  0  0  0  0
  -17.4204  -26.6714   21.3975 H   0  0  0  0  0  0
  -18.0278  -26.0053   22.8964 H   0  0  0  0  0  0
  -19.7924  -30.7240   24.2302 H   0  0  0  0  0  0
  -17.5008  -31.6269   24.5151 H   0  0  0  0  0  0
  -15.5334  -30.2995   23.7650 H   0  0  0  0  0  0
  -15.8650  -28.0835   22.7048 H   0  0  0  0  0  0
  -24.5917  -30.7053   25.7845 H   0  0  0  0  0  0
  -24.8910  -32.2887   26.4910 H   0  0  0  0  0  0
  -25.8099  -30.8934   27.0256 H   0  0  0  0  0  0
  -26.2806  -29.6816   24.1163 H   0  0  0  0  0  0
  -27.4069  -29.7286   25.4536 H   0  0  0  0  0  0
  -27.8634  -30.4371   23.9213 H   0  0  0  0  0  0
  -27.2676  -33.3600   26.2106 H   0  0  0  0  0  0
  -28.3805  -32.6941   25.0246 H   0  0  0  0  0  0
  -28.0787  -31.8421   26.5311 H   0  0  0  0  0  0
  -28.2584  -38.0119   24.7552 H   0  0  0  0  0  0
  -28.1119  -36.2661   24.6178 H   0  0  0  0  0  0
  -27.2345  -37.1329   25.8857 H   0  0  0  0  0  0
  -20.9274  -29.8738   21.6964 H   0  0  0  0  0  0
  -26.0181  -38.2878   24.1475 H   0  0  0  0  0  0
  -32.2859  -24.1576   20.1579 H   0  0  0  0  0  0
  -29.0940  -21.6070   21.5965 H   0  0  0  0  0  0
  -35.0323  -21.3793   21.3556 H   0  0  0  0  0  0
  -35.9779  -21.1598   19.7897 H   0  0  0  0  0  0
  -35.6340  -23.5697   19.2237 H   0  0  0  0  0  0
  -34.7051  -23.8063   20.7950 H   0  0  0  0  0  0
  -32.4137  -16.6912   21.7892 H   0  0  0  0  0  0
  -31.6959  -17.8150   22.8934 H   0  0  0  0  0  0
  -30.1471  -18.2721   18.9280 H   0  0  0  0  0  0
  -31.3333  -17.0101   19.0078 H   0  0  0  0  0  0
  -29.4740  -16.7373   22.6093 H   0  0  0  0  0  0
  -30.6542  -15.5062   22.9837 H   0  0  0  0  0  0
  -29.1268  -15.9839   19.1107 H   0  0  0  0  0  0
  -28.6250  -17.0107   20.4265 H   0  0  0  0  0  0
  -33.9443  -21.8549   18.4716 H   0  0  0  0  0  0
  -32.2550  -18.4753   20.4639 H   0  0  0  0  0  0
  -29.6771  -27.5082   21.3839 H   0  0  0  0  0  0
  -28.5563  -26.3468   22.0866 H   0  0  0  0  0  0
  -31.0311  -25.6041   21.7289 H   0  0  0  0  0  0
  -30.6647  -25.5902   20.0075 H   0  0  0  0  0  0
  1 25  1  0  0  0
  1 30  2  0  0  0
  1 87  1  0  0  0
  2  3  1  0  0  0
  2 25  1  0  0  0
  2 90  1  0  0  0
  2 91  1  0  0  0
  3  4  1  0  0  0
  3 92  1  0  0  0
  3 93  1  0  0  0
  4  5  1  0  0  0
  4 94  1  0  0  0
  4 95  1  0  0  0
  5  6  1  0  0  0
  5 26  1  0  0  0
  5 96  1  0  0  0
  6 25  1  0  0  0
  6 97  1  0  0  0
  6 98  1  0  0  0
  7  8  2  0  0  0
  7 26  1  0  0  0
  7 29  1  0  0  0
  8  9  1  0  0  0
  8 22  1  0  0  0
  9 10  1  0  0  0
  9 27  2  0  0  0
 10 11  2  0  0  0
 10 15  1  0  0  0
 11 12  1  0  0  0
 11 99  1  0  0  0
 12 13  2  0  0  0
 12100  1  0  0  0
 13 14  1  0  0  0
 13 31  1  0  0  0
 14 15  2  0  0  0
 14101  1  0  0  0
 15102  1  0  0  0
 16 17  2  0  0  0
 16 21  1  0  0  0
 16 31  1  0  0  0
 17 18  1  0  0  0
 17103  1  0  0  0
 18 19  2  0  0  0
 18104  1  0  0  0
 19 20  1  0  0  0
 19 24  1  0  0  0
 20 21  2  0  0  0
 20105  1  0  0  0
 21 23  1  0  0  0
 22 28  1  0  0  0
 22 32  2  0  0  0
 26 27  1  0  0  0
 28106  1  0  0  0
 28107  1  0  0  0
 29108  1  0  0  0
 29109  1  0  0  0
 33 34  1  0  0  0
 33 66  1  0  0  0
 33 70  2  0  0  0
 34 36  1  0  0  0
 34 59  1  0  0  0
 34110  1  0  0  0
 35 44  2  0  0  0
 35 45  1  0  0  0
 35 68  1  0  0  0
 36 56  1  0  0  0
 36111  1  0  0  0
 37 39  1  0  0  0
 37 47  1  0  0  0
 37 66  1  0  0  0
 37112  1  0  0  0
 38 43  2  0  0  0
 38 46  1  0  0  0
 38 47  1  0  0  0
 39 64  1  0  0  0
 39 67  2  0  0  0
 40 52  1  0  0  0
 40 53  2  0  0  0
 40 58  1  0  0  0
 41113  1  0  0  0
 41114  1  0  0  0
 41115  1  0  0  0
 41 48  1  0  0  0
 42 43  1  0  0  0
 42 66  1  0  0  0
 42116  1  0  0  0
 42117  1  0  0  0
 43 44  1  0  0  0
 44118  1  0  0  0
 45 46  2  0  0  0
 45119  1  0  0  0
 46120  1  0  0  0
 47121  1  0  0  0
 47122  1  0  0  0
 48 56  1  0  0  0
 48 65  1  0  0  0
 48123  1  0  0  0
 49 50  1  0  0  0
 49 53  1  0  0  0
 49 64  1  0  0  0
 49124  1  0  0  0
 50 51  1  0  0  0
 50125  1  0  0  0
 50126  1  0  0  0
 51 52  1  0  0  0
 51127  1  0  0  0
 51128  1  0  0  0
 52129  1  0  0  0
 52130  1  0  0  0
 53 54  1  0  0  0
 54 55  2  0  0  0
 54131  1  0  0  0
 55 57  1  0  0  0
 55132  1  0  0  0
 56 69  2  0  0  0
 57 58  2  0  0  0
 57133  1  0  0  0
 58134  1  0  0  0
 59 60  1  0  0  0
 59 61  1  0  0  0
 59 62  1  0  0  0
 60135  1  0  0  0
 60136  1  0  0  0
 60137  1  0  0  0
 61138  1  0  0  0
 61139  1  0  0  0
 61140  1  0  0  0
 62141  1  0  0  0
 62142  1  0  0  0
 62143  1  0  0  0
 63 65  1  0  0  0
 63144  1  0  0  0
 63145  1  0  0  0
 63146  1  0  0  0
 64147  1  0  0  0
 65148  1  0  0  0
 68 84  1  0  0  0
 71 73  2  0  0  0
 71 74  1  0  0  0
 71149  1  0  0  0
 72 73  1  0  0  0
 72 75  2  0  0  0
 72150  1  0  0  0
 73 88  1  0  0  0
 74 86  2  0  0  0
 74 82  1  0  0  0
 75 86  1  0  0  0
 75 89  1  0  0  0
 76 77  1  0  0  0
 76 82  1  0  0  0
 76151  1  0  0  0
 76152  1  0  0  0
 77 82  1  0  0  0
 77153  1  0  0  0
 77154  1  0  0  0
 78 80  1  0  0  0
 78 83  1  0  0  0
 78155  1  0  0  0
 78156  1  0  0  0
 79 81  1  0  0  0
 79 83  1  0  0  0
 79157  1  0  0  0
 79158  1  0  0  0
 80 87  1  0  0  0
 80159  1  0  0  0
 80160  1  0  0  0
 81 87  1  0  0  0
 81161  1  0  0  0
 81162  1  0  0  0
 82163  1  0  0  0
 83 89  1  0  0  0
 83164  1  0  0  0
 84 85  1  0  0  0
 84165  1  0  0  0
 84166  1  0  0  0
 85 88  1  0  0  0
 85167  1  0  0  0
 85168  1  0  0  0
M  ISO  4   1 100  68 101  84 101  87 100
M  END
> <chiral flag>
0

> <version>
0

> <s_m_source_file>
/data/baiqing/PycharmProjects/Reinvent-master-3.2/result/LINK_invent/BTK/process_docking_weight1_custom_sum_contain_oxygen_bond_distance_aromatic_linkinvent_7_9_3/rearranged_h_0151.sdf

> <i_m_source_file_index>
23

> <r_mmod_Potential_Energy-OPLS-2005>
-6.83879613876343

> <r_mmod_Stretch_Energy-OPLS-2005>
38.8200759887695

> <r_mmod_Bend_Energy-OPLS-2005>
115.134284973145

> <r_mmod_Torsional_Energy-OPLS-2005>
341.904357910156

> <r_mmod_Improper_Torsional_Energy-OPLS-2005>
7.78601121902466

> <r_mmod_Van_der_Waal_Energy-OPLS-2005>
168.959564208984

> <r_mmod_Electrostatic_Energy-OPLS-2005>
-484.568237304688

> <r_mmod_Solvation_Energy-OPLS-2005>
-206.771011352539

> <b_mmod_Minimization_Converged-OPLS-2005>
0

> <r_mmod_RMS_Derivative-OPLS-2005>
1.74720621109009

$$$$
23
                    3D
 Structure written by MMmdl.
168177  0  0  1  0            999 V2000
  -30.6528  -14.7927   20.4608 C   0  0  0  0  0  0
  -30.4110  -12.4964   19.4825 C   0  0  0  0  0  0
  -29.5029  -12.5172   18.2376 C   0  0  0  0  0  0
  -28.0337  -12.3286   18.6565 C   0  0  0  0  0  0
  -27.6294  -13.2478   19.8417 C   0  0  2  0  0  0
  -28.6743  -13.2314   20.9756 C   0  0  0  0  0  0
  -25.2436  -13.8217   20.5704 C   0  0  0  0  0  0
  -24.1757  -13.0430   20.9228 C   0  0  0  0  0  0
  -24.6377  -11.6918   20.8764 C   0  0  0  0  0  0
  -23.9058  -10.4281   21.0412 C   0  0  0  0  0  0
  -24.3604   -9.4199   21.9188 C   0  0  0  0  0  0
  -23.6271   -8.2238   22.0749 C   0  0  0  0  0  0
  -22.4260   -8.0274   21.3533 C   0  0  0  0  0  0
  -21.9903   -9.0248   20.4643 C   0  0  0  0  0  0
  -22.7237  -10.2123   20.3052 C   0  0  0  0  0  0
  -21.6851   -6.0724   22.5273 C   0  0  0  0  0  0
  -21.4025   -6.5630   23.8207 C   0  0  0  0  0  0
  -21.3654   -5.6786   24.9171 C   0  0  0  0  0  0
  -21.6035   -4.3047   24.7225 C   0  0  0  0  0  0
  -21.8817   -3.8136   23.4352 C   0  0  0  0  0  0
  -21.9186   -4.6949   22.3401 C   0  0  0  0  0  0
  -22.7783  -13.5211   21.1872 C   0  0  0  0  0  0
  -22.1656   -4.2135   21.0979 F   0  0  0  0  0  0
  -21.5614   -3.4530   25.7737 F   0  0  0  0  0  0
  -29.9575  -13.5994   20.3712 N   0  0  0  0  0  0
  -26.2872  -12.9466   20.3268 N   0  0  0  0  0  0
  -25.9315  -11.6585   20.5766 N   0  0  0  0  0  0
  -22.0428  -12.8191   22.0428 N   0  0  0  0  0  0
  -25.4057  -15.1936   20.4124 N   0  0  0  0  0  0
  -31.8604  -14.7556   20.1999 O   0  0  0  0  0  0
  -21.6627   -6.8871   21.4236 O   0  0  0  0  0  0
  -22.3465  -14.5508   20.6720 O   0  0  0  0  0  0
  -24.6357  -31.8531   23.1935 C   0  0  0  0  0  0
  -25.9175  -32.4740   23.8288 C   0  0  1  0  0  0
  -27.2210  -27.2289   20.1290 C   0  0  0  0  0  0
  -25.5984  -33.8534   24.2237 N   0  0  0  0  0  0
  -23.4327  -30.4733   21.5381 C   0  0  2  0  0  0
  -24.8773  -28.9121   20.1070 C   0  0  0  0  0  0
  -22.7505  -29.4609   22.4891 C   0  0  0  0  0  0
  -18.0304  -28.1356   22.8481 C   0  0  0  0  0  0
  -24.1504  -36.7266   23.2624 C   0  0  0  0  0  0
  -25.9783  -30.7563   21.3744 C   0  0  0  0  0  0
  -26.0506  -29.3766   20.7146 C   0  0  0  0  0  0
  -27.2208  -28.5477   20.7115 C   0  0  0  0  0  0
  -26.0099  -26.8214   19.5290 C   0  0  0  0  0  0
  -24.8638  -27.6440   19.5033 C   0  0  0  0  0  0
  -23.6480  -29.8012   20.1561 C   0  0  0  0  0  0
  -25.4132  -36.3061   24.0306 C   0  0  1  0  0  0
  -20.5901  -28.3709   23.1225 C   0  0  2  0  0  0
  -20.6795  -26.9423   22.5376 C   0  0  0  0  0  0
  -19.5773  -26.6369   21.5186 C   0  0  0  0  0  0
  -18.1950  -26.7908   22.1588 C   0  0  0  0  0  0
  -19.1553  -28.8847   23.2851 C   0  0  0  0  0  0
  -18.9473  -30.1439   23.8875 C   0  0  0  0  0  0
  -17.6469  -30.6572   24.0550 C   0  0  0  0  0  0
  -25.9064  -34.9423   23.5064 C   0  0  0  0  0  0
  -16.5364  -29.9064   23.6329 C   0  0  0  0  0  0
  -16.7278  -28.6465   23.0372 C   0  0  0  0  0  0
  -26.4529  -31.6567   25.0690 C   0  0  0  0  0  0
  -25.3717  -31.3730   26.1387 C   0  0  0  0  0  0
  -27.0406  -30.2980   24.6216 C   0  0  0  0  0  0
  -27.6079  -32.4333   25.7454 C   0  0  0  0  0  0
  -27.5592  -37.1784   24.8463 C   0  0  0  0  0  0
  -21.4213  -29.3066   22.3622 N   0  0  0  0  0  0
  -26.4308  -37.3761   23.9396 N   0  0  0  0  0  0
  -24.7016  -31.0462   22.0914 N   0  0  0  0  0  0
  -23.4187  -28.8179   23.3029 O   0  0  0  0  0  0
  -28.3305  -26.3473   20.2272 O   0  0  0  0  0  0
  -26.5624  -34.8909   22.4624 O   0  0  0  0  0  0
  -23.5511  -32.1375   23.7211 O   0  0  0  0  0  0
  -29.6587  -22.9508   20.6608 C   0  0  0  0  0  0
  -27.6147  -22.5810   19.5165 C   0  0  0  0  0  0
  -28.5604  -23.5517   19.9687 C   0  0  0  0  0  0
  -29.8330  -21.5244   20.8346 C   0  0  0  0  0  0
  -27.7747  -21.1534   19.6779 C   0  0  0  0  0  0
  -28.9060  -20.5544   20.3254 C   0  0  0  0  0  0
  -29.8613  -18.4401   19.2879 C   0  0  0  0  0  0
  -30.7280  -17.1909   19.7234 C   0  0  0  0  0  0
  -28.9411  -16.6299   21.2580 C   0  0  0  0  0  0
  -28.9780  -18.2149   21.5645 C   0  0  2  0  0  0
  -31.0889  -21.0400   21.5377 C   0  0  0  0  0  0
  -26.6969  -20.2499   19.0981 C   0  0  0  0  0  0
  -27.7701  -18.6160   22.4272 C   0  0  0  0  0  0
  -28.2059  -25.2028   17.9437 C   0  0  0  0  0  0
  -28.5804  -25.0817   19.4341 C   0  0  1  0  0  0
  -29.1101  -19.0987   20.3722 N   0  0  0  0  0  0
  -30.0176  -16.0532   20.3910 N   0  0  0  0  0  0
  -31.4560  -12.5920   19.1832 H   0  0  0  0  0  0
  -30.3394  -11.5358   19.9964 H   0  0  0  0  0  0
  -29.7993  -11.7359   17.5380 H   0  0  0  0  0  0
  -29.6198  -13.4655   17.7107 H   0  0  0  0  0  0
  -27.9108  -11.2847   18.9452 H   0  0  0  0  0  0
  -27.3711  -12.4894   17.8056 H   0  0  0  0  0  0
  -27.6053  -14.2604   19.4366 H   0  0  0  0  0  0
  -28.7323  -12.2453   21.4375 H   0  0  0  0  0  0
  -28.3987  -13.9242   21.7696 H   0  0  0  0  0  0
  -25.2738   -9.5664   22.4789 H   0  0  0  0  0  0
  -23.9956   -7.4623   22.7471 H   0  0  0  0  0  0
  -21.0833   -8.8781   19.8952 H   0  0  0  0  0  0
  -22.3692  -10.9668   19.6169 H   0  0  0  0  0  0
  -21.2045   -7.6139   23.9716 H   0  0  0  0  0  0
  -21.1474   -6.0513   25.9072 H   0  0  0  0  0  0
  -22.0603   -2.7595   23.2857 H   0  0  0  0  0  0
  -22.4044  -11.9852   22.4820 H   0  0  0  0  0  0
  -21.1050  -13.1225   22.2643 H   0  0  0  0  0  0
  -24.6323  -15.8400   20.5243 H   0  0  0  0  0  0
  -26.2468  -15.6385   20.0710 H   0  0  0  0  0  0
  -26.7228  -32.5376   23.1013 H   0  0  0  0  0  0
  -25.0224  -33.9670   25.0455 H   0  0  0  0  0  0
  -22.7311  -31.2951   21.3900 H   0  0  0  0  0  0
  -23.3796  -35.9569   23.3289 H   0  0  0  0  0  0
  -24.3577  -36.8893   22.2040 H   0  0  0  0  0  0
  -23.7256  -37.6445   23.6671 H   0  0  0  0  0  0
  -26.1187  -31.5167   20.6051 H   0  0  0  0  0  0
  -26.8550  -30.8030   22.0105 H   0  0  0  0  0  0
  -28.1231  -28.9002   21.1913 H   0  0  0  0  0  0
  -25.9086  -25.8258   19.1284 H   0  0  0  0  0  0
  -23.9553  -27.2752   19.0442 H   0  0  0  0  0  0
  -23.7603  -30.5734   19.3939 H   0  0  0  0  0  0
  -22.7684  -29.2249   19.8654 H   0  0  0  0  0  0
  -25.1328  -36.1889   25.0802 H   0  0  0  0  0  0
  -20.9972  -28.3321   24.1356 H   0  0  0  0  0  0
  -20.5686  -26.2326   23.3592 H   0  0  0  0  0  0
  -21.6664  -26.7429   22.1177 H   0  0  0  0  0  0
  -19.6940  -25.6270   21.1239 H   0  0  0  0  0  0
  -19.6725  -27.3145   20.6694 H   0  0  0  0  0  0
  -17.4227  -26.6656   21.3985 H   0  0  0  0  0  0
  -18.0357  -26.0014   22.8949 H   0  0  0  0  0  0
  -19.7947  -30.7249   24.2237 H   0  0  0  0  0  0
  -17.5040  -31.6251   24.5143 H   0  0  0  0  0  0
  -15.5365  -30.2976   23.7651 H   0  0  0  0  0  0
  -15.8674  -28.0773   22.7128 H   0  0  0  0  0  0
  -24.5942  -30.7016   25.7730 H   0  0  0  0  0  0
  -24.8829  -32.2885   26.4715 H   0  0  0  0  0  0
  -25.7989  -30.8994   27.0231 H   0  0  0  0  0  0
  -26.3006  -29.6686   24.1251 H   0  0  0  0  0  0
  -27.4104  -29.7282   25.4752 H   0  0  0  0  0  0
  -27.8878  -30.4258   23.9473 H   0  0  0  0  0  0
  -27.2703  -33.3687   26.1925 H   0  0  0  0  0  0
  -28.3928  -32.6795   25.0291 H   0  0  0  0  0  0
  -28.0703  -31.8520   26.5438 H   0  0  0  0  0  0
  -28.2600  -38.0101   24.7548 H   0  0  0  0  0  0
  -28.1105  -36.2619   24.6279 H   0  0  0  0  0  0
  -27.2281  -37.1426   25.8858 H   0  0  0  0  0  0
  -20.9419  -29.8758   21.6785 H   0  0  0  0  0  0
  -26.0192  -38.2825   24.1414 H   0  0  0  0  0  0
  -30.4459  -23.6085   21.0032 H   0  0  0  0  0  0
  -26.7623  -22.9377   18.9559 H   0  0  0  0  0  0
  -29.1519  -18.1322   18.5196 H   0  0  0  0  0  0
  -30.5148  -19.1756   18.8142 H   0  0  0  0  0  0
  -31.5281  -17.5281   20.3856 H   0  0  0  0  0  0
  -31.2303  -16.8178   18.8278 H   0  0  0  0  0  0
  -27.9868  -16.3793   20.7956 H   0  0  0  0  0  0
  -28.9578  -16.1024   22.2134 H   0  0  0  0  0  0
  -29.8680  -18.3878   22.1702 H   0  0  0  0  0  0
  -31.7416  -21.8670   21.8144 H   0  0  0  0  0  0
  -31.6545  -20.3706   20.8882 H   0  0  0  0  0  0
  -30.8267  -20.4991   22.4474 H   0  0  0  0  0  0
  -26.0570  -20.7837   18.3955 H   0  0  0  0  0  0
  -26.0682  -19.8560   19.8961 H   0  0  0  0  0  0
  -27.1331  -19.4053   18.5656 H   0  0  0  0  0  0
  -26.8374  -18.5441   21.8645 H   0  0  0  0  0  0
  -27.8578  -19.6361   22.8017 H   0  0  0  0  0  0
  -27.6757  -17.9649   23.2987 H   0  0  0  0  0  0
  -28.8382  -24.5531   17.3402 H   0  0  0  0  0  0
  -28.3511  -26.2208   17.5793 H   0  0  0  0  0  0
  -27.1794  -24.9095   17.7326 H   0  0  0  0  0  0
  -29.6610  -25.2050   19.3722 H   0  0  0  0  0  0
  1 25  1  0  0  0
  1 30  2  0  0  0
  1 87  1  0  0  0
  2  3  1  0  0  0
  2 25  1  0  0  0
  2 88  1  0  0  0
  2 89  1  0  0  0
  3  4  1  0  0  0
  3 90  1  0  0  0
  3 91  1  0  0  0
  4  5  1  0  0  0
  4 92  1  0  0  0
  4 93  1  0  0  0
  5  6  1  0  0  0
  5 26  1  0  0  0
  5 94  1  0  0  0
  6 25  1  0  0  0
  6 95  1  0  0  0
  6 96  1  0  0  0
  7  8  2  0  0  0
  7 26  1  0  0  0
  7 29  1  0  0  0
  8  9  1  0  0  0
  8 22  1  0  0  0
  9 10  1  0  0  0
  9 27  2  0  0  0
 10 11  2  0  0  0
 10 15  1  0  0  0
 11 12  1  0  0  0
 11 97  1  0  0  0
 12 13  2  0  0  0
 12 98  1  0  0  0
 13 14  1  0  0  0
 13 31  1  0  0  0
 14 15  2  0  0  0
 14 99  1  0  0  0
 15100  1  0  0  0
 16 17  2  0  0  0
 16 21  1  0  0  0
 16 31  1  0  0  0
 17 18  1  0  0  0
 17101  1  0  0  0
 18 19  2  0  0  0
 18102  1  0  0  0
 19 20  1  0  0  0
 19 24  1  0  0  0
 20 21  2  0  0  0
 20103  1  0  0  0
 21 23  1  0  0  0
 22 28  1  0  0  0
 22 32  2  0  0  0
 26 27  1  0  0  0
 28104  1  0  0  0
 28105  1  0  0  0
 29106  1  0  0  0
 29107  1  0  0  0
 33 34  1  0  0  0
 33 66  1  0  0  0
 33 70  2  0  0  0
 34 36  1  0  0  0
 34 59  1  0  0  0
 34108  1  0  0  0
 35 44  2  0  0  0
 35 45  1  0  0  0
 35 68  1  0  0  0
 36 56  1  0  0  0
 36109  1  0  0  0
 37 39  1  0  0  0
 37 47  1  0  0  0
 37 66  1  0  0  0
 37110  1  0  0  0
 38 43  2  0  0  0
 38 46  1  0  0  0
 38 47  1  0  0  0
 39 64  1  0  0  0
 39 67  2  0  0  0
 40 52  1  0  0  0
 40 53  2  0  0  0
 40 58  1  0  0  0
 41111  1  0  0  0
 41112  1  0  0  0
 41113  1  0  0  0
 41 48  1  0  0  0
 42 43  1  0  0  0
 42 66  1  0  0  0
 42114  1  0  0  0
 42115  1  0  0  0
 43 44  1  0  0  0
 44116  1  0  0  0
 45 46  2  0  0  0
 45117  1  0  0  0
 46118  1  0  0  0
 47119  1  0  0  0
 47120  1  0  0  0
 48 56  1  0  0  0
 48 65  1  0  0  0
 48121  1  0  0  0
 49 50  1  0  0  0
 49 53  1  0  0  0
 49 64  1  0  0  0
 49122  1  0  0  0
 50 51  1  0  0  0
 50123  1  0  0  0
 50124  1  0  0  0
 51 52  1  0  0  0
 51125  1  0  0  0
 51126  1  0  0  0
 52127  1  0  0  0
 52128  1  0  0  0
 53 54  1  0  0  0
 54 55  2  0  0  0
 54129  1  0  0  0
 55 57  1  0  0  0
 55130  1  0  0  0
 56 69  2  0  0  0
 57 58  2  0  0  0
 57131  1  0  0  0
 58132  1  0  0  0
 59 60  1  0  0  0
 59 61  1  0  0  0
 59 62  1  0  0  0
 60133  1  0  0  0
 60134  1  0  0  0
 60135  1  0  0  0
 61136  1  0  0  0
 61137  1  0  0  0
 61138  1  0  0  0
 62139  1  0  0  0
 62140  1  0  0  0
 62141  1  0  0  0
 63 65  1  0  0  0
 63142  1  0  0  0
 63143  1  0  0  0
 63144  1  0  0  0
 64145  1  0  0  0
 65146  1  0  0  0
 68 85  1  0  0  0
 71 73  2  0  0  0
 71 74  1  0  0  0
 71147  1  0  0  0
 72 73  1  0  0  0
 72 75  2  0  0  0
 72148  1  0  0  0
 73 85  1  0  0  0
 74 76  2  0  0  0
 74 81  1  0  0  0
 75 76  1  0  0  0
 75 82  1  0  0  0
 76 86  1  0  0  0
 77 78  1  0  0  0
 77 86  1  0  0  0
 77149  1  0  0  0
 77150  1  0  0  0
 78 87  1  0  0  0
 78151  1  0  0  0
 78152  1  0  0  0
 79 80  1  0  0  0
 79 87  1  0  0  0
 79153  1  0  0  0
 79154  1  0  0  0
 80 83  1  0  0  0
 80 86  1  0  0  0
 80155  1  0  0  0
 81156  1  0  0  0
 81157  1  0  0  0
 81158  1  0  0  0
 82159  1  0  0  0
 82160  1  0  0  0
 82161  1  0  0  0
 83162  1  0  0  0
 83163  1  0  0  0
 83164  1  0  0  0
 84165  1  0  0  0
 84166  1  0  0  0
 84167  1  0  0  0
 84 85  1  0  0  0
 85168  1  0  0  0
M  ISO  4   1 100  68 101  85 101  87 100
M  END
> <chiral flag>
0

> <version>
0

> <s_m_source_file>
/data/baiqing/PycharmProjects/Reinvent-master-3.2/result/LINK_invent/BTK/process_docking_weight1_custom_sum_contain_oxygen_bond_distance_aromatic_linkinvent_7_9_3/rearranged_h_0151.sdf

> <i_m_source_file_index>
24

> <r_mmod_Potential_Energy-OPLS-2005>
441.979949951172

> <r_mmod_Stretch_Energy-OPLS-2005>
141.775833129883

> <r_mmod_Bend_Energy-OPLS-2005>
254.006042480469

> <r_mmod_Torsional_Energy-OPLS-2005>
380.422424316406

> <r_mmod_Improper_Torsional_Energy-OPLS-2005>
18.5799140930176

> <r_mmod_Van_der_Waal_Energy-OPLS-2005>
142.331130981445

> <r_mmod_Electrostatic_Energy-OPLS-2005>
-410.223846435547

> <r_mmod_Solvation_Energy-OPLS-2005>
-193.408721923828

> <b_mmod_Minimization_Converged-OPLS-2005>
0

> <r_mmod_RMS_Derivative-OPLS-2005>
2.70402956008911

$$$$
24
                    3D
 Structure written by MMmdl.
166175  0  0  1  0            999 V2000
  -30.7343  -14.4387   20.5622 C   0  0  0  0  0  0
  -30.4037  -12.2777   19.4258 C   0  0  0  0  0  0
  -29.4882  -12.4742   18.2028 C   0  0  0  0  0  0
  -28.0068  -12.3716   18.6154 C   0  0  0  0  0  0
  -27.6602  -13.2098   19.8760 C   0  0  2  0  0  0
  -28.7020  -13.0046   20.9990 C   0  0  0  0  0  0
  -25.2575  -13.8170   20.5675 C   0  0  0  0  0  0
  -24.1812  -13.0425   20.9148 C   0  0  0  0  0  0
  -24.6385  -11.6896   20.8717 C   0  0  0  0  0  0
  -23.9053  -10.4282   21.0388 C   0  0  0  0  0  0
  -24.3609   -9.4211   21.9166 C   0  0  0  0  0  0
  -23.6273   -8.2252   22.0739 C   0  0  0  0  0  0
  -22.4265   -8.0278   21.3529 C   0  0  0  0  0  0
  -21.9896   -9.0259   20.4631 C   0  0  0  0  0  0
  -22.7221  -10.2134   20.3043 C   0  0  0  0  0  0
  -21.6856   -6.0715   22.5252 C   0  0  0  0  0  0
  -21.4025   -6.5622   23.8179 C   0  0  0  0  0  0
  -21.3675   -5.6780   24.9159 C   0  0  0  0  0  0
  -21.6050   -4.3044   24.7219 C   0  0  0  0  0  0
  -21.8833   -3.8127   23.4337 C   0  0  0  0  0  0
  -21.9191   -4.6930   22.3383 C   0  0  0  0  0  0
  -22.7849  -13.5217   21.1846 C   0  0  0  0  0  0
  -22.1658   -4.2112   21.0970 F   0  0  0  0  0  0
  -21.5626   -3.4541   25.7739 F   0  0  0  0  0  0
  -30.0317  -13.2812   20.4339 N   0  0  0  0  0  0
  -26.3007  -12.9348   20.3377 N   0  0  0  0  0  0
  -25.9314  -11.6508   20.5781 N   0  0  0  0  0  0
  -22.0524  -12.8214   22.0444 N   0  0  0  0  0  0
  -25.4294  -15.1872   20.4111 N   0  0  0  0  0  0
  -31.8242  -14.6232   20.0105 O   0  0  0  0  0  0
  -21.6634   -6.8867   21.4219 O   0  0  0  0  0  0
  -22.3529  -14.5519   20.6695 O   0  0  0  0  0  0
  -24.6166  -31.8673   23.2107 C   0  0  0  0  0  0
  -25.9062  -32.4801   23.8381 C   0  0  1  0  0  0
  -27.2330  -27.4165   20.0775 C   0  0  0  0  0  0
  -25.5931  -33.8602   24.2317 N   0  0  0  0  0  0
  -23.4038  -30.4930   21.5508 C   0  0  2  0  0  0
  -24.8493  -28.9561   20.1179 C   0  0  0  0  0  0
  -22.7392  -29.4657   22.4967 C   0  0  0  0  0  0
  -18.0269  -28.1366   22.8479 C   0  0  0  0  0  0
  -24.1506  -36.7291   23.2618 C   0  0  0  0  0  0
  -25.9374  -30.8238   21.3721 C   0  0  0  0  0  0
  -26.0122  -29.4591   20.7129 C   0  0  0  0  0  0
  -27.2039  -28.6926   20.6943 C   0  0  0  0  0  0
  -26.0376  -26.9234   19.5047 C   0  0  0  0  0  0
  -24.8554  -27.6861   19.5190 C   0  0  0  0  0  0
  -23.6159  -29.8295   20.1648 C   0  0  0  0  0  0
  -25.4115  -36.3095   24.0332 C   0  0  1  0  0  0
  -20.5858  -28.3658   23.1305 C   0  0  2  0  0  0
  -20.6781  -26.9395   22.5407 C   0  0  0  0  0  0
  -19.5757  -26.6376   21.5207 C   0  0  0  0  0  0
  -18.1932  -26.7912   22.1619 C   0  0  0  0  0  0
  -19.1515  -28.8831   23.2893 C   0  0  0  0  0  0
  -18.9447  -30.1440   23.8906 C   0  0  0  0  0  0
  -17.6452  -30.6582   24.0556 C   0  0  0  0  0  0
  -25.9054  -34.9459   23.5120 C   0  0  0  0  0  0
  -16.5345  -29.9077   23.6329 C   0  0  0  0  0  0
  -16.7260  -28.6492   23.0351 C   0  0  0  0  0  0
  -26.4487  -31.6578   25.0707 C   0  0  0  0  0  0
  -25.3746  -31.3719   26.1450 C   0  0  0  0  0  0
  -27.0293  -30.2996   24.6122 C   0  0  0  0  0  0
  -27.6079  -32.4280   25.7457 C   0  0  0  0  0  0
  -27.5617  -37.1753   24.8415 C   0  0  0  0  0  0
  -21.4118  -29.3023   22.3695 N   0  0  0  0  0  0
  -26.4268  -37.3808   23.9458 N   0  0  0  0  0  0
  -24.6700  -31.0756   22.1026 N   0  0  0  0  0  0
  -23.4157  -28.8198   23.3015 O   0  0  0  0  0  0
  -28.4164  -26.6925   20.0707 O   0  0  0  0  0  0
  -26.5593  -34.8922   22.4669 O   0  0  0  0  0  0
  -23.5355  -32.1413   23.7507 O   0  0  0  0  0  0
  -29.1564  -21.5854   21.8885 C   0  0  0  0  0  0
  -30.1165  -21.1873   19.7090 C   0  0  0  0  0  0
  -29.7551  -19.2726   21.2316 C   0  0  0  0  0  0
  -29.5873  -22.0937   20.6516 C   0  0  0  0  0  0
  -29.2486  -20.2076   22.1877 C   0  0  0  0  0  0
  -30.2289  -19.8002   19.9883 C   0  0  0  0  0  0
  -31.1840  -17.3857   22.2743 C   0  0  0  0  0  0
  -31.0121  -15.8794   22.4587 C   0  0  0  0  0  0
  -29.5514  -16.5931   20.7097 C   0  0  0  0  0  0
  -29.8581  -17.7779   21.6534 C   0  0  2  0  0  0
  -28.8369  -19.7847   23.5952 C   0  0  0  0  0  0
  -30.9407  -18.9553   18.9387 C   0  0  0  0  0  0
  -29.5965  -23.6095   20.4019 C   0  0  0  0  0  0
  -28.4056  -24.1857   19.5943 C   0  0  0  0  0  0
  -28.6085  -25.6482   19.0946 C   0  0  0  0  0  0
  -30.1923  -15.4052   21.3333 N   0  0  0  0  0  0
  -31.4529  -12.3394   19.1327 H   0  0  0  0  0  0
  -30.2723  -11.2759   19.8406 H   0  0  0  0  0  0
  -29.7150  -11.7221   17.4443 H   0  0  0  0  0  0
  -29.6809  -13.4426   17.7409 H   0  0  0  0  0  0
  -27.7912  -11.3185   18.7998 H   0  0  0  0  0  0
  -27.3680  -12.6715   17.7835 H   0  0  0  0  0  0
  -27.7044  -14.2569   19.5764 H   0  0  0  0  0  0
  -28.6705  -11.9812   21.3748 H   0  0  0  0  0  0
  -28.4731  -13.6347   21.8586 H   0  0  0  0  0  0
  -25.2774   -9.5677   22.4729 H   0  0  0  0  0  0
  -23.9974   -7.4657   22.7471 H   0  0  0  0  0  0
  -21.0816   -8.8786   19.8949 H   0  0  0  0  0  0
  -22.3676  -10.9680   19.6146 H   0  0  0  0  0  0
  -21.2037   -7.6128   23.9666 H   0  0  0  0  0  0
  -21.1481   -6.0522   25.9051 H   0  0  0  0  0  0
  -22.0602   -2.7583   23.2848 H   0  0  0  0  0  0
  -22.4187  -11.9835   22.4743 H   0  0  0  0  0  0
  -21.1143  -13.1190   22.2709 H   0  0  0  0  0  0
  -24.6705  -15.8483   20.5419 H   0  0  0  0  0  0
  -26.2850  -15.6279   20.0982 H   0  0  0  0  0  0
  -26.7127  -32.5512   23.1132 H   0  0  0  0  0  0
  -25.0134  -33.9758   25.0504 H   0  0  0  0  0  0
  -22.6908  -31.3080   21.4116 H   0  0  0  0  0  0
  -23.3795  -35.9588   23.3215 H   0  0  0  0  0  0
  -24.3628  -36.8965   22.2045 H   0  0  0  0  0  0
  -23.7209  -37.6460   23.6670 H   0  0  0  0  0  0
  -26.0629  -31.5989   20.6144 H   0  0  0  0  0  0
  -26.8190  -30.8647   21.9992 H   0  0  0  0  0  0
  -28.1053  -29.0782   21.1500 H   0  0  0  0  0  0
  -25.9910  -25.9429   19.0564 H   0  0  0  0  0  0
  -23.9514  -27.2878   19.0789 H   0  0  0  0  0  0
  -23.7309  -30.6067   19.4075 H   0  0  0  0  0  0
  -22.7381  -29.2538   19.8649 H   0  0  0  0  0  0
  -25.1282  -36.1926   25.0815 H   0  0  0  0  0  0
  -20.9938  -28.3251   24.1432 H   0  0  0  0  0  0
  -20.5729  -26.2250   23.3587 H   0  0  0  0  0  0
  -21.6654  -26.7473   22.1184 H   0  0  0  0  0  0
  -19.6933  -25.6295   21.1218 H   0  0  0  0  0  0
  -19.6707  -27.3192   20.6747 H   0  0  0  0  0  0
  -17.4199  -26.6632   21.4031 H   0  0  0  0  0  0
  -18.0353  -26.0060   22.9022 H   0  0  0  0  0  0
  -19.7925  -30.7249   24.2290 H   0  0  0  0  0  0
  -17.5012  -31.6275   24.5127 H   0  0  0  0  0  0
  -15.5350  -30.2988   23.7668 H   0  0  0  0  0  0
  -15.8650  -28.0826   22.7072 H   0  0  0  0  0  0
  -24.5943  -30.7028   25.7802 H   0  0  0  0  0  0
  -24.8915  -32.2890   26.4832 H   0  0  0  0  0  0
  -25.8090  -30.8943   27.0241 H   0  0  0  0  0  0
  -26.2845  -29.6761   24.1160 H   0  0  0  0  0  0
  -27.3997  -29.7228   25.4609 H   0  0  0  0  0  0
  -27.8721  -30.4251   23.9318 H   0  0  0  0  0  0
  -27.2712  -33.3555   26.2095 H   0  0  0  0  0  0
  -28.3860  -32.6868   25.0264 H   0  0  0  0  0  0
  -28.0781  -31.8359   26.5316 H   0  0  0  0  0  0
  -28.2478  -38.0213   24.7747 H   0  0  0  0  0  0
  -28.1287  -36.2774   24.5889 H   0  0  0  0  0  0
  -27.2388  -37.0949   25.8812 H   0  0  0  0  0  0
  -20.9258  -29.8704   21.6896 H   0  0  0  0  0  0
  -26.0145  -38.2838   24.1648 H   0  0  0  0  0  0
  -28.7929  -22.2744   22.6409 H   0  0  0  0  0  0
  -30.4956  -21.5733   18.7721 H   0  0  0  0  0  0
  -32.0001  -17.5828   21.5787 H   0  0  0  0  0  0
  -31.4024  -17.9079   23.2057 H   0  0  0  0  0  0
  -30.4662  -15.6628   23.3779 H   0  0  0  0  0  0
  -31.9839  -15.3880   22.5437 H   0  0  0  0  0  0
  -29.9350  -16.7301   19.7028 H   0  0  0  0  0  0
  -28.4754  -16.4415   20.6140 H   0  0  0  0  0  0
  -29.1010  -17.6267   22.4210 H   0  0  0  0  0  0
  -28.7676  -20.6398   24.2664 H   0  0  0  0  0  0
  -29.5693  -19.1150   24.0435 H   0  0  0  0  0  0
  -27.8674  -19.2872   23.5824 H   0  0  0  0  0  0
  -31.6327  -19.5673   18.3595 H   0  0  0  0  0  0
  -30.2372  -18.5163   18.2304 H   0  0  0  0  0  0
  -31.5457  -18.1664   19.3806 H   0  0  0  0  0  0
  -30.5292  -23.8472   19.8903 H   0  0  0  0  0  0
  -29.6481  -24.1202   21.3644 H   0  0  0  0  0  0
  -27.4764  -24.0938   20.1565 H   0  0  0  0  0  0
  -28.2826  -23.5633   18.7068 H   0  0  0  0  0  0
  -28.0022  -25.8274   18.2063 H   0  0  0  0  0  0
  -29.6295  -25.7457   18.7231 H   0  0  0  0  0  0
  1 25  1  0  0  0
  1 30  2  0  0  0
  1 86  1  0  0  0
  2  3  1  0  0  0
  2 25  1  0  0  0
  2 87  1  0  0  0
  2 88  1  0  0  0
  3  4  1  0  0  0
  3 89  1  0  0  0
  3 90  1  0  0  0
  4  5  1  0  0  0
  4 91  1  0  0  0
  4 92  1  0  0  0
  5  6  1  0  0  0
  5 26  1  0  0  0
  5 93  1  0  0  0
  6 25  1  0  0  0
  6 94  1  0  0  0
  6 95  1  0  0  0
  7  8  2  0  0  0
  7 26  1  0  0  0
  7 29  1  0  0  0
  8  9  1  0  0  0
  8 22  1  0  0  0
  9 10  1  0  0  0
  9 27  2  0  0  0
 10 11  2  0  0  0
 10 15  1  0  0  0
 11 12  1  0  0  0
 11 96  1  0  0  0
 12 13  2  0  0  0
 12 97  1  0  0  0
 13 14  1  0  0  0
 13 31  1  0  0  0
 14 15  2  0  0  0
 14 98  1  0  0  0
 15 99  1  0  0  0
 16 17  2  0  0  0
 16 21  1  0  0  0
 16 31  1  0  0  0
 17 18  1  0  0  0
 17100  1  0  0  0
 18 19  2  0  0  0
 18101  1  0  0  0
 19 20  1  0  0  0
 19 24  1  0  0  0
 20 21  2  0  0  0
 20102  1  0  0  0
 21 23  1  0  0  0
 22 28  1  0  0  0
 22 32  2  0  0  0
 26 27  1  0  0  0
 28103  1  0  0  0
 28104  1  0  0  0
 29105  1  0  0  0
 29106  1  0  0  0
 33 34  1  0  0  0
 33 66  1  0  0  0
 33 70  2  0  0  0
 34 36  1  0  0  0
 34 59  1  0  0  0
 34107  1  0  0  0
 35 44  2  0  0  0
 35 45  1  0  0  0
 35 68  1  0  0  0
 36 56  1  0  0  0
 36108  1  0  0  0
 37 39  1  0  0  0
 37 47  1  0  0  0
 37 66  1  0  0  0
 37109  1  0  0  0
 38 43  2  0  0  0
 38 46  1  0  0  0
 38 47  1  0  0  0
 39 64  1  0  0  0
 39 67  2  0  0  0
 40 52  1  0  0  0
 40 53  2  0  0  0
 40 58  1  0  0  0
 41110  1  0  0  0
 41111  1  0  0  0
 41112  1  0  0  0
 41 48  1  0  0  0
 42 43  1  0  0  0
 42 66  1  0  0  0
 42113  1  0  0  0
 42114  1  0  0  0
 43 44  1  0  0  0
 44115  1  0  0  0
 45 46  2  0  0  0
 45116  1  0  0  0
 46117  1  0  0  0
 47118  1  0  0  0
 47119  1  0  0  0
 48 56  1  0  0  0
 48 65  1  0  0  0
 48120  1  0  0  0
 49 50  1  0  0  0
 49 53  1  0  0  0
 49 64  1  0  0  0
 49121  1  0  0  0
 50 51  1  0  0  0
 50122  1  0  0  0
 50123  1  0  0  0
 51 52  1  0  0  0
 51124  1  0  0  0
 51125  1  0  0  0
 52126  1  0  0  0
 52127  1  0  0  0
 53 54  1  0  0  0
 54 55  2  0  0  0
 54128  1  0  0  0
 55 57  1  0  0  0
 55129  1  0  0  0
 56 69  2  0  0  0
 57 58  2  0  0  0
 57130  1  0  0  0
 58131  1  0  0  0
 59 60  1  0  0  0
 59 61  1  0  0  0
 59 62  1  0  0  0
 60132  1  0  0  0
 60133  1  0  0  0
 60134  1  0  0  0
 61135  1  0  0  0
 61136  1  0  0  0
 61137  1  0  0  0
 62138  1  0  0  0
 62139  1  0  0  0
 62140  1  0  0  0
 63 65  1  0  0  0
 63141  1  0  0  0
 63142  1  0  0  0
 63143  1  0  0  0
 64144  1  0  0  0
 65145  1  0  0  0
 68 85  1  0  0  0
 71 74  2  0  0  0
 71 75  1  0  0  0
 71146  1  0  0  0
 72 74  1  0  0  0
 72 76  2  0  0  0
 72147  1  0  0  0
 73 75  2  0  0  0
 73 76  1  0  0  0
 73 80  1  0  0  0
 74 83  1  0  0  0
 75 81  1  0  0  0
 76 82  1  0  0  0
 77 78  1  0  0  0
 77 80  1  0  0  0
 77148  1  0  0  0
 77149  1  0  0  0
 78 86  1  0  0  0
 78150  1  0  0  0
 78151  1  0  0  0
 79 80  1  0  0  0
 79 86  1  0  0  0
 79152  1  0  0  0
 79153  1  0  0  0
 80154  1  0  0  0
 81155  1  0  0  0
 81156  1  0  0  0
 81157  1  0  0  0
 82158  1  0  0  0
 82159  1  0  0  0
 82160  1  0  0  0
 83 84  1  0  0  0
 83161  1  0  0  0
 83162  1  0  0  0
 84 85  1  0  0  0
 84163  1  0  0  0
 84164  1  0  0  0
 85165  1  0  0  0
 85166  1  0  0  0
M  ISO  4   1 100  68 101  85 101  86 100
M  END
> <chiral flag>
0

> <version>
0

> <s_m_source_file>
/data/baiqing/PycharmProjects/Reinvent-master-3.2/result/LINK_invent/BTK/process_docking_weight1_custom_sum_contain_oxygen_bond_distance_aromatic_linkinvent_7_9_3/rearranged_h_0151.sdf

> <i_m_source_file_index>
25

> <r_mmod_Potential_Energy-OPLS-2005>
183.706832885742

> <r_mmod_Stretch_Energy-OPLS-2005>
46.3515853881836

> <r_mmod_Bend_Energy-OPLS-2005>
153.954895019531

> <r_mmod_Torsional_Energy-OPLS-2005>
319.849487304688

> <r_mmod_Improper_Torsional_Energy-OPLS-2005>
6.95030641555786

> <r_mmod_Van_der_Waal_Energy-OPLS-2005>
155.515426635742

> <r_mmod_Electrostatic_Energy-OPLS-2005>
-320.682342529297

> <r_mmod_Solvation_Energy-OPLS-2005>
-191.334533691406

> <b_mmod_Minimization_Converged-OPLS-2005>
0

> <r_mmod_RMS_Derivative-OPLS-2005>
3.36210536956787

$$$$
25
                    3D
 Structure written by MMmdl.
180190  0  0  1  0            999 V2000
  -30.7606  -14.4197   20.4921 C   0  0  0  0  0  0
  -30.3932  -12.2538   19.4279 C   0  0  0  0  0  0
  -29.4825  -12.4645   18.2027 C   0  0  0  0  0  0
  -28.0046  -12.3507   18.6206 C   0  0  0  0  0  0
  -27.6535  -13.2142   19.8645 C   0  0  2  0  0  0
  -28.7002  -13.0550   20.9924 C   0  0  0  0  0  0
  -25.2548  -13.8184   20.5683 C   0  0  0  0  0  0
  -24.1821  -13.0443   20.9200 C   0  0  0  0  0  0
  -24.6397  -11.6917   20.8771 C   0  0  0  0  0  0
  -23.9077  -10.4293   21.0435 C   0  0  0  0  0  0
  -24.3623   -9.4202   21.9209 C   0  0  0  0  0  0
  -23.6294   -8.2236   22.0768 C   0  0  0  0  0  0
  -22.4276   -8.0287   21.3559 C   0  0  0  0  0  0
  -21.9928   -9.0266   20.4654 C   0  0  0  0  0  0
  -22.7259  -10.2144   20.3072 C   0  0  0  0  0  0
  -21.6843   -6.0747   22.5282 C   0  0  0  0  0  0
  -21.4016   -6.5650   23.8220 C   0  0  0  0  0  0
  -21.3660   -5.6797   24.9178 C   0  0  0  0  0  0
  -21.6035   -4.3060   24.7218 C   0  0  0  0  0  0
  -21.8820   -3.8155   23.4340 C   0  0  0  0  0  0
  -21.9190   -4.6974   22.3400 C   0  0  0  0  0  0
  -22.7849  -13.5229   21.1858 C   0  0  0  0  0  0
  -22.1653   -4.2164   21.0977 F   0  0  0  0  0  0
  -21.5627   -3.4543   25.7732 F   0  0  0  0  0  0
  -30.0295  -13.2819   20.4118 N   0  0  0  0  0  0
  -26.2995  -12.9362   20.3381 N   0  0  0  0  0  0
  -25.9328  -11.6519   20.5815 N   0  0  0  0  0  0
  -22.0476  -12.8229   22.0401 N   0  0  0  0  0  0
  -25.4242  -15.1888   20.4017 N   0  0  0  0  0  0
  -31.9582  -14.4575   20.1977 O   0  0  0  0  0  0
  -21.6630   -6.8898   21.4254 O   0  0  0  0  0  0
  -22.3547  -14.5533   20.6695 O   0  0  0  0  0  0
  -24.6081  -31.8732   23.2128 C   0  0  0  0  0  0
  -25.9024  -32.4821   23.8393 C   0  0  1  0  0  0
  -27.2377  -27.4754   20.0891 C   0  0  0  0  0  0
  -25.5920  -33.8623   24.2362 N   0  0  0  0  0  0
  -23.3908  -30.4956   21.5543 C   0  0  2  0  0  0
  -24.8390  -28.9666   20.1161 C   0  0  0  0  0  0
  -22.7367  -29.4669   22.5027 C   0  0  0  0  0  0
  -18.0272  -28.1331   22.8492 C   0  0  0  0  0  0
  -24.1493  -36.7281   23.2624 C   0  0  0  0  0  0
  -25.9106  -30.8543   21.3527 C   0  0  0  0  0  0
  -25.9925  -29.4858   20.7142 C   0  0  0  0  0  0
  -27.1925  -28.7461   20.7118 C   0  0  0  0  0  0
  -26.0717  -26.9729   19.4732 C   0  0  0  0  0  0
  -24.8695  -27.7050   19.4967 C   0  0  0  0  0  0
  -23.5962  -29.8269   20.1679 C   0  0  0  0  0  0
  -25.4114  -36.3114   24.0338 C   0  0  1  0  0  0
  -20.5853  -28.3630   23.1348 C   0  0  2  0  0  0
  -20.6765  -26.9378   22.5432 C   0  0  0  0  0  0
  -19.5764  -26.6370   21.5199 C   0  0  0  0  0  0
  -18.1931  -26.7883   22.1605 C   0  0  0  0  0  0
  -19.1513  -28.8799   23.2915 C   0  0  0  0  0  0
  -18.9449  -30.1406   23.8928 C   0  0  0  0  0  0
  -17.6455  -30.6557   24.0559 C   0  0  0  0  0  0
  -25.9042  -34.9475   23.5143 C   0  0  0  0  0  0
  -16.5350  -29.9070   23.6289 C   0  0  0  0  0  0
  -16.7266  -28.6471   23.0341 C   0  0  0  0  0  0
  -26.4507  -31.6527   25.0638 C   0  0  0  0  0  0
  -25.3796  -31.3584   26.1384 C   0  0  0  0  0  0
  -27.0268  -30.2978   24.5844 C   0  0  0  0  0  0
  -27.6115  -32.4183   25.7419 C   0  0  0  0  0  0
  -27.5607  -37.1789   24.8464 C   0  0  0  0  0  0
  -21.4105  -29.3012   22.3775 N   0  0  0  0  0  0
  -26.4300  -37.3804   23.9433 N   0  0  0  0  0  0
  -24.6548  -31.0864   22.1006 N   0  0  0  0  0  0
  -23.4178  -28.8193   23.3020 O   0  0  0  0  0  0
  -28.3621  -26.6838   20.0323 O   0  0  0  0  0  0
  -26.5589  -34.8930   22.4692 O   0  0  0  0  0  0
  -23.5299  -32.1492   23.7560 O   0  0  0  0  0  0
  -30.1693  -19.9176   23.1369 C   0  0  0  0  0  0
  -28.6510  -18.0649   21.6985 C   0  0  0  0  0  0
  -28.8479  -20.2585   22.7679 C   0  0  0  0  0  0
  -30.0312  -17.8352   21.8815 C   0  0  0  0  0  0
  -30.7726  -18.7310   22.6880 C   0  0  0  0  0  0
  -28.0554  -19.2872   22.1041 C   0  0  0  0  0  0
  -30.9119  -17.2196   19.5629 C   0  0  0  0  0  0
  -29.2398  -22.5963   23.8270 C   0  0  0  0  0  0
  -28.1210  -22.3692   21.5797 C   0  0  0  0  0  0
  -29.7908  -16.2405   19.2622 C   0  0  0  0  0  0
  -28.8092  -24.0717   23.8453 C   0  0  0  0  0  0
  -27.7483  -23.8630   21.6655 C   0  0  0  0  0  0
  -28.3184  -21.6931   22.9632 C   0  0  1  0  0  0
  -30.7711  -16.8040   21.0250 C   0  0  2  0  0  0
  -32.2372  -18.4925   23.0297 C   0  0  0  0  0  0
  -24.9103  -19.7310   20.2799 C   0  0  0  0  0  0
  -28.6215  -26.0855   22.4089 C   0  0  0  0  0  0
  -26.0772  -18.8868   20.7931 C   0  0  0  0  0  0
  -29.2576  -26.7058   21.1420 C   0  0  0  0  0  0
  -30.0659  -15.5798   20.5598 N   0  0  0  0  0  0
  -28.7573  -24.6049   22.4611 N   0  3  1  0  0  0
  -26.7461  -19.6127   21.8186 O   0  0  0  0  0  0
  -31.4436  -12.2948   19.1302 H   0  0  0  0  0  0
  -30.2398  -11.2621   19.8547 H   0  0  0  0  0  0
  -29.7109  -11.7266   17.4313 H   0  0  0  0  0  0
  -29.6666  -13.4403   17.7541 H   0  0  0  0  0  0
  -27.8089  -11.2993   18.8342 H   0  0  0  0  0  0
  -27.3534  -12.6142   17.7870 H   0  0  0  0  0  0
  -27.6794  -14.2535   19.5371 H   0  0  0  0  0  0
  -28.6548  -12.0573   21.4309 H   0  0  0  0  0  0
  -28.4991  -13.7578   21.8028 H   0  0  0  0  0  0
  -25.2771   -9.5666   22.4784 H   0  0  0  0  0  0
  -24.0002   -7.4627   22.7481 H   0  0  0  0  0  0
  -21.0871   -8.8794   19.8945 H   0  0  0  0  0  0
  -22.3740  -10.9693   19.6175 H   0  0  0  0  0  0
  -21.2017   -7.6157   23.9730 H   0  0  0  0  0  0
  -21.1480   -6.0526   25.9088 H   0  0  0  0  0  0
  -22.0597   -2.7617   23.2828 H   0  0  0  0  0  0
  -22.4082  -11.9876   22.4770 H   0  0  0  0  0  0
  -21.1094  -13.1281   22.2594 H   0  0  0  0  0  0
  -24.6487  -15.8361   20.4880 H   0  0  0  0  0  0
  -26.2743  -15.6207   20.0674 H   0  0  0  0  0  0
  -26.7082  -32.5573   23.1157 H   0  0  0  0  0  0
  -25.0166  -33.9814   25.0572 H   0  0  0  0  0  0
  -22.6766  -31.3112   21.4195 H   0  0  0  0  0  0
  -23.3785  -35.9581   23.3245 H   0  0  0  0  0  0
  -24.3631  -36.8923   22.2050 H   0  0  0  0  0  0
  -23.7185  -37.6453   23.6648 H   0  0  0  0  0  0
  -25.9983  -31.6145   20.5744 H   0  0  0  0  0  0
  -26.8067  -30.9279   21.9552 H   0  0  0  0  0  0
  -28.0680  -29.1758   21.1763 H   0  0  0  0  0  0
  -26.0935  -26.0086   18.9853 H   0  0  0  0  0  0
  -23.9803  -27.3010   19.0322 H   0  0  0  0  0  0
  -23.6992  -30.6032   19.4089 H   0  0  0  0  0  0
  -22.7226  -29.2419   19.8747 H   0  0  0  0  0  0
  -25.1269  -36.1993   25.0825 H   0  0  0  0  0  0
  -20.9942  -28.3191   24.1466 H   0  0  0  0  0  0
  -20.5649  -26.2232   23.3610 H   0  0  0  0  0  0
  -21.6648  -26.7433   22.1248 H   0  0  0  0  0  0
  -19.6944  -25.6288   21.1208 H   0  0  0  0  0  0
  -19.6705  -27.3202   20.6739 H   0  0  0  0  0  0
  -17.4210  -26.6652   21.3984 H   0  0  0  0  0  0
  -18.0317  -25.9996   22.8964 H   0  0  0  0  0  0
  -19.7938  -30.7184   24.2327 H   0  0  0  0  0  0
  -17.5025  -31.6240   24.5158 H   0  0  0  0  0  0
  -15.5355  -30.2994   23.7570 H   0  0  0  0  0  0
  -15.8665  -28.0800   22.7050 H   0  0  0  0  0  0
  -24.6031  -30.6847   25.7734 H   0  0  0  0  0  0
  -24.8898  -32.2703   26.4796 H   0  0  0  0  0  0
  -25.8182  -30.8812   27.0151 H   0  0  0  0  0  0
  -26.2712  -29.6759   24.1001 H   0  0  0  0  0  0
  -27.4231  -29.7154   25.4172 H   0  0  0  0  0  0
  -27.8484  -30.4314   23.8801 H   0  0  0  0  0  0
  -27.2783  -33.3503   26.2003 H   0  0  0  0  0  0
  -28.3970  -32.6662   25.0262 H   0  0  0  0  0  0
  -28.0703  -31.8227   26.5334 H   0  0  0  0  0  0
  -28.2575  -38.0141   24.7610 H   0  0  0  0  0  0
  -28.1152  -36.2670   24.6153 H   0  0  0  0  0  0
  -27.2343  -37.1288   25.8874 H   0  0  0  0  0  0
  -20.9242  -29.8724   21.7010 H   0  0  0  0  0  0
  -26.0175  -38.2861   24.1509 H   0  0  0  0  0  0
  -30.7847  -20.5977   23.7019 H   0  0  0  0  0  0
  -28.0771  -17.3351   21.1499 H   0  0  0  0  0  0
  -30.6792  -18.2643   19.3493 H   0  0  0  0  0  0
  -31.8668  -16.9264   19.1215 H   0  0  0  0  0  0
  -29.2995  -22.2128   24.8465 H   0  0  0  0  0  0
  -30.2529  -22.5912   23.4257 H   0  0  0  0  0  0
  -29.0400  -22.2701   20.9979 H   0  0  0  0  0  0
  -27.3531  -21.8532   21.0040 H   0  0  0  0  0  0
  -29.9895  -15.6493   18.3656 H   0  0  0  0  0  0
  -28.8079  -16.7054   19.1890 H   0  0  0  0  0  0
  -29.5317  -24.6365   24.4366 H   0  0  0  0  0  0
  -27.8417  -24.1925   24.3342 H   0  0  0  0  0  0
  -26.7599  -23.9830   22.1142 H   0  0  0  0  0  0
  -27.6855  -24.2721   20.6575 H   0  0  0  0  0  0
  -27.3509  -21.6232   23.4633 H   0  0  0  0  0  0
  -31.7496  -16.5864   21.4528 H   0  0  0  0  0  0
  -32.6320  -19.2643   23.6927 H   0  0  0  0  0  0
  -32.8584  -18.4856   22.1340 H   0  0  0  0  0  0
  -32.3570  -17.5370   23.5420 H   0  0  0  0  0  0
  -24.3897  -19.2207   19.4689 H   0  0  0  0  0  0
  -25.2669  -20.6861   19.8938 H   0  0  0  0  0  0
  -24.1884  -19.9320   21.0710 H   0  0  0  0  0  0
  -27.5838  -26.3884   22.5474 H   0  0  0  0  0  0
  -29.1640  -26.5092   23.2556 H   0  0  0  0  0  0
  -26.7399  -18.6798   19.9519 H   0  0  0  0  0  0
  -25.7157  -17.9362   21.1856 H   0  0  0  0  0  0
  -30.1524  -26.1483   20.8630 H   0  0  0  0  0  0
  -29.6092  -27.7162   21.3446 H   0  0  0  0  0  0
  -29.6558  -24.3996   22.0476 H   0  0  0  0  0  0
  1 25  1  0  0  0
  1 30  2  0  0  0
  1 90  1  0  0  0
  2  3  1  0  0  0
  2 25  1  0  0  0
  2 93  1  0  0  0
  2 94  1  0  0  0
  3  4  1  0  0  0
  3 95  1  0  0  0
  3 96  1  0  0  0
  4  5  1  0  0  0
  4 97  1  0  0  0
  4 98  1  0  0  0
  5  6  1  0  0  0
  5 26  1  0  0  0
  5 99  1  0  0  0
  6 25  1  0  0  0
  6100  1  0  0  0
  6101  1  0  0  0
  7  8  2  0  0  0
  7 26  1  0  0  0
  7 29  1  0  0  0
  8  9  1  0  0  0
  8 22  1  0  0  0
  9 10  1  0  0  0
  9 27  2  0  0  0
 10 11  2  0  0  0
 10 15  1  0  0  0
 11 12  1  0  0  0
 11102  1  0  0  0
 12 13  2  0  0  0
 12103  1  0  0  0
 13 14  1  0  0  0
 13 31  1  0  0  0
 14 15  2  0  0  0
 14104  1  0  0  0
 15105  1  0  0  0
 16 17  2  0  0  0
 16 21  1  0  0  0
 16 31  1  0  0  0
 17 18  1  0  0  0
 17106  1  0  0  0
 18 19  2  0  0  0
 18107  1  0  0  0
 19 20  1  0  0  0
 19 24  1  0  0  0
 20 21  2  0  0  0
 20108  1  0  0  0
 21 23  1  0  0  0
 22 28  1  0  0  0
 22 32  2  0  0  0
 26 27  1  0  0  0
 28109  1  0  0  0
 28110  1  0  0  0
 29111  1  0  0  0
 29112  1  0  0  0
 33 34  1  0  0  0
 33 66  1  0  0  0
 33 70  2  0  0  0
 34 36  1  0  0  0
 34 59  1  0  0  0
 34113  1  0  0  0
 35 44  2  0  0  0
 35 45  1  0  0  0
 35 68  1  0  0  0
 36 56  1  0  0  0
 36114  1  0  0  0
 37 39  1  0  0  0
 37 47  1  0  0  0
 37 66  1  0  0  0
 37115  1  0  0  0
 38 43  2  0  0  0
 38 46  1  0  0  0
 38 47  1  0  0  0
 39 64  1  0  0  0
 39 67  2  0  0  0
 40 52  1  0  0  0
 40 53  2  0  0  0
 40 58  1  0  0  0
 41116  1  0  0  0
 41117  1  0  0  0
 41118  1  0  0  0
 41 48  1  0  0  0
 42 43  1  0  0  0
 42 66  1  0  0  0
 42119  1  0  0  0
 42120  1  0  0  0
 43 44  1  0  0  0
 44121  1  0  0  0
 45 46  2  0  0  0
 45122  1  0  0  0
 46123  1  0  0  0
 47124  1  0  0  0
 47125  1  0  0  0
 48 56  1  0  0  0
 48 65  1  0  0  0
 48126  1  0  0  0
 49 50  1  0  0  0
 49 53  1  0  0  0
 49 64  1  0  0  0
 49127  1  0  0  0
 50 51  1  0  0  0
 50128  1  0  0  0
 50129  1  0  0  0
 51 52  1  0  0  0
 51130  1  0  0  0
 51131  1  0  0  0
 52132  1  0  0  0
 52133  1  0  0  0
 53 54  1  0  0  0
 54 55  2  0  0  0
 54134  1  0  0  0
 55 57  1  0  0  0
 55135  1  0  0  0
 56 69  2  0  0  0
 57 58  2  0  0  0
 57136  1  0  0  0
 58137  1  0  0  0
 59 60  1  0  0  0
 59 61  1  0  0  0
 59 62  1  0  0  0
 60138  1  0  0  0
 60139  1  0  0  0
 60140  1  0  0  0
 61141  1  0  0  0
 61142  1  0  0  0
 61143  1  0  0  0
 62144  1  0  0  0
 62145  1  0  0  0
 62146  1  0  0  0
 63 65  1  0  0  0
 63147  1  0  0  0
 63148  1  0  0  0
 63149  1  0  0  0
 64150  1  0  0  0
 65151  1  0  0  0
 68 89  1  0  0  0
 71 73  2  0  0  0
 71 75  1  0  0  0
 71152  1  0  0  0
 72 74  1  0  0  0
 72 76  2  0  0  0
 72153  1  0  0  0
 73 76  1  0  0  0
 73 83  1  0  0  0
 74 75  2  0  0  0
 74 84  1  0  0  0
 75 85  1  0  0  0
 76 92  1  0  0  0
 77 80  1  0  0  0
 77 84  1  0  0  0
 77154  1  0  0  0
 77155  1  0  0  0
 78 81  1  0  0  0
 78 83  1  0  0  0
 78156  1  0  0  0
 78157  1  0  0  0
 79 82  1  0  0  0
 79 83  1  0  0  0
 79158  1  0  0  0
 79159  1  0  0  0
 80 90  1  0  0  0
 80160  1  0  0  0
 80161  1  0  0  0
 81 91  1  0  0  0
 81162  1  0  0  0
 81163  1  0  0  0
 82 91  1  0  0  0
 82164  1  0  0  0
 82165  1  0  0  0
 83166  1  0  0  0
 84 90  1  0  0  0
 84167  1  0  0  0
 85168  1  0  0  0
 85169  1  0  0  0
 85170  1  0  0  0
 86 88  1  0  0  0
 86171  1  0  0  0
 86172  1  0  0  0
 86173  1  0  0  0
 87 89  1  0  0  0
 87174  1  0  0  0
 87175  1  0  0  0
 87 91  1  0  0  0
 88 92  1  0  0  0
 88176  1  0  0  0
 88177  1  0  0  0
 89178  1  0  0  0
 89179  1  0  0  0
 91180  1  0  0  0
M  CHG  1  91   1
M  ISO  4   1 100  68 101  89 101  90 100
M  END
> <chiral flag>
0

> <version>
0

> <s_m_source_file>
/data/baiqing/PycharmProjects/Reinvent-master-3.2/result/LINK_invent/BTK/process_docking_weight1_custom_sum_contain_oxygen_bond_distance_aromatic_linkinvent_7_9_3/rearranged_h_0151.sdf

> <i_m_source_file_index>
26

> <r_mmod_Potential_Energy-OPLS-2005>
47.980712890625

> <r_mmod_Stretch_Energy-OPLS-2005>
40.8843841552734

> <r_mmod_Bend_Energy-OPLS-2005>
125.286849975586

> <r_mmod_Torsional_Energy-OPLS-2005>
339.054840087891

> <r_mmod_Improper_Torsional_Energy-OPLS-2005>
18.9128875732422

> <r_mmod_Van_der_Waal_Energy-OPLS-2005>
177.266662597656

> <r_mmod_Electrostatic_Energy-OPLS-2005>
-279.398040771484

> <r_mmod_Solvation_Energy-OPLS-2005>
-395.676849365234

> <b_mmod_Minimization_Converged-OPLS-2005>
0

> <r_mmod_RMS_Derivative-OPLS-2005>
2.9385712146759

$$$$
26
                    3D
 Structure written by MMmdl.
160169  0  0  1  0            999 V2000
  -30.5536  -14.7963   20.4217 C   0  0  0  0  0  0
  -30.4286  -12.4637   19.5027 C   0  0  0  0  0  0
  -29.5231  -12.4582   18.2494 C   0  0  0  0  0  0
  -28.0358  -12.3397   18.6356 C   0  0  0  0  0  0
  -27.6369  -13.2341   19.8419 C   0  0  2  0  0  0
  -28.6719  -13.1768   20.9838 C   0  0  0  0  0  0
  -25.2503  -13.8202   20.5649 C   0  0  0  0  0  0
  -24.1806  -13.0458   20.9201 C   0  0  0  0  0  0
  -24.6396  -11.6932   20.8739 C   0  0  0  0  0  0
  -23.9065  -10.4310   21.0378 C   0  0  0  0  0  0
  -24.3625   -9.4241   21.9173 C   0  0  0  0  0  0
  -23.6324   -8.2258   22.0736 C   0  0  0  0  0  0
  -22.4316   -8.0274   21.3521 C   0  0  0  0  0  0
  -21.9944   -9.0234   20.4637 C   0  0  0  0  0  0
  -22.7236  -10.2141   20.3042 C   0  0  0  0  0  0
  -21.6875   -6.0743   22.5284 C   0  0  0  0  0  0
  -21.4022   -6.5655   23.8215 C   0  0  0  0  0  0
  -21.3664   -5.6799   24.9174 C   0  0  0  0  0  0
  -21.6038   -4.3050   24.7224 C   0  0  0  0  0  0
  -21.8818   -3.8151   23.4340 C   0  0  0  0  0  0
  -21.9199   -4.6973   22.3406 C   0  0  0  0  0  0
  -22.7829  -13.5227   21.1861 C   0  0  0  0  0  0
  -22.1649   -4.2154   21.0985 F   0  0  0  0  0  0
  -21.5641   -3.4537   25.7736 F   0  0  0  0  0  0
  -29.9682  -13.5439   20.4095 N   0  0  0  0  0  0
  -26.2912  -12.9405   20.3223 N   0  0  0  0  0  0
  -25.9317  -11.6550   20.5733 N   0  0  0  0  0  0
  -22.0477  -12.8212   22.0412 N   0  0  0  0  0  0
  -25.4219  -15.1922   20.4043 N   0  0  0  0  0  0
  -31.7506  -14.8905   20.1274 O   0  0  0  0  0  0
  -21.6654   -6.8881   21.4251 O   0  0  0  0  0  0
  -22.3505  -14.5528   20.6710 O   0  0  0  0  0  0
  -24.6319  -31.8546   23.1960 C   0  0  0  0  0  0
  -25.9156  -32.4730   23.8313 C   0  0  1  0  0  0
  -27.2166  -27.2348   20.1542 C   0  0  0  0  0  0
  -25.5958  -33.8524   24.2237 N   0  0  0  0  0  0
  -23.4295  -30.4733   21.5383 C   0  0  2  0  0  0
  -24.8789  -28.9056   20.1178 C   0  0  0  0  0  0
  -22.7503  -29.4600   22.4905 C   0  0  0  0  0  0
  -18.0297  -28.1376   22.8489 C   0  0  0  0  0  0
  -24.1506  -36.7269   23.2641 C   0  0  0  0  0  0
  -25.9750  -30.7576   21.3807 C   0  0  0  0  0  0
  -26.0490  -29.3739   20.7309 C   0  0  0  0  0  0
  -27.2246  -28.5537   20.7287 C   0  0  0  0  0  0
  -26.0277  -26.8306   19.5188 C   0  0  0  0  0  0
  -24.8751  -27.6449   19.4974 C   0  0  0  0  0  0
  -23.6519  -29.7987   20.1567 C   0  0  0  0  0  0
  -25.4134  -36.3045   24.0307 C   0  0  1  0  0  0
  -20.5900  -28.3720   23.1265 C   0  0  2  0  0  0
  -20.6776  -26.9428   22.5413 C   0  0  0  0  0  0
  -19.5758  -26.6381   21.5208 C   0  0  0  0  0  0
  -18.1944  -26.7924   22.1622 C   0  0  0  0  0  0
  -19.1548  -28.8860   23.2875 C   0  0  0  0  0  0
  -18.9464  -30.1459   23.8889 C   0  0  0  0  0  0
  -17.6460  -30.6576   24.0565 C   0  0  0  0  0  0
  -25.9075  -34.9412   23.5071 C   0  0  0  0  0  0
  -16.5357  -29.9075   23.6319 C   0  0  0  0  0  0
  -16.7280  -28.6489   23.0353 C   0  0  0  0  0  0
  -26.4524  -31.6532   25.0688 C   0  0  0  0  0  0
  -25.3742  -31.3658   26.1397 C   0  0  0  0  0  0
  -27.0376  -30.2950   24.6167 C   0  0  0  0  0  0
  -27.6074  -32.4290   25.7459 C   0  0  0  0  0  0
  -27.5589  -37.1785   24.8455 C   0  0  0  0  0  0
  -21.4209  -29.3070   22.3637 N   0  0  0  0  0  0
  -26.4309  -37.3752   23.9395 N   0  0  0  0  0  0
  -24.6968  -31.0489   22.0940 N   0  0  0  0  0  0
  -23.4177  -28.8173   23.3046 O   0  0  0  0  0  0
  -28.3262  -26.3615   20.1094 O   0  0  0  0  0  0
  -26.5662  -34.8885   22.4653 O   0  0  0  0  0  0
  -23.5470  -32.1404   23.7233 O   0  0  0  0  0  0
  -29.4844  -19.8266   18.6780 C   0  0  0  0  0  0
  -29.8209  -18.6906   17.9269 C   0  0  0  0  0  0
  -29.9073  -17.4225   18.5690 C   0  0  0  0  0  0
  -29.7040  -17.2934   19.9786 C   0  0  0  0  0  0
  -29.1992  -19.7099   20.0396 C   0  0  0  0  0  0
  -31.2878  -18.5956   15.7348 C   0  0  0  0  0  0
  -30.7588  -20.0084   15.8340 C   0  0  0  0  0  0
  -29.9776  -18.8626   16.4382 C   0  0  0  0  0  0
  -30.1048  -16.1904   17.6904 C   0  0  0  0  0  0
  -28.1490  -23.5249   20.1220 C   0  0  0  0  0  0
  -28.3416  -25.0111   20.7890 C   0  0  0  0  0  0
  -29.1184  -22.2613   20.5243 C   0  0  0  0  0  0
  -29.3027  -18.4575   20.6566 N   0  0  0  0  0  0
  -29.7346  -15.9200   20.5983 N   0  0  0  0  0  0
  -28.6723  -20.8356   20.7458 O   0  0  0  0  0  0
  -31.4729  -12.5908   19.2155 H   0  0  0  0  0  0
  -30.3736  -11.4984   20.0111 H   0  0  0  0  0  0
  -29.8008  -11.6260   17.6007 H   0  0  0  0  0  0
  -29.6938  -13.3495   17.6529 H   0  0  0  0  0  0
  -27.8514  -11.2940   18.8769 H   0  0  0  0  0  0
  -27.4033  -12.5613   17.7759 H   0  0  0  0  0  0
  -27.6251  -14.2577   19.4675 H   0  0  0  0  0  0
  -28.7138  -12.1799   21.4244 H   0  0  0  0  0  0
  -28.3976  -13.8591   21.7906 H   0  0  0  0  0  0
  -25.2769   -9.5736   22.4755 H   0  0  0  0  0  0
  -24.0044   -7.4665   22.7470 H   0  0  0  0  0  0
  -21.0874   -8.8738   19.8974 H   0  0  0  0  0  0
  -22.3660  -10.9662   19.6160 H   0  0  0  0  0  0
  -21.2008   -7.6157   23.9722 H   0  0  0  0  0  0
  -21.1490   -6.0525   25.9082 H   0  0  0  0  0  0
  -22.0597   -2.7617   23.2834 H   0  0  0  0  0  0
  -22.4080  -11.9870   22.4802 H   0  0  0  0  0  0
  -21.1097  -13.1223   22.2626 H   0  0  0  0  0  0
  -24.6545  -15.8469   20.5021 H   0  0  0  0  0  0
  -26.2688  -15.6280   20.0648 H   0  0  0  0  0  0
  -26.7203  -32.5375   23.1032 H   0  0  0  0  0  0
  -25.0094  -33.9663   25.0373 H   0  0  0  0  0  0
  -22.7285  -31.2971   21.3869 H   0  0  0  0  0  0
  -23.3761  -35.9609   23.3279 H   0  0  0  0  0  0
  -24.3610  -36.8927   22.2061 H   0  0  0  0  0  0
  -23.7240  -37.6444   23.6708 H   0  0  0  0  0  0
  -26.1230  -31.5157   20.6099 H   0  0  0  0  0  0
  -26.8470  -30.8055   22.0197 H   0  0  0  0  0  0
  -28.1280  -28.9173   21.1976 H   0  0  0  0  0  0
  -25.9926  -25.8683   19.0285 H   0  0  0  0  0  0
  -23.9844  -27.2873   19.0013 H   0  0  0  0  0  0
  -23.7839  -30.5717   19.3986 H   0  0  0  0  0  0
  -22.7684  -29.2368   19.8496 H   0  0  0  0  0  0
  -25.1310  -36.1888   25.0801 H   0  0  0  0  0  0
  -21.0013  -28.3300   24.1382 H   0  0  0  0  0  0
  -20.5675  -26.2330   23.3630 H   0  0  0  0  0  0
  -21.6635  -26.7448   22.1208 H   0  0  0  0  0  0
  -19.6925  -25.6297   21.1236 H   0  0  0  0  0  0
  -19.6679  -27.3181   20.6733 H   0  0  0  0  0  0
  -17.4221  -26.6703   21.4013 H   0  0  0  0  0  0
  -18.0336  -26.0042   22.8997 H   0  0  0  0  0  0
  -19.7939  -30.7290   24.2238 H   0  0  0  0  0  0
  -17.5007  -31.6242   24.5200 H   0  0  0  0  0  0
  -15.5354  -30.2977   23.7621 H   0  0  0  0  0  0
  -15.8691  -28.0790   22.7076 H   0  0  0  0  0  0
  -24.5940  -30.6999   25.7685 H   0  0  0  0  0  0
  -24.8911  -32.2810   26.4835 H   0  0  0  0  0  0
  -25.8054  -30.8806   27.0162 H   0  0  0  0  0  0
  -26.2937  -29.6664   24.1257 H   0  0  0  0  0  0
  -27.4124  -29.7240   25.4670 H   0  0  0  0  0  0
  -27.8797  -30.4198   23.9353 H   0  0  0  0  0  0
  -27.2678  -33.3608   26.2000 H   0  0  0  0  0  0
  -28.3897  -32.6825   25.0285 H   0  0  0  0  0  0
  -28.0742  -31.8441   26.5397 H   0  0  0  0  0  0
  -28.2566  -38.0127   24.7542 H   0  0  0  0  0  0
  -28.1130  -36.2644   24.6241 H   0  0  0  0  0  0
  -27.2320  -37.1356   25.8867 H   0  0  0  0  0  0
  -20.9417  -29.8785   21.6815 H   0  0  0  0  0  0
  -26.0165  -38.2820   24.1412 H   0  0  0  0  0  0
  -29.3522  -20.7741   18.1751 H   0  0  0  0  0  0
  -32.1538  -18.3393   16.3423 H   0  0  0  0  0  0
  -31.2411  -18.1140   14.7593 H   0  0  0  0  0  0
  -30.3665  -20.4537   14.9214 H   0  0  0  0  0  0
  -31.2743  -20.6952   16.5032 H   0  0  0  0  0  0
  -29.0585  -18.5820   15.9266 H   0  0  0  0  0  0
  -29.9249  -16.3617   16.6316 H   0  0  0  0  0  0
  -29.3815  -15.4319   17.9773 H   0  0  0  0  0  0
  -31.1167  -15.7986   17.7902 H   0  0  0  0  0  0
  -28.1947  -23.6254   19.0371 H   0  0  0  0  0  0
  -27.1201  -23.2252   20.3203 H   0  0  0  0  0  0
  -29.3356  -24.9871   21.2337 H   0  0  0  0  0  0
  -27.6776  -25.0758   21.6543 H   0  0  0  0  0  0
  -29.5634  -22.5221   21.4844 H   0  0  0  0  0  0
  -29.9679  -22.2672   19.8431 H   0  0  0  0  0  0
  -28.8915  -15.7064   21.1032 H   0  0  0  0  0  0
  1 25  1  0  0  0
  1 30  2  0  0  0
  1 84  1  0  0  0
  2  3  1  0  0  0
  2 25  1  0  0  0
  2 86  1  0  0  0
  2 87  1  0  0  0
  3  4  1  0  0  0
  3 88  1  0  0  0
  3 89  1  0  0  0
  4  5  1  0  0  0
  4 90  1  0  0  0
  4 91  1  0  0  0
  5  6  1  0  0  0
  5 26  1  0  0  0
  5 92  1  0  0  0
  6 25  1  0  0  0
  6 93  1  0  0  0
  6 94  1  0  0  0
  7  8  2  0  0  0
  7 26  1  0  0  0
  7 29  1  0  0  0
  8  9  1  0  0  0
  8 22  1  0  0  0
  9 10  1  0  0  0
  9 27  2  0  0  0
 10 11  2  0  0  0
 10 15  1  0  0  0
 11 12  1  0  0  0
 11 95  1  0  0  0
 12 13  2  0  0  0
 12 96  1  0  0  0
 13 14  1  0  0  0
 13 31  1  0  0  0
 14 15  2  0  0  0
 14 97  1  0  0  0
 15 98  1  0  0  0
 16 17  2  0  0  0
 16 21  1  0  0  0
 16 31  1  0  0  0
 17 18  1  0  0  0
 17 99  1  0  0  0
 18 19  2  0  0  0
 18100  1  0  0  0
 19 20  1  0  0  0
 19 24  1  0  0  0
 20 21  2  0  0  0
 20101  1  0  0  0
 21 23  1  0  0  0
 22 28  1  0  0  0
 22 32  2  0  0  0
 26 27  1  0  0  0
 28102  1  0  0  0
 28103  1  0  0  0
 29104  1  0  0  0
 29105  1  0  0  0
 33 34  1  0  0  0
 33 66  1  0  0  0
 33 70  2  0  0  0
 34 36  1  0  0  0
 34 59  1  0  0  0
 34106  1  0  0  0
 35 44  2  0  0  0
 35 45  1  0  0  0
 35 68  1  0  0  0
 36 56  1  0  0  0
 36107  1  0  0  0
 37 39  1  0  0  0
 37 47  1  0  0  0
 37 66  1  0  0  0
 37108  1  0  0  0
 38 43  2  0  0  0
 38 46  1  0  0  0
 38 47  1  0  0  0
 39 64  1  0  0  0
 39 67  2  0  0  0
 40 52  1  0  0  0
 40 53  2  0  0  0
 40 58  1  0  0  0
 41109  1  0  0  0
 41110  1  0  0  0
 41111  1  0  0  0
 41 48  1  0  0  0
 42 43  1  0  0  0
 42 66  1  0  0  0
 42112  1  0  0  0
 42113  1  0  0  0
 43 44  1  0  0  0
 44114  1  0  0  0
 45 46  2  0  0  0
 45115  1  0  0  0
 46116  1  0  0  0
 47117  1  0  0  0
 47118  1  0  0  0
 48 56  1  0  0  0
 48 65  1  0  0  0
 48119  1  0  0  0
 49 50  1  0  0  0
 49 53  1  0  0  0
 49 64  1  0  0  0
 49120  1  0  0  0
 50 51  1  0  0  0
 50121  1  0  0  0
 50122  1  0  0  0
 51 52  1  0  0  0
 51123  1  0  0  0
 51124  1  0  0  0
 52125  1  0  0  0
 52126  1  0  0  0
 53 54  1  0  0  0
 54 55  2  0  0  0
 54127  1  0  0  0
 55 57  1  0  0  0
 55128  1  0  0  0
 56 69  2  0  0  0
 57 58  2  0  0  0
 57129  1  0  0  0
 58130  1  0  0  0
 59 60  1  0  0  0
 59 61  1  0  0  0
 59 62  1  0  0  0
 60131  1  0  0  0
 60132  1  0  0  0
 60133  1  0  0  0
 61134  1  0  0  0
 61135  1  0  0  0
 61136  1  0  0  0
 62137  1  0  0  0
 62138  1  0  0  0
 62139  1  0  0  0
 63 65  1  0  0  0
 63140  1  0  0  0
 63141  1  0  0  0
 63142  1  0  0  0
 64143  1  0  0  0
 65144  1  0  0  0
 68 81  1  0  0  0
 71 72  2  0  0  0
 71 75  1  0  0  0
 71145  1  0  0  0
 72 73  1  0  0  0
 72 78  1  0  0  0
 73 74  2  0  0  0
 73 79  1  0  0  0
 74 83  1  0  0  0
 74 84  1  0  0  0
 75 83  2  0  0  0
 75 85  1  0  0  0
 76 77  1  0  0  0
 76 78  1  0  0  0
 76146  1  0  0  0
 76147  1  0  0  0
 77 78  1  0  0  0
 77148  1  0  0  0
 77149  1  0  0  0
 78150  1  0  0  0
 79151  1  0  0  0
 79152  1  0  0  0
 79153  1  0  0  0
 80 81  1  0  0  0
 80 82  1  0  0  0
 80154  1  0  0  0
 80155  1  0  0  0
 81156  1  0  0  0
 81157  1  0  0  0
 82 85  1  0  0  0
 82158  1  0  0  0
 82159  1  0  0  0
 84160  1  0  0  0
M  ISO  4   1 100  68 101  81 101  84 100
M  END
> <chiral flag>
0

> <version>
0

> <s_m_source_file>
/data/baiqing/PycharmProjects/Reinvent-master-3.2/result/LINK_invent/BTK/process_docking_weight1_custom_sum_contain_oxygen_bond_distance_aromatic_linkinvent_7_9_3/rearranged_h_0151.sdf

> <i_m_source_file_index>
27

> <r_mmod_Potential_Energy-OPLS-2005>
152.935623168945

> <r_mmod_Stretch_Energy-OPLS-2005>
153.388473510742

> <r_mmod_Bend_Energy-OPLS-2005>
215.016540527344

> <r_mmod_Torsional_Energy-OPLS-2005>
321.447967529297

> <r_mmod_Improper_Torsional_Energy-OPLS-2005>
6.37725830078125

> <r_mmod_Van_der_Waal_Energy-OPLS-2005>
140.302780151367

> <r_mmod_Electrostatic_Energy-OPLS-2005>
-562.858703613281

> <r_mmod_Solvation_Energy-OPLS-2005>
-222.165756225586

> <b_mmod_Minimization_Converged-OPLS-2005>
0

> <r_mmod_RMS_Derivative-OPLS-2005>
3.38970589637756

$$$$
27
                    3D
 Structure written by MMmdl.
173182  0  0  1  0            999 V2000
  -30.6873  -14.4692   20.5327 C   0  0  0  0  0  0
  -30.4337  -12.2837   19.4351 C   0  0  0  0  0  0
  -29.5072  -12.4586   18.2108 C   0  0  0  0  0  0
  -28.0192  -12.3702   18.6161 C   0  0  0  0  0  0
  -27.6684  -13.2064   19.8761 C   0  0  2  0  0  0
  -28.7100  -12.9793   20.9958 C   0  0  0  0  0  0
  -25.2636  -13.8200   20.5734 C   0  0  0  0  0  0
  -24.1885  -13.0457   20.9205 C   0  0  0  0  0  0
  -24.6451  -11.6925   20.8780 C   0  0  0  0  0  0
  -23.9122  -10.4309   21.0454 C   0  0  0  0  0  0
  -24.3663   -9.4212   21.9223 C   0  0  0  0  0  0
  -23.6334   -8.2249   22.0752 C   0  0  0  0  0  0
  -22.4286   -8.0328   21.3576 C   0  0  0  0  0  0
  -21.9958   -9.0294   20.4653 C   0  0  0  0  0  0
  -22.7304  -10.2164   20.3071 C   0  0  0  0  0  0
  -21.6829   -6.0801   22.5320 C   0  0  0  0  0  0
  -21.3989   -6.5682   23.8265 C   0  0  0  0  0  0
  -21.3665   -5.6812   24.9210 C   0  0  0  0  0  0
  -21.6051   -4.3075   24.7234 C   0  0  0  0  0  0
  -21.8813   -3.8204   23.4338 C   0  0  0  0  0  0
  -21.9183   -4.7039   22.3416 C   0  0  0  0  0  0
  -22.7903  -13.5243   21.1872 C   0  0  0  0  0  0
  -22.1656   -4.2255   21.0982 F   0  0  0  0  0  0
  -21.5651   -3.4536   25.7726 F   0  0  0  0  0  0
  -30.0426  -13.2768   20.4459 N   0  0  0  0  0  0
  -26.3069  -12.9369   20.3383 N   0  0  0  0  0  0
  -25.9366  -11.6533   20.5758 N   0  0  0  0  0  0
  -22.0529  -12.8211   22.0396 N   0  0  0  0  0  0
  -25.4342  -15.1932   20.4209 N   0  0  0  0  0  0
  -31.8397  -14.6456   20.1275 O   0  0  0  0  0  0
  -21.6629   -6.8946   21.4281 O   0  0  0  0  0  0
  -22.3581  -14.5567   20.6749 O   0  0  0  0  0  0
  -24.6121  -31.8680   23.2106 C   0  0  0  0  0  0
  -25.9022  -32.4819   23.8394 C   0  0  1  0  0  0
  -27.2540  -27.4704   20.0746 C   0  0  0  0  0  0
  -25.5883  -33.8622   24.2319 N   0  0  0  0  0  0
  -23.3998  -30.4894   21.5493 C   0  0  2  0  0  0
  -24.8516  -28.9574   20.1108 C   0  0  0  0  0  0
  -22.7403  -29.4646   22.5003 C   0  0  0  0  0  0
  -18.0266  -28.1382   22.8487 C   0  0  0  0  0  0
  -24.1481  -36.7319   23.2636 C   0  0  0  0  0  0
  -25.9249  -30.8397   21.3622 C   0  0  0  0  0  0
  -26.0058  -29.4755   20.7113 C   0  0  0  0  0  0
  -27.2051  -28.7329   20.7024 C   0  0  0  0  0  0
  -26.0812  -26.9526   19.4806 C   0  0  0  0  0  0
  -24.8820  -27.6924   19.4962 C   0  0  0  0  0  0
  -23.6088  -29.8173   20.1640 C   0  0  0  0  0  0
  -25.4099  -36.3108   24.0332 C   0  0  1  0  0  0
  -20.5852  -28.3655   23.1332 C   0  0  2  0  0  0
  -20.6757  -26.9396   22.5425 C   0  0  0  0  0  0
  -19.5744  -26.6382   21.5220 C   0  0  0  0  0  0
  -18.1918  -26.7927   22.1620 C   0  0  0  0  0  0
  -19.1514  -28.8841   23.2905 C   0  0  0  0  0  0
  -18.9447  -30.1449   23.8913 C   0  0  0  0  0  0
  -17.6449  -30.6583   24.0566 C   0  0  0  0  0  0
  -25.9029  -34.9474   23.5124 C   0  0  0  0  0  0
  -16.5336  -29.9081   23.6330 C   0  0  0  0  0  0
  -16.7253  -28.6502   23.0341 C   0  0  0  0  0  0
  -26.4472  -31.6597   25.0717 C   0  0  0  0  0  0
  -25.3745  -31.3699   26.1473 C   0  0  0  0  0  0
  -27.0304  -30.3038   24.6081 C   0  0  0  0  0  0
  -27.6049  -32.4322   25.7478 C   0  0  0  0  0  0
  -27.5577  -37.1809   24.8459 C   0  0  0  0  0  0
  -21.4136  -29.3011   22.3737 N   0  0  0  0  0  0
  -26.4285  -37.3793   23.9409 N   0  0  0  0  0  0
  -24.6631  -31.0791   22.0995 N   0  0  0  0  0  0
  -23.4187  -28.8193   23.3041 O   0  0  0  0  0  0
  -28.4269  -26.7544   20.1002 O   0  0  0  0  0  0
  -26.5595  -34.8925   22.4689 O   0  0  0  0  0  0
  -23.5319  -32.1437   23.7512 O   0  0  0  0  0  0
  -30.0551  -19.2085   21.2784 C   0  0  0  0  0  0
  -30.2949  -19.6575   19.9586 C   0  0  0  0  0  0
  -30.3694  -18.6962   18.9103 C   0  0  0  0  0  0
  -30.1999  -17.3153   19.2048 C   0  0  0  0  0  0
  -30.0555  -16.8765   20.5523 C   0  0  0  0  0  0
  -29.9196  -17.8327   21.5844 C   0  0  0  0  0  0
  -29.1362  -21.7456   19.0466 C   0  0  0  0  0  0
  -30.7941  -22.0734   20.8468 C   0  0  0  0  0  0
  -29.3545  -23.1912   18.5626 C   0  0  0  0  0  0
  -31.0509  -23.5127   20.3493 C   0  0  0  0  0  0
  -30.4189  -21.1641   19.6654 C   0  0  1  0  0  0
  -30.5984  -19.1130   17.4527 C   0  0  0  0  0  0
  -30.1007  -16.3116   18.0567 C   0  0  0  0  0  0
  -29.0878  -18.2766   23.7971 C   0  0  0  0  0  0
  -30.1937  -25.4610   19.0990 C   0  0  0  0  0  0
  -28.9466  -26.3324   18.8430 C   0  0  0  0  0  0
  -29.9060  -15.4993   20.9106 N   0  0  0  0  0  0
  -29.8826  -24.0983   19.6260 N   0  3  1  0  0  0
  -29.6333  -17.3632   22.8500 O   0  0  0  0  0  0
  -31.4762  -12.3842   19.1286 H   0  0  0  0  0  0
  -30.3415  -11.2755   19.8432 H   0  0  0  0  0  0
  -29.7272  -11.6943   17.4644 H   0  0  0  0  0  0
  -29.7094  -13.4094   17.7218 H   0  0  0  0  0  0
  -27.7941  -11.3189   18.7998 H   0  0  0  0  0  0
  -27.3843  -12.6694   17.7811 H   0  0  0  0  0  0
  -27.7130  -14.2539   19.5808 H   0  0  0  0  0  0
  -28.6832  -11.9434   21.3375 H   0  0  0  0  0  0
  -28.4812  -13.5868   21.8720 H   0  0  0  0  0  0
  -25.2812   -9.5655   22.4816 H   0  0  0  0  0  0
  -24.0074   -7.4605   22.7414 H   0  0  0  0  0  0
  -21.0913   -8.8794   19.8940 H   0  0  0  0  0  0
  -22.3789  -10.9711   19.6170 H   0  0  0  0  0  0
  -21.1944   -7.6180   23.9805 H   0  0  0  0  0  0
  -21.1485   -6.0528   25.9120 H   0  0  0  0  0  0
  -22.0566   -2.7678   23.2796 H   0  0  0  0  0  0
  -22.4053  -11.9831   22.4787 H   0  0  0  0  0  0
  -21.1172  -13.1311   22.2603 H   0  0  0  0  0  0
  -24.6708  -15.8487   20.5518 H   0  0  0  0  0  0
  -26.2996  -15.6490   20.1601 H   0  0  0  0  0  0
  -26.7094  -32.5540   23.1165 H   0  0  0  0  0  0
  -25.0040  -33.9791   25.0463 H   0  0  0  0  0  0
  -22.6862  -31.3043   21.4093 H   0  0  0  0  0  0
  -23.3739  -35.9658   23.3302 H   0  0  0  0  0  0
  -24.3584  -36.8936   22.2051 H   0  0  0  0  0  0
  -23.7246  -37.6527   23.6656 H   0  0  0  0  0  0
  -26.0330  -31.6055   20.5932 H   0  0  0  0  0  0
  -26.8143  -30.8963   21.9776 H   0  0  0  0  0  0
  -28.0968  -29.1291   21.1680 H   0  0  0  0  0  0
  -26.0802  -25.9758   19.0183 H   0  0  0  0  0  0
  -23.9919  -27.2846   19.0362 H   0  0  0  0  0  0
  -23.7084  -30.5911   19.4020 H   0  0  0  0  0  0
  -22.7358  -29.2305   19.8729 H   0  0  0  0  0  0
  -25.1281  -36.1968   25.0828 H   0  0  0  0  0  0
  -20.9942  -28.3216   24.1454 H   0  0  0  0  0  0
  -20.5671  -26.2258   23.3607 H   0  0  0  0  0  0
  -21.6628  -26.7450   22.1208 H   0  0  0  0  0  0
  -19.6902  -25.6300   21.1230 H   0  0  0  0  0  0
  -19.6688  -27.3210   20.6765 H   0  0  0  0  0  0
  -17.4196  -26.6688   21.4013 H   0  0  0  0  0  0
  -18.0302  -26.0062   22.9008 H   0  0  0  0  0  0
  -19.7928  -30.7263   24.2277 H   0  0  0  0  0  0
  -17.5004  -31.6268   24.5158 H   0  0  0  0  0  0
  -15.5335  -30.2991   23.7652 H   0  0  0  0  0  0
  -15.8651  -28.0830   22.7044 H   0  0  0  0  0  0
  -24.5903  -30.7067   25.7811 H   0  0  0  0  0  0
  -24.8958  -32.2855   26.4952 H   0  0  0  0  0  0
  -25.8102  -30.8843   27.0211 H   0  0  0  0  0  0
  -26.2841  -29.6793   24.1154 H   0  0  0  0  0  0
  -27.4106  -29.7283   25.4531 H   0  0  0  0  0  0
  -27.8662  -30.4365   23.9207 H   0  0  0  0  0  0
  -27.2659  -33.3606   26.2088 H   0  0  0  0  0  0
  -28.3839  -32.6909   25.0293 H   0  0  0  0  0  0
  -28.0738  -31.8430   26.5367 H   0  0  0  0  0  0
  -28.2587  -38.0111   24.7519 H   0  0  0  0  0  0
  -28.1080  -36.2649   24.6265 H   0  0  0  0  0  0
  -27.2304  -37.1432   25.8863 H   0  0  0  0  0  0
  -20.9301  -29.8724   21.6950 H   0  0  0  0  0  0
  -26.0173  -38.2867   24.1430 H   0  0  0  0  0  0
  -29.9700  -19.9358   22.0707 H   0  0  0  0  0  0
  -28.8109  -21.1438   18.1992 H   0  0  0  0  0  0
  -28.3211  -21.7058   19.7715 H   0  0  0  0  0  0
  -30.0072  -22.0868   21.6017 H   0  0  0  0  0  0
  -31.6921  -21.6938   21.3333 H   0  0  0  0  0  0
  -28.4096  -23.5764   18.1801 H   0  0  0  0  0  0
  -30.0461  -23.1791   17.7188 H   0  0  0  0  0  0
  -31.9238  -23.5211   19.6943 H   0  0  0  0  0  0
  -31.3056  -24.1441   21.2012 H   0  0  0  0  0  0
  -31.2512  -21.2751   18.9704 H   0  0  0  0  0  0
  -30.9379  -20.1325   17.2963 H   0  0  0  0  0  0
  -29.6713  -19.0077   16.8882 H   0  0  0  0  0  0
  -31.3600  -18.4807   16.9913 H   0  0  0  0  0  0
  -31.0729  -15.8682   17.8422 H   0  0  0  0  0  0
  -29.7217  -16.7464   17.1341 H   0  0  0  0  0  0
  -29.3934  -15.5251   18.3045 H   0  0  0  0  0  0
  -28.3353  -18.9374   23.3626 H   0  0  0  0  0  0
  -29.8668  -18.8831   24.2593 H   0  0  0  0  0  0
  -28.5969  -17.7152   24.5915 H   0  0  0  0  0  0
  -30.8445  -25.9952   19.7931 H   0  0  0  0  0  0
  -30.7713  -25.3670   18.1783 H   0  0  0  0  0  0
  -28.2129  -25.8110   18.2294 H   0  0  0  0  0  0
  -29.2391  -27.2215   18.2803 H   0  0  0  0  0  0
  -29.0600  -15.2588   21.4017 H   0  0  0  0  0  0
  -29.1587  -24.2198   20.3209 H   0  0  0  0  0  0
  1 25  1  0  0  0
  1 30  2  0  0  0
  1 87  1  0  0  0
  2  3  1  0  0  0
  2 25  1  0  0  0
  2 90  1  0  0  0
  2 91  1  0  0  0
  3  4  1  0  0  0
  3 92  1  0  0  0
  3 93  1  0  0  0
  4  5  1  0  0  0
  4 94  1  0  0  0
  4 95  1  0  0  0
  5  6  1  0  0  0
  5 26  1  0  0  0
  5 96  1  0  0  0
  6 25  1  0  0  0
  6 97  1  0  0  0
  6 98  1  0  0  0
  7  8  2  0  0  0
  7 26  1  0  0  0
  7 29  1  0  0  0
  8  9  1  0  0  0
  8 22  1  0  0  0
  9 10  1  0  0  0
  9 27  2  0  0  0
 10 11  2  0  0  0
 10 15  1  0  0  0
 11 12  1  0  0  0
 11 99  1  0  0  0
 12 13  2  0  0  0
 12100  1  0  0  0
 13 14  1  0  0  0
 13 31  1  0  0  0
 14 15  2  0  0  0
 14101  1  0  0  0
 15102  1  0  0  0
 16 17  2  0  0  0
 16 21  1  0  0  0
 16 31  1  0  0  0
 17 18  1  0  0  0
 17103  1  0  0  0
 18 19  2  0  0  0
 18104  1  0  0  0
 19 20  1  0  0  0
 19 24  1  0  0  0
 20 21  2  0  0  0
 20105  1  0  0  0
 21 23  1  0  0  0
 22 28  1  0  0  0
 22 32  2  0  0  0
 26 27  1  0  0  0
 28106  1  0  0  0
 28107  1  0  0  0
 29108  1  0  0  0
 29109  1  0  0  0
 33 34  1  0  0  0
 33 66  1  0  0  0
 33 70  2  0  0  0
 34 36  1  0  0  0
 34 59  1  0  0  0
 34110  1  0  0  0
 35 44  2  0  0  0
 35 45  1  0  0  0
 35 68  1  0  0  0
 36 56  1  0  0  0
 36111  1  0  0  0
 37 39  1  0  0  0
 37 47  1  0  0  0
 37 66  1  0  0  0
 37112  1  0  0  0
 38 43  2  0  0  0
 38 46  1  0  0  0
 38 47  1  0  0  0
 39 64  1  0  0  0
 39 67  2  0  0  0
 40 52  1  0  0  0
 40 53  2  0  0  0
 40 58  1  0  0  0
 41113  1  0  0  0
 41114  1  0  0  0
 41115  1  0  0  0
 41 48  1  0  0  0
 42 43  1  0  0  0
 42 66  1  0  0  0
 42116  1  0  0  0
 42117  1  0  0  0
 43 44  1  0  0  0
 44118  1  0  0  0
 45 46  2  0  0  0
 45119  1  0  0  0
 46120  1  0  0  0
 47121  1  0  0  0
 47122  1  0  0  0
 48 56  1  0  0  0
 48 65  1  0  0  0
 48123  1  0  0  0
 49 50  1  0  0  0
 49 53  1  0  0  0
 49 64  1  0  0  0
 49124  1  0  0  0
 50 51  1  0  0  0
 50125  1  0  0  0
 50126  1  0  0  0
 51 52  1  0  0  0
 51127  1  0  0  0
 51128  1  0  0  0
 52129  1  0  0  0
 52130  1  0  0  0
 53 54  1  0  0  0
 54 55  2  0  0  0
 54131  1  0  0  0
 55 57  1  0  0  0
 55132  1  0  0  0
 56 69  2  0  0  0
 57 58  2  0  0  0
 57133  1  0  0  0
 58134  1  0  0  0
 59 60  1  0  0  0
 59 61  1  0  0  0
 59 62  1  0  0  0
 60135  1  0  0  0
 60136  1  0  0  0
 60137  1  0  0  0
 61138  1  0  0  0
 61139  1  0  0  0
 61140  1  0  0  0
 62141  1  0  0  0
 62142  1  0  0  0
 62143  1  0  0  0
 63 65  1  0  0  0
 63144  1  0  0  0
 63145  1  0  0  0
 63146  1  0  0  0
 64147  1  0  0  0
 65148  1  0  0  0
 68 86  1  0  0  0
 71 72  2  0  0  0
 71 76  1  0  0  0
 71149  1  0  0  0
 72 73  1  0  0  0
 72 81  1  0  0  0
 73 74  2  0  0  0
 73 82  1  0  0  0
 74 75  1  0  0  0
 74 83  1  0  0  0
 75 76  2  0  0  0
 75 87  1  0  0  0
 76 89  1  0  0  0
 77 79  1  0  0  0
 77 81  1  0  0  0
 77150  1  0  0  0
 77151  1  0  0  0
 78 80  1  0  0  0
 78 81  1  0  0  0
 78152  1  0  0  0
 78153  1  0  0  0
 79 88  1  0  0  0
 79154  1  0  0  0
 79155  1  0  0  0
 80 88  1  0  0  0
 80156  1  0  0  0
 80157  1  0  0  0
 81158  1  0  0  0
 82159  1  0  0  0
 82160  1  0  0  0
 82161  1  0  0  0
 83162  1  0  0  0
 83163  1  0  0  0
 83164  1  0  0  0
 84 89  1  0  0  0
 84165  1  0  0  0
 84166  1  0  0  0
 84167  1  0  0  0
 85 86  1  0  0  0
 85168  1  0  0  0
 85169  1  0  0  0
 85 88  1  0  0  0
 86170  1  0  0  0
 86171  1  0  0  0
 87172  1  0  0  0
 88173  1  0  0  0
M  CHG  1  88   1
M  ISO  4   1 100  68 101  86 101  87 100
M  END
> <chiral flag>
0

> <version>
0

> <s_m_source_file>
/data/baiqing/PycharmProjects/Reinvent-master-3.2/result/LINK_invent/BTK/process_docking_weight1_custom_sum_contain_oxygen_bond_distance_aromatic_linkinvent_7_9_3/rearranged_h_0151.sdf

> <i_m_source_file_index>
28

> <r_mmod_Potential_Energy-OPLS-2005>
-117.471710205078

> <r_mmod_Stretch_Energy-OPLS-2005>
41.6832542419434

> <r_mmod_Bend_Energy-OPLS-2005>
109.476219177246

> <r_mmod_Torsional_Energy-OPLS-2005>
296.779846191406

> <r_mmod_Improper_Torsional_Energy-OPLS-2005>
5.16337251663208

> <r_mmod_Van_der_Waal_Energy-OPLS-2005>
177.461059570312

> <r_mmod_Electrostatic_Energy-OPLS-2005>
-330.510070800781

> <r_mmod_Solvation_Energy-OPLS-2005>
-430.636077880859

> <b_mmod_Minimization_Converged-OPLS-2005>
0

> <r_mmod_RMS_Derivative-OPLS-2005>
3.35213685035706

$$$$
28
                    3D
 Structure written by MMmdl.
171180  0  0  1  0            999 V2000
  -30.7174  -14.4707   20.5611 C   0  0  0  0  0  0
  -30.4242  -12.3003   19.4302 C   0  0  0  0  0  0
  -29.4999  -12.4992   18.2111 C   0  0  0  0  0  0
  -28.0192  -12.3725   18.6201 C   0  0  0  0  0  0
  -27.6674  -13.2111   19.8786 C   0  0  2  0  0  0
  -28.7114  -13.0010   21.0014 C   0  0  0  0  0  0
  -25.2626  -13.8169   20.5691 C   0  0  0  0  0  0
  -24.1872  -13.0446   20.9177 C   0  0  0  0  0  0
  -24.6425  -11.6911   20.8731 C   0  0  0  0  0  0
  -23.9083  -10.4296   21.0401 C   0  0  0  0  0  0
  -24.3629   -9.4214   21.9187 C   0  0  0  0  0  0
  -23.6299   -8.2250   22.0760 C   0  0  0  0  0  0
  -22.4283   -8.0289   21.3545 C   0  0  0  0  0  0
  -21.9919   -9.0265   20.4652 C   0  0  0  0  0  0
  -22.7252  -10.2142   20.3056 C   0  0  0  0  0  0
  -21.6857   -6.0742   22.5279 C   0  0  0  0  0  0
  -21.4012   -6.5642   23.8214 C   0  0  0  0  0  0
  -21.3654   -5.6796   24.9174 C   0  0  0  0  0  0
  -21.6043   -4.3059   24.7227 C   0  0  0  0  0  0
  -21.8819   -3.8152   23.4347 C   0  0  0  0  0  0
  -21.9192   -4.6967   22.3403 C   0  0  0  0  0  0
  -22.7888  -13.5245   21.1813 C   0  0  0  0  0  0
  -22.1664   -4.2155   21.0979 F   0  0  0  0  0  0
  -21.5625   -3.4541   25.7738 F   0  0  0  0  0  0
  -30.0442  -13.2945   20.4475 N   0  0  0  0  0  0
  -26.3071  -12.9348   20.3387 N   0  0  0  0  0  0
  -25.9363  -11.6501   20.5784 N   0  0  0  0  0  0
  -22.0514  -12.8252   22.0365 N   0  0  0  0  0  0
  -25.4338  -15.1886   20.4094 N   0  0  0  0  0  0
  -31.8362  -14.6502   20.0710 O   0  0  0  0  0  0
  -21.6639   -6.8890   21.4246 O   0  0  0  0  0  0
  -22.3574  -14.5544   20.6644 O   0  0  0  0  0  0
  -24.6139  -31.8696   23.2084 C   0  0  0  0  0  0
  -25.9044  -32.4837   23.8370 C   0  0  1  0  0  0
  -27.2382  -27.4315   20.1071 C   0  0  0  0  0  0
  -25.5907  -33.8627   24.2319 N   0  0  0  0  0  0
  -23.4035  -30.4920   21.5502 C   0  0  2  0  0  0
  -24.8537  -28.9551   20.1161 C   0  0  0  0  0  0
  -22.7402  -29.4677   22.4992 C   0  0  0  0  0  0
  -18.0280  -28.1401   22.8509 C   0  0  0  0  0  0
  -24.1480  -36.7304   23.2637 C   0  0  0  0  0  0
  -25.9323  -30.8328   21.3628 C   0  0  0  0  0  0
  -26.0130  -29.4635   20.7198 C   0  0  0  0  0  0
  -27.2090  -28.7071   20.7194 C   0  0  0  0  0  0
  -26.0697  -26.9408   19.4932 C   0  0  0  0  0  0
  -24.8777  -27.6894   19.5020 C   0  0  0  0  0  0
  -23.6129  -29.8209   20.1649 C   0  0  0  0  0  0
  -25.4109  -36.3125   24.0336 C   0  0  1  0  0  0
  -20.5877  -28.3673   23.1330 C   0  0  2  0  0  0
  -20.6760  -26.9408   22.5431 C   0  0  0  0  0  0
  -19.5729  -26.6403   21.5230 C   0  0  0  0  0  0
  -18.1915  -26.7948   22.1649 C   0  0  0  0  0  0
  -19.1535  -28.8856   23.2921 C   0  0  0  0  0  0
  -18.9466  -30.1471   23.8915 C   0  0  0  0  0  0
  -17.6472  -30.6597   24.0594 C   0  0  0  0  0  0
  -25.9042  -34.9487   23.5124 C   0  0  0  0  0  0
  -16.5361  -29.9107   23.6349 C   0  0  0  0  0  0
  -16.7278  -28.6531   23.0359 C   0  0  0  0  0  0
  -26.4471  -31.6606   25.0690 C   0  0  0  0  0  0
  -25.3743  -31.3734   26.1449 C   0  0  0  0  0  0
  -27.0279  -30.3040   24.6052 C   0  0  0  0  0  0
  -27.6044  -32.4318   25.7461 C   0  0  0  0  0  0
  -27.5585  -37.1809   24.8472 C   0  0  0  0  0  0
  -21.4136  -29.3031   22.3712 N   0  0  0  0  0  0
  -26.4294  -37.3817   23.9424 N   0  0  0  0  0  0
  -24.6686  -31.0774   22.0999 N   0  0  0  0  0  0
  -23.4167  -28.8238   23.3061 O   0  0  0  0  0  0
  -28.3689  -26.6447   20.0751 O   0  0  0  0  0  0
  -26.5609  -34.8931   22.4690 O   0  0  0  0  0  0
  -23.5329  -32.1462   23.7473 O   0  0  0  0  0  0
  -29.5397  -23.9361   20.0121 C   0  0  0  0  0  0
  -28.8552  -23.6443   22.3137 C   0  0  0  0  0  0
  -29.7697  -21.7182   21.0800 C   0  0  0  0  0  0
  -29.0171  -24.4913   21.1963 C   0  0  0  0  0  0
  -29.9051  -22.5688   19.9426 C   0  0  0  0  0  0
  -29.2180  -22.2683   22.2723 C   0  0  0  0  0  0
  -29.0960  -19.1885   21.1160 C   0  0  0  0  0  0
  -30.6666  -18.5689   22.8124 C   0  0  0  0  0  0
  -30.2298  -20.2327   21.0361 C   0  0  2  0  0  0
  -31.2477  -19.8228   22.1280 C   0  0  2  0  0  0
  -29.6419  -17.9302   21.8499 C   0  0  1  0  0  0
  -30.4584  -22.0486   18.6243 C   0  0  0  0  0  0
  -28.5072  -17.2450   22.6464 C   0  0  0  0  0  0
  -28.4862  -21.9301   24.5516 C   0  0  0  0  0  0
  -28.6819  -25.9892   21.3147 C   0  0  0  0  0  0
  -30.3554  -16.9254   20.8762 C   0  0  0  0  0  0
  -30.0258  -15.5005   21.0828 N   0  0  0  0  0  0
  -32.5071  -19.5221   21.5447 O   0  0  0  0  0  0
  -29.0683  -21.4253   23.3550 O   0  0  0  0  0  0
  -31.4706  -12.3863   19.1311 H   0  0  0  0  0  0
  -30.3157  -11.2927   19.8343 H   0  0  0  0  0  0
  -29.7360  -11.7652   17.4398 H   0  0  0  0  0  0
  -29.6818  -13.4785   17.7654 H   0  0  0  0  0  0
  -27.8183  -11.3177   18.8091 H   0  0  0  0  0  0
  -27.3755  -12.6588   17.7876 H   0  0  0  0  0  0
  -27.7100  -14.2585   19.5794 H   0  0  0  0  0  0
  -28.6853  -11.9701   21.3570 H   0  0  0  0  0  0
  -28.4790  -13.6169   21.8715 H   0  0  0  0  0  0
  -25.2780   -9.5679   22.4760 H   0  0  0  0  0  0
  -24.0003   -7.4641   22.7486 H   0  0  0  0  0  0
  -21.0847   -8.8792   19.8963 H   0  0  0  0  0  0
  -22.3720  -10.9680   19.6161 H   0  0  0  0  0  0
  -21.2005   -7.6149   23.9718 H   0  0  0  0  0  0
  -21.1471   -6.0523   25.9077 H   0  0  0  0  0  0
  -22.0599   -2.7613   23.2846 H   0  0  0  0  0  0
  -22.4121  -11.9927   22.4786 H   0  0  0  0  0  0
  -21.1130  -13.1292   22.2537 H   0  0  0  0  0  0
  -24.6683  -15.8440   20.5225 H   0  0  0  0  0  0
  -26.2835  -15.6270   20.0775 H   0  0  0  0  0  0
  -26.7112  -32.5575   23.1132 H   0  0  0  0  0  0
  -25.0046  -33.9787   25.0454 H   0  0  0  0  0  0
  -22.6947  -31.3110   21.4108 H   0  0  0  0  0  0
  -23.3748  -35.9636   23.3328 H   0  0  0  0  0  0
  -24.3566  -36.8885   22.2046 H   0  0  0  0  0  0
  -23.7196  -37.6500   23.6625 H   0  0  0  0  0  0
  -26.0419  -31.5888   20.5849 H   0  0  0  0  0  0
  -26.8208  -30.8959   21.9794 H   0  0  0  0  0  0
  -28.1030  -29.0995   21.1828 H   0  0  0  0  0  0
  -26.0838  -25.9674   19.0205 H   0  0  0  0  0  0
  -23.9891  -27.2932   19.0294 H   0  0  0  0  0  0
  -23.7181  -30.5956   19.4039 H   0  0  0  0  0  0
  -22.7368  -29.2380   19.8723 H   0  0  0  0  0  0
  -25.1278  -36.1994   25.0825 H   0  0  0  0  0  0
  -21.0009  -28.3245   24.1439 H   0  0  0  0  0  0
  -20.5680  -26.2275   23.3621 H   0  0  0  0  0  0
  -21.6633  -26.7453   22.1226 H   0  0  0  0  0  0
  -19.6879  -25.6320   21.1247 H   0  0  0  0  0  0
  -19.6681  -27.3219   20.6768 H   0  0  0  0  0  0
  -17.4202  -26.6742   21.4031 H   0  0  0  0  0  0
  -18.0302  -26.0071   22.9025 H   0  0  0  0  0  0
  -19.7938  -30.7300   24.2268 H   0  0  0  0  0  0
  -17.5027  -31.6281   24.5193 H   0  0  0  0  0  0
  -15.5369  -30.3033   23.7640 H   0  0  0  0  0  0
  -15.8675  -28.0864   22.7060 H   0  0  0  0  0  0
  -24.5929  -30.7052   25.7816 H   0  0  0  0  0  0
  -24.8922  -32.2903   26.4842 H   0  0  0  0  0  0
  -25.8115  -30.8961   27.0225 H   0  0  0  0  0  0
  -26.2807  -29.6836   24.1090 H   0  0  0  0  0  0
  -27.4021  -29.7246   25.4496 H   0  0  0  0  0  0
  -27.8664  -30.4339   23.9209 H   0  0  0  0  0  0
  -27.2656  -33.3607   26.2053 H   0  0  0  0  0  0
  -28.3859  -32.6883   25.0305 H   0  0  0  0  0  0
  -28.0702  -31.8422   26.5365 H   0  0  0  0  0  0
  -28.2631  -38.0081   24.7538 H   0  0  0  0  0  0
  -28.1051  -36.2619   24.6293 H   0  0  0  0  0  0
  -27.2312  -37.1473   25.8876 H   0  0  0  0  0  0
  -20.9284  -29.8749   21.6938 H   0  0  0  0  0  0
  -26.0185  -38.2897   24.1427 H   0  0  0  0  0  0
  -29.6770  -24.5746   19.1509 H   0  0  0  0  0  0
  -28.4575  -24.0841   23.2154 H   0  0  0  0  0  0
  -28.6740  -18.9720   20.1336 H   0  0  0  0  0  0
  -28.2790  -19.6123   21.7001 H   0  0  0  0  0  0
  -30.1488  -18.9047   23.7121 H   0  0  0  0  0  0
  -31.4274  -17.8642   23.1517 H   0  0  0  0  0  0
  -30.7137  -20.0391   20.0824 H   0  0  0  0  0  0
  -31.4070  -20.6144   22.8614 H   0  0  0  0  0  0
  -30.3818  -22.7910   17.8300 H   0  0  0  0  0  0
  -29.9095  -21.1662   18.2945 H   0  0  0  0  0  0
  -31.5096  -21.7826   18.7314 H   0  0  0  0  0  0
  -27.9767  -17.9542   23.2830 H   0  0  0  0  0  0
  -28.8951  -16.4673   23.3065 H   0  0  0  0  0  0
  -27.7679  -16.7944   21.9827 H   0  0  0  0  0  0
  -28.4569  -21.1384   25.2999 H   0  0  0  0  0  0
  -27.4604  -22.2641   24.3882 H   0  0  0  0  0  0
  -29.0742  -22.7463   24.9725 H   0  0  0  0  0  0
  -29.5494  -26.4917   21.7441 H   0  0  0  0  0  0
  -27.8707  -26.1087   22.0374 H   0  0  0  0  0  0
  -31.4393  -17.0566   20.9216 H   0  0  0  0  0  0
  -30.0896  -17.1601   19.8444 H   0  0  0  0  0  0
  -29.1202  -15.2902   21.4746 H   0  0  0  0  0  0
  -33.1017  -19.2696   22.2450 H   0  0  0  0  0  0
  1 25  1  0  0  0
  1 30  2  0  0  0
  1 87  1  0  0  0
  2  3  1  0  0  0
  2 25  1  0  0  0
  2 90  1  0  0  0
  2 91  1  0  0  0
  3  4  1  0  0  0
  3 92  1  0  0  0
  3 93  1  0  0  0
  4  5  1  0  0  0
  4 94  1  0  0  0
  4 95  1  0  0  0
  5  6  1  0  0  0
  5 26  1  0  0  0
  5 96  1  0  0  0
  6 25  1  0  0  0
  6 97  1  0  0  0
  6 98  1  0  0  0
  7  8  2  0  0  0
  7 26  1  0  0  0
  7 29  1  0  0  0
  8  9  1  0  0  0
  8 22  1  0  0  0
  9 10  1  0  0  0
  9 27  2  0  0  0
 10 11  2  0  0  0
 10 15  1  0  0  0
 11 12  1  0  0  0
 11 99  1  0  0  0
 12 13  2  0  0  0
 12100  1  0  0  0
 13 14  1  0  0  0
 13 31  1  0  0  0
 14 15  2  0  0  0
 14101  1  0  0  0
 15102  1  0  0  0
 16 17  2  0  0  0
 16 21  1  0  0  0
 16 31  1  0  0  0
 17 18  1  0  0  0
 17103  1  0  0  0
 18 19  2  0  0  0
 18104  1  0  0  0
 19 20  1  0  0  0
 19 24  1  0  0  0
 20 21  2  0  0  0
 20105  1  0  0  0
 21 23  1  0  0  0
 22 28  1  0  0  0
 22 32  2  0  0  0
 26 27  1  0  0  0
 28106  1  0  0  0
 28107  1  0  0  0
 29108  1  0  0  0
 29109  1  0  0  0
 33 34  1  0  0  0
 33 66  1  0  0  0
 33 70  2  0  0  0
 34 36  1  0  0  0
 34 59  1  0  0  0
 34110  1  0  0  0
 35 44  2  0  0  0
 35 45  1  0  0  0
 35 68  1  0  0  0
 36 56  1  0  0  0
 36111  1  0  0  0
 37 39  1  0  0  0
 37 47  1  0  0  0
 37 66  1  0  0  0
 37112  1  0  0  0
 38 43  2  0  0  0
 38 46  1  0  0  0
 38 47  1  0  0  0
 39 64  1  0  0  0
 39 67  2  0  0  0
 40 52  1  0  0  0
 40 53  2  0  0  0
 40 58  1  0  0  0
 41113  1  0  0  0
 41114  1  0  0  0
 41115  1  0  0  0
 41 48  1  0  0  0
 42 43  1  0  0  0
 42 66  1  0  0  0
 42116  1  0  0  0
 42117  1  0  0  0
 43 44  1  0  0  0
 44118  1  0  0  0
 45 46  2  0  0  0
 45119  1  0  0  0
 46120  1  0  0  0
 47121  1  0  0  0
 47122  1  0  0  0
 48 56  1  0  0  0
 48 65  1  0  0  0
 48123  1  0  0  0
 49 50  1  0  0  0
 49 53  1  0  0  0
 49 64  1  0  0  0
 49124  1  0  0  0
 50 51  1  0  0  0
 50125  1  0  0  0
 50126  1  0  0  0
 51 52  1  0  0  0
 51127  1  0  0  0
 51128  1  0  0  0
 52129  1  0  0  0
 52130  1  0  0  0
 53 54  1  0  0  0
 54 55  2  0  0  0
 54131  1  0  0  0
 55 57  1  0  0  0
 55132  1  0  0  0
 56 69  2  0  0  0
 57 58  2  0  0  0
 57133  1  0  0  0
 58134  1  0  0  0
 59 60  1  0  0  0
 59 61  1  0  0  0
 59 62  1  0  0  0
 60135  1  0  0  0
 60136  1  0  0  0
 60137  1  0  0  0
 61138  1  0  0  0
 61139  1  0  0  0
 61140  1  0  0  0
 62141  1  0  0  0
 62142  1  0  0  0
 62143  1  0  0  0
 63 65  1  0  0  0
 63144  1  0  0  0
 63145  1  0  0  0
 63146  1  0  0  0
 64147  1  0  0  0
 65148  1  0  0  0
 68 85  1  0  0  0
 71 74  2  0  0  0
 71 75  1  0  0  0
 71149  1  0  0  0
 72 74  1  0  0  0
 72 76  2  0  0  0
 72150  1  0  0  0
 73 75  2  0  0  0
 73 76  1  0  0  0
 73 79  1  0  0  0
 74 85  1  0  0  0
 75 82  1  0  0  0
 76 89  1  0  0  0
 77 79  1  0  0  0
 77 81  1  0  0  0
 77151  1  0  0  0
 77152  1  0  0  0
 78 80  1  0  0  0
 78 81  1  0  0  0
 78153  1  0  0  0
 78154  1  0  0  0
 79 80  1  0  0  0
 79155  1  0  0  0
 80 88  1  0  0  0
 80156  1  0  0  0
 81 83  1  0  0  0
 81 86  1  0  0  0
 82157  1  0  0  0
 82158  1  0  0  0
 82159  1  0  0  0
 83160  1  0  0  0
 83161  1  0  0  0
 83162  1  0  0  0
 84 89  1  0  0  0
 84163  1  0  0  0
 84164  1  0  0  0
 84165  1  0  0  0
 85166  1  0  0  0
 85167  1  0  0  0
 86 87  1  0  0  0
 86168  1  0  0  0
 86169  1  0  0  0
 87170  1  0  0  0
 88171  1  0  0  0
M  ISO  4   1 100  68 101  85 101  87 100
M  END
> <chiral flag>
0

> <version>
0

> <s_m_source_file>
/data/baiqing/PycharmProjects/Reinvent-master-3.2/result/LINK_invent/BTK/process_docking_weight1_custom_sum_contain_oxygen_bond_distance_aromatic_linkinvent_7_9_3/rearranged_h_0151.sdf

> <i_m_source_file_index>
29

> <r_mmod_Potential_Energy-OPLS-2005>
18.9856338500977

> <r_mmod_Stretch_Energy-OPLS-2005>
46.1295509338379

> <r_mmod_Bend_Energy-OPLS-2005>
124.041435241699

> <r_mmod_Torsional_Energy-OPLS-2005>
316.512390136719

> <r_mmod_Improper_Torsional_Energy-OPLS-2005>
4.45429134368896

> <r_mmod_Van_der_Waal_Energy-OPLS-2005>
159.35173034668

> <r_mmod_Electrostatic_Energy-OPLS-2005>
-425.410614013672

> <r_mmod_Solvation_Energy-OPLS-2005>
-218.888000488281

> <b_mmod_Minimization_Converged-OPLS-2005>
0

> <r_mmod_RMS_Derivative-OPLS-2005>
2.59795713424683

$$$$
29
                    3D
 Structure written by MMmdl.
177186  0  0  1  0            999 V2000
  -30.7854  -14.3242   20.7353 C   0  0  0  0  0  0
  -30.4155  -12.2945   19.3767 C   0  0  0  0  0  0
  -29.4764  -12.5347   18.1830 C   0  0  0  0  0  0
  -28.0051  -12.3763   18.6093 C   0  0  0  0  0  0
  -27.6650  -13.1999   19.8777 C   0  0  2  0  0  0
  -28.7021  -12.9338   20.9891 C   0  0  0  0  0  0
  -25.2606  -13.8154   20.5705 C   0  0  0  0  0  0
  -24.1835  -13.0440   20.9169 C   0  0  0  0  0  0
  -24.6373  -11.6898   20.8711 C   0  0  0  0  0  0
  -23.9035  -10.4288   21.0379 C   0  0  0  0  0  0
  -24.3591   -9.4215   21.9174 C   0  0  0  0  0  0
  -23.6272   -8.2248   22.0753 C   0  0  0  0  0  0
  -22.4260   -8.0269   21.3538 C   0  0  0  0  0  0
  -21.9884   -9.0239   20.4648 C   0  0  0  0  0  0
  -22.7196  -10.2126   20.3044 C   0  0  0  0  0  0
  -21.6840   -6.0728   22.5273 C   0  0  0  0  0  0
  -21.4008   -6.5639   23.8208 C   0  0  0  0  0  0
  -21.3665   -5.6798   24.9174 C   0  0  0  0  0  0
  -21.6037   -4.3059   24.7225 C   0  0  0  0  0  0
  -21.8816   -3.8145   23.4349 C   0  0  0  0  0  0
  -21.9189   -4.6958   22.3402 C   0  0  0  0  0  0
  -22.7858  -13.5242   21.1860 C   0  0  0  0  0  0
  -22.1655   -4.2148   21.0982 F   0  0  0  0  0  0
  -21.5636   -3.4546   25.7742 F   0  0  0  0  0  0
  -30.0478  -13.2192   20.4567 N   0  0  0  0  0  0
  -26.3032  -12.9311   20.3370 N   0  0  0  0  0  0
  -25.9294  -11.6465   20.5716 N   0  0  0  0  0  0
  -22.0501  -12.8225   22.0414 N   0  0  0  0  0  0
  -25.4407  -15.1870   20.4181 N   0  0  0  0  0  0
  -31.7625  -14.6792   20.0653 O   0  0  0  0  0  0
  -21.6627   -6.8863   21.4228 O   0  0  0  0  0  0
  -22.3553  -14.5561   20.6725 O   0  0  0  0  0  0
  -24.6111  -31.8721   23.2159 C   0  0  0  0  0  0
  -25.9032  -32.4835   23.8430 C   0  0  1  0  0  0
  -27.2333  -27.4668   20.0630 C   0  0  0  0  0  0
  -25.5901  -33.8638   24.2354 N   0  0  0  0  0  0
  -23.3963  -30.4997   21.5552 C   0  0  2  0  0  0
  -24.8386  -28.9736   20.1174 C   0  0  0  0  0  0
  -22.7380  -29.4692   22.4995 C   0  0  0  0  0  0
  -18.0263  -28.1366   22.8507 C   0  0  0  0  0  0
  -24.1488  -36.7328   23.2637 C   0  0  0  0  0  0
  -25.9258  -30.8385   21.3730 C   0  0  0  0  0  0
  -25.9973  -29.4763   20.7191 C   0  0  0  0  0  0
  -27.1916  -28.7229   20.7064 C   0  0  0  0  0  0
  -26.0488  -26.9795   19.4557 C   0  0  0  0  0  0
  -24.8564  -27.7186   19.4912 C   0  0  0  0  0  0
  -23.6028  -29.8395   20.1675 C   0  0  0  0  0  0
  -25.4108  -36.3126   24.0339 C   0  0  1  0  0  0
  -20.5847  -28.3673   23.1300 C   0  0  2  0  0  0
  -20.6769  -26.9421   22.5381 C   0  0  0  0  0  0
  -19.5723  -26.6384   21.5207 C   0  0  0  0  0  0
  -18.1918  -26.7895   22.1667 C   0  0  0  0  0  0
  -19.1509  -28.8832   23.2899 C   0  0  0  0  0  0
  -18.9448  -30.1438   23.8910 C   0  0  0  0  0  0
  -17.6452  -30.6587   24.0559 C   0  0  0  0  0  0
  -25.9028  -34.9489   23.5140 C   0  0  0  0  0  0
  -16.5342  -29.9093   23.6321 C   0  0  0  0  0  0
  -16.7250  -28.6499   23.0358 C   0  0  0  0  0  0
  -26.4464  -31.6596   25.0744 C   0  0  0  0  0  0
  -25.3731  -31.3711   26.1490 C   0  0  0  0  0  0
  -27.0293  -30.3031   24.6132 C   0  0  0  0  0  0
  -27.6042  -32.4310   25.7502 C   0  0  0  0  0  0
  -27.5580  -37.1822   24.8460 C   0  0  0  0  0  0
  -21.4111  -29.3057   22.3726 N   0  0  0  0  0  0
  -26.4300  -37.3803   23.9394 N   0  0  0  0  0  0
  -24.6619  -31.0848   22.1050 N   0  0  0  0  0  0
  -23.4170  -28.8220   23.3009 O   0  0  0  0  0  0
  -28.4304  -26.7780   20.0517 O   0  0  0  0  0  0
  -26.5591  -34.8926   22.4703 O   0  0  0  0  0  0
  -23.5312  -32.1470   23.7563 O   0  0  0  0  0  0
  -29.1168  -19.4826   19.7040 C   0  0  0  0  0  0
  -28.0682  -20.2853   21.7269 C   0  0  0  0  0  0
  -28.3831  -20.4170   18.9442 C   0  0  0  0  0  0
  -27.3183  -21.2295   20.9958 C   0  0  0  0  0  0
  -27.4720  -21.3203   19.5749 C   0  0  0  0  0  0
  -28.9669  -19.4111   21.0995 C   0  0  0  0  0  0
  -31.0245  -15.6617   24.1507 C   0  0  0  0  0  0
  -29.6670  -16.1813   23.7003 C   0  0  0  0  0  0
  -31.4135  -14.6392   23.0806 C   0  0  0  0  0  0
  -29.6880  -16.0505   22.1673 C   0  0  1  0  0  0
  -28.6245  -20.4066   17.4386 C   0  0  0  0  0  0
  -26.3791  -22.0970   21.8227 C   0  0  0  0  0  0
  -25.2894  -22.7410   19.0566 C   0  0  0  0  0  0
  -30.2650  -17.2816   21.4249 C   0  0  0  0  0  0
  -27.9732  -24.4005   19.5597 C   0  0  0  0  0  0
  -28.6086  -25.7286   19.0967 C   0  0  0  0  0  0
  -26.7410  -22.3612   18.6897 C   0  0  1  0  0  0
  -30.5264  -14.8673   21.9419 N   0  0  0  0  0  0
  -29.6886  -18.5288   21.9113 N   0  0  0  0  0  0
  -27.5957  -23.5418   18.4077 N   0  3  0  0  0  0
  -31.4569  -12.4079   19.0682 H   0  0  0  0  0  0
  -30.3220  -11.2662   19.7291 H   0  0  0  0  0  0
  -29.7064  -11.8327   17.3794 H   0  0  0  0  0  0
  -29.6444  -13.5324   17.7748 H   0  0  0  0  0  0
  -27.8284  -11.3165   18.7999 H   0  0  0  0  0  0
  -27.3407  -12.6486   17.7897 H   0  0  0  0  0  0
  -27.7252  -14.2544   19.6069 H   0  0  0  0  0  0
  -28.6604  -11.8910   21.3057 H   0  0  0  0  0  0
  -28.4466  -13.5103   21.8771 H   0  0  0  0  0  0
  -25.2737   -9.5700   22.4746 H   0  0  0  0  0  0
  -23.9985   -7.4648   22.7477 H   0  0  0  0  0  0
  -21.0816   -8.8733   19.8965 H   0  0  0  0  0  0
  -22.3633  -10.9654   19.6156 H   0  0  0  0  0  0
  -21.1990   -7.6150   23.9703 H   0  0  0  0  0  0
  -21.1498   -6.0541   25.9081 H   0  0  0  0  0  0
  -22.0593   -2.7603   23.2846 H   0  0  0  0  0  0
  -22.4083  -11.9842   22.4747 H   0  0  0  0  0  0
  -21.1140  -13.1268   22.2672 H   0  0  0  0  0  0
  -24.6899  -15.8552   20.5518 H   0  0  0  0  0  0
  -26.3151  -15.6231   20.1525 H   0  0  0  0  0  0
  -26.7103  -32.5544   23.1193 H   0  0  0  0  0  0
  -25.0043  -33.9803   25.0491 H   0  0  0  0  0  0
  -22.6846  -31.3173   21.4208 H   0  0  0  0  0  0
  -23.3736  -35.9675   23.3316 H   0  0  0  0  0  0
  -24.3587  -36.8924   22.2048 H   0  0  0  0  0  0
  -23.7251  -37.6546   23.6639 H   0  0  0  0  0  0
  -26.0459  -31.6065   20.6086 H   0  0  0  0  0  0
  -26.8124  -30.8833   21.9943 H   0  0  0  0  0  0
  -28.0864  -29.1125   21.1716 H   0  0  0  0  0  0
  -26.0061  -26.0392   18.9329 H   0  0  0  0  0  0
  -23.9658  -27.3264   19.0194 H   0  0  0  0  0  0
  -23.7129  -30.6175   19.4110 H   0  0  0  0  0  0
  -22.7269  -29.2606   19.8692 H   0  0  0  0  0  0
  -25.1282  -36.2008   25.0834 H   0  0  0  0  0  0
  -20.9944  -28.3243   24.1416 H   0  0  0  0  0  0
  -20.5718  -26.2283   23.3568 H   0  0  0  0  0  0
  -21.6628  -26.7498   22.1130 H   0  0  0  0  0  0
  -19.6893  -25.6303   21.1220 H   0  0  0  0  0  0
  -19.6607  -27.3208   20.6743 H   0  0  0  0  0  0
  -17.4153  -26.6573   21.4121 H   0  0  0  0  0  0
  -18.0393  -26.0060   22.9103 H   0  0  0  0  0  0
  -19.7924  -30.7245   24.2293 H   0  0  0  0  0  0
  -17.5016  -31.6274   24.5153 H   0  0  0  0  0  0
  -15.5345  -30.3011   23.7626 H   0  0  0  0  0  0
  -15.8646  -28.0818   22.7080 H   0  0  0  0  0  0
  -24.5872  -30.7103   25.7816 H   0  0  0  0  0  0
  -24.8963  -32.2880   26.4969 H   0  0  0  0  0  0
  -25.8069  -30.8834   27.0228 H   0  0  0  0  0  0
  -26.2853  -29.6802   24.1153 H   0  0  0  0  0  0
  -27.4009  -29.7253   25.4605 H   0  0  0  0  0  0
  -27.8717  -30.4322   23.9331 H   0  0  0  0  0  0
  -27.2659  -33.3587   26.2127 H   0  0  0  0  0  0
  -28.3835  -32.6901   25.0323 H   0  0  0  0  0  0
  -28.0736  -31.8406   26.5379 H   0  0  0  0  0  0
  -28.2608  -38.0107   24.7497 H   0  0  0  0  0  0
  -28.1066  -36.2639   24.6305 H   0  0  0  0  0  0
  -27.2297  -37.1502   25.8863 H   0  0  0  0  0  0
  -20.9271  -29.8803   21.6971 H   0  0  0  0  0  0
  -26.0193  -38.2889   24.1373 H   0  0  0  0  0  0
  -29.8205  -18.8403   19.1952 H   0  0  0  0  0  0
  -27.9514  -20.2336   22.8011 H   0  0  0  0  0  0
  -30.9888  -15.2253   25.1495 H   0  0  0  0  0  0
  -31.7472  -16.4795   24.1662 H   0  0  0  0  0  0
  -29.4544  -17.1789   24.0839 H   0  0  0  0  0  0
  -28.8849  -15.5308   24.0974 H   0  0  0  0  0  0
  -31.2621  -13.6221   23.4412 H   0  0  0  0  0  0
  -32.4631  -14.7413   22.7983 H   0  0  0  0  0  0
  -28.6730  -15.8675   21.8076 H   0  0  0  0  0  0
  -29.4077  -19.6988   17.1622 H   0  0  0  0  0  0
  -28.9395  -21.3842   17.0768 H   0  0  0  0  0  0
  -27.7256  -20.1042   16.9003 H   0  0  0  0  0  0
  -26.5790  -23.1559   21.6897 H   0  0  0  0  0  0
  -26.4972  -21.9049   22.8892 H   0  0  0  0  0  0
  -25.3367  -21.8803   21.5906 H   0  0  0  0  0  0
  -25.2011  -23.4078   19.9107 H   0  0  0  0  0  0
  -24.6940  -21.8486   19.2541 H   0  0  0  0  0  0
  -24.8089  -23.2604   18.2278 H   0  0  0  0  0  0
  -31.3439  -17.3406   21.5778 H   0  0  0  0  0  0
  -30.1130  -17.1470   20.3547 H   0  0  0  0  0  0
  -27.0930  -24.6159   20.1574 H   0  0  0  0  0  0
  -28.6583  -23.8694   20.2213 H   0  0  0  0  0  0
  -28.2230  -26.0534   18.1286 H   0  0  0  0  0  0
  -29.6780  -25.5802   18.9469 H   0  0  0  0  0  0
  -26.6020  -21.8874   17.7195 H   0  0  0  0  0  0
  -29.5169  -18.5763   22.9112 H   0  0  0  0  0  0
  -28.4435  -23.2058   17.9791 H   0  0  0  0  0  0
  -27.1200  -24.0963   17.7131 H   0  0  0  0  0  0
  1 25  1  0  0  0
  1 30  2  0  0  0
  1 88  1  0  0  0
  2  3  1  0  0  0
  2 25  1  0  0  0
  2 91  1  0  0  0
  2 92  1  0  0  0
  3  4  1  0  0  0
  3 93  1  0  0  0
  3 94  1  0  0  0
  4  5  1  0  0  0
  4 95  1  0  0  0
  4 96  1  0  0  0
  5  6  1  0  0  0
  5 26  1  0  0  0
  5 97  1  0  0  0
  6 25  1  0  0  0
  6 98  1  0  0  0
  6 99  1  0  0  0
  7  8  2  0  0  0
  7 26  1  0  0  0
  7 29  1  0  0  0
  8  9  1  0  0  0
  8 22  1  0  0  0
  9 10  1  0  0  0
  9 27  2  0  0  0
 10 11  2  0  0  0
 10 15  1  0  0  0
 11 12  1  0  0  0
 11100  1  0  0  0
 12 13  2  0  0  0
 12101  1  0  0  0
 13 14  1  0  0  0
 13 31  1  0  0  0
 14 15  2  0  0  0
 14102  1  0  0  0
 15103  1  0  0  0
 16 17  2  0  0  0
 16 21  1  0  0  0
 16 31  1  0  0  0
 17 18  1  0  0  0
 17104  1  0  0  0
 18 19  2  0  0  0
 18105  1  0  0  0
 19 20  1  0  0  0
 19 24  1  0  0  0
 20 21  2  0  0  0
 20106  1  0  0  0
 21 23  1  0  0  0
 22 28  1  0  0  0
 22 32  2  0  0  0
 26 27  1  0  0  0
 28107  1  0  0  0
 28108  1  0  0  0
 29109  1  0  0  0
 29110  1  0  0  0
 33 34  1  0  0  0
 33 66  1  0  0  0
 33 70  2  0  0  0
 34 36  1  0  0  0
 34 59  1  0  0  0
 34111  1  0  0  0
 35 44  2  0  0  0
 35 45  1  0  0  0
 35 68  1  0  0  0
 36 56  1  0  0  0
 36112  1  0  0  0
 37 39  1  0  0  0
 37 47  1  0  0  0
 37 66  1  0  0  0
 37113  1  0  0  0
 38 43  2  0  0  0
 38 46  1  0  0  0
 38 47  1  0  0  0
 39 64  1  0  0  0
 39 67  2  0  0  0
 40 52  1  0  0  0
 40 53  2  0  0  0
 40 58  1  0  0  0
 41114  1  0  0  0
 41115  1  0  0  0
 41116  1  0  0  0
 41 48  1  0  0  0
 42 43  1  0  0  0
 42 66  1  0  0  0
 42117  1  0  0  0
 42118  1  0  0  0
 43 44  1  0  0  0
 44119  1  0  0  0
 45 46  2  0  0  0
 45120  1  0  0  0
 46121  1  0  0  0
 47122  1  0  0  0
 47123  1  0  0  0
 48 56  1  0  0  0
 48 65  1  0  0  0
 48124  1  0  0  0
 49 50  1  0  0  0
 49 53  1  0  0  0
 49 64  1  0  0  0
 49125  1  0  0  0
 50 51  1  0  0  0
 50126  1  0  0  0
 50127  1  0  0  0
 51 52  1  0  0  0
 51128  1  0  0  0
 51129  1  0  0  0
 52130  1  0  0  0
 52131  1  0  0  0
 53 54  1  0  0  0
 54 55  2  0  0  0
 54132  1  0  0  0
 55 57  1  0  0  0
 55133  1  0  0  0
 56 69  2  0  0  0
 57 58  2  0  0  0
 57134  1  0  0  0
 58135  1  0  0  0
 59 60  1  0  0  0
 59 61  1  0  0  0
 59 62  1  0  0  0
 60136  1  0  0  0
 60137  1  0  0  0
 60138  1  0  0  0
 61139  1  0  0  0
 61140  1  0  0  0
 61141  1  0  0  0
 62142  1  0  0  0
 62143  1  0  0  0
 62144  1  0  0  0
 63 65  1  0  0  0
 63145  1  0  0  0
 63146  1  0  0  0
 63147  1  0  0  0
 64148  1  0  0  0
 65149  1  0  0  0
 68 86  1  0  0  0
 71 73  2  0  0  0
 71 76  1  0  0  0
 71150  1  0  0  0
 72 74  1  0  0  0
 72 76  2  0  0  0
 72151  1  0  0  0
 73 75  1  0  0  0
 73 81  1  0  0  0
 74 75  2  0  0  0
 74 82  1  0  0  0
 75 87  1  0  0  0
 76 89  1  0  0  0
 77 78  1  0  0  0
 77 79  1  0  0  0
 77152  1  0  0  0
 77153  1  0  0  0
 78 80  1  0  0  0
 78154  1  0  0  0
 78155  1  0  0  0
 79 88  1  0  0  0
 79156  1  0  0  0
 79157  1  0  0  0
 80 84  1  0  0  0
 80 88  1  0  0  0
 80158  1  0  0  0
 81159  1  0  0  0
 81160  1  0  0  0
 81161  1  0  0  0
 82162  1  0  0  0
 82163  1  0  0  0
 82164  1  0  0  0
 83165  1  0  0  0
 83166  1  0  0  0
 83167  1  0  0  0
 83 87  1  0  0  0
 84 89  1  0  0  0
 84168  1  0  0  0
 84169  1  0  0  0
 85 86  1  0  0  0
 85 90  1  0  0  0
 85170  1  0  0  0
 85171  1  0  0  0
 86172  1  0  0  0
 86173  1  0  0  0
 87 90  1  0  0  0
 87174  1  0  0  0
 89175  1  0  0  0
 90176  1  0  0  0
 90177  1  0  0  0
M  CHG  1  90   1
M  ISO  4   1 100  68 101  86 101  88 100
M  END
> <chiral flag>
0

> <version>
0

> <s_m_source_file>
/data/baiqing/PycharmProjects/Reinvent-master-3.2/result/LINK_invent/BTK/process_docking_weight1_custom_sum_contain_oxygen_bond_distance_aromatic_linkinvent_7_9_3/rearranged_h_0151.sdf

> <i_m_source_file_index>
30

> <r_mmod_Potential_Energy-OPLS-2005>
50.4620475769043

> <r_mmod_Stretch_Energy-OPLS-2005>
39.1569023132324

> <r_mmod_Bend_Energy-OPLS-2005>
144.216125488281

> <r_mmod_Torsional_Energy-OPLS-2005>
349.589111328125

> <r_mmod_Improper_Torsional_Energy-OPLS-2005>
7.46643304824829

> <r_mmod_Van_der_Waal_Energy-OPLS-2005>
163.931884765625

> <r_mmod_Electrostatic_Energy-OPLS-2005>
-229.415481567383

> <r_mmod_Solvation_Energy-OPLS-2005>
-433.137756347656

> <b_mmod_Minimization_Converged-OPLS-2005>
0

> <r_mmod_RMS_Derivative-OPLS-2005>
2.10276556015015

$$$$
30
                    3D
 Structure written by MMmdl.
176185  0  0  1  0            999 V2000
  -30.4135  -14.3608   20.9271 C   0  0  0  0  0  0
  -30.6713  -12.3514   19.4051 C   0  0  0  0  0  0
  -29.7866  -12.4473   18.1169 C   0  0  0  0  0  0
  -28.2950  -12.2021   18.3666 C   0  0  0  0  0  0
  -27.9902  -13.0015   19.5819 C   0  0  2  0  0  0
  -28.7889  -12.5294   20.7798 C   0  0  0  0  0  0
  -26.0001  -14.5034   20.3840 C   0  0  0  0  0  0
  -24.0125  -13.6652   21.3114 C   0  0  0  0  0  0
  -24.3660  -11.9205   20.9512 C   0  0  0  0  0  0
  -23.7114  -10.5963   21.1159 C   0  0  0  0  0  0
  -24.2639   -9.5693   21.9321 C   0  0  0  0  0  0
  -23.6189   -8.3125   22.0610 C   0  0  0  0  0  0
  -22.4211   -8.0608   21.3494 C   0  0  0  0  0  0
  -21.9362   -9.0459   20.4704 C   0  0  0  0  0  0
  -22.5725  -10.2942   20.3531 C   0  0  0  0  0  0
  -21.7065   -6.0805   22.5217 C   0  0  0  0  0  0
  -21.4165   -6.5720   23.8139 C   0  0  0  0  0  0
  -21.3696   -5.6871   24.9102 C   0  0  0  0  0  0
  -21.6035   -4.3119   24.7189 C   0  0  0  0  0  0
  -21.8796   -3.8191   23.4318 C   0  0  0  0  0  0
  -21.9272   -4.7003   22.3372 C   0  0  0  0  0  0
  -22.5572  -13.9186   21.5328 C   0  0  0  0  0  0
  -22.1704   -4.2153   21.0961 F   0  0  0  0  0  0
  -21.5564   -3.4603   25.7705 F   0  0  0  0  0  0
  -30.0810  -13.1005   20.5420 N   0  0  0  0  0  0
  -26.6760  -13.0522   19.8934 N   0  0  0  0  0  0
  -25.7933  -11.7139   20.2302 N   0  0  0  0  0  0
  -21.9488  -12.9935   22.2622 N   0  0  0  0  0  0
  -26.7080  -15.6178   19.9982 N   0  0  0  0  0  0
  -31.4282  -14.8850   20.4250 O   0  0  0  0  0  0
  -21.7038   -6.8876   21.4103 O   0  0  0  0  0  0
  -21.9119  -14.7644   20.9401 O   0  0  0  0  0  0
  -24.6549  -31.8414   23.1889 C   0  0  0  0  0  0
  -25.9304  -32.4649   23.8270 C   0  0  1  0  0  0
  -26.9208  -26.9371   20.1939 C   0  0  0  0  0  0
  -25.6050  -33.8470   24.2160 N   0  0  0  0  0  0
  -23.4445  -30.4856   21.5412 C   0  0  2  0  0  0
  -24.8390  -28.9139   20.0808 C   0  0  0  0  0  0
  -22.7559  -29.4590   22.4800 C   0  0  0  0  0  0
  -18.0298  -28.1395   22.8468 C   0  0  0  0  0  0
  -24.1484  -36.7217   23.2644 C   0  0  0  0  0  0
  -26.0148  -30.6501   21.4105 C   0  0  0  0  0  0
  -26.0288  -29.2553   20.7382 C   0  0  0  0  0  0
  -27.0999  -28.2724   20.7809 C   0  0  0  0  0  0
  -25.7740  -26.7657   19.4281 C   0  0  0  0  0  0
  -24.7372  -27.7010   19.3961 C   0  0  0  0  0  0
  -23.6582  -29.8623   20.1416 C   0  0  0  0  0  0
  -25.4128  -36.3010   24.0308 C   0  0  1  0  0  0
  -20.5915  -28.3722   23.1202 C   0  0  2  0  0  0
  -20.6791  -26.9423   22.5376 C   0  0  0  0  0  0
  -19.5763  -26.6374   21.5191 C   0  0  0  0  0  0
  -18.1943  -26.7931   22.1612 C   0  0  0  0  0  0
  -19.1558  -28.8871   23.2836 C   0  0  0  0  0  0
  -18.9480  -30.1466   23.8863 C   0  0  0  0  0  0
  -17.6482  -30.6594   24.0549 C   0  0  0  0  0  0
  -25.9111  -34.9388   23.5032 C   0  0  0  0  0  0
  -16.5366  -29.9089   23.6342 C   0  0  0  0  0  0
  -16.7282  -28.6506   23.0365 C   0  0  0  0  0  0
  -26.4566  -31.6568   25.0758 C   0  0  0  0  0  0
  -25.3716  -31.3806   26.1429 C   0  0  0  0  0  0
  -27.0456  -30.2950   24.6447 C   0  0  0  0  0  0
  -27.6074  -32.4357   25.7564 C   0  0  0  0  0  0
  -27.5575  -37.1767   24.8469 C   0  0  0  0  0  0
  -21.4246  -29.3072   22.3569 N   0  0  0  0  0  0
  -26.4279  -37.3738   23.9420 N   0  0  0  0  0  0
  -24.7285  -31.0183   22.0993 N   0  0  0  0  0  0
  -23.4208  -28.8099   23.2914 O   0  0  0  0  0  0
  -27.6626  -25.7045   20.2997 O   0  0  0  0  0  0
  -26.5682  -34.8898   22.4603 O   0  0  0  0  0  0
  -23.5658  -32.1425   23.7031 O   0  0  0  0  0  0
  -24.9804  -15.9445   22.1025 C   0  0  0  0  0  0
  -25.9370  -13.1962   22.0507 C   0  0  0  0  0  0
  -24.3042  -16.3004   20.6240 C   0  0  0  0  0  0
  -25.8548  -14.6846   22.7430 C   0  0  0  0  0  0
  -23.9927  -15.1927   19.3380 C   0  0  0  0  0  0
  -24.5045  -13.5227   19.2645 C   0  0  0  0  0  0
  -24.3147  -19.2374   21.2871 C   0  0  0  0  0  0
  -26.0048  -18.5606   19.8399 C   0  0  0  0  0  0
  -24.6102  -20.8334   20.8644 C   0  0  0  0  0  0
  -26.3461  -20.1429   19.4755 C   0  0  0  0  0  0
  -24.5407  -17.9955   20.2593 C   0  0  1  0  0  0
  -23.3589  -15.7474   18.0807 C   0  0  0  0  0  0
  -24.6789  -11.5526   17.7042 C   0  0  0  0  0  0
  -27.2062  -15.1400   23.4365 C   0  0  0  0  0  0
  -28.7359  -14.7066   23.0087 C   0  0  0  0  0  0
  -26.3472  -22.8368   19.9021 C   0  0  0  0  0  0
  -26.9722  -24.2747   20.7205 C   0  0  0  0  0  0
  -29.4587  -15.0427   21.6911 N   0  0  0  0  0  0
  -26.0227  -21.2967   20.4434 N   0  3  1  0  0  0
  -24.1335  -12.7970   18.1287 O   0  0  0  0  0  0
  -31.6778  -12.7095   19.1831 H   0  0  0  0  0  0
  -30.8026  -11.3072   19.6939 H   0  0  0  0  0  0
  -30.1560  -11.7572   17.3576 H   0  0  0  0  0  0
  -29.9119  -13.4436   17.6902 H   0  0  0  0  0  0
  -28.0810  -11.1435   18.5197 H   0  0  0  0  0  0
  -27.7200  -12.5470   17.5072 H   0  0  0  0  0  0
  -28.2803  -14.0085   19.3002 H   0  0  0  0  0  0
  -28.8441  -11.4395   20.7967 H   0  0  0  0  0  0
  -28.3526  -12.7360   21.7252 H   0  0  0  0  0  0
  -25.1754   -9.7622   22.4790 H   0  0  0  0  0  0
  -24.0428   -7.5596   22.7091 H   0  0  0  0  0  0
  -21.0451   -8.8494   19.8895 H   0  0  0  0  0  0
  -22.1636  -11.0389   19.6829 H   0  0  0  0  0  0
  -21.2212   -7.6242   23.9641 H   0  0  0  0  0  0
  -21.1499   -6.0613   25.8995 H   0  0  0  0  0  0
  -22.0511   -2.7646   23.2809 H   0  0  0  0  0  0
  -22.4748  -12.2702   22.7292 H   0  0  0  0  0  0
  -20.9496  -13.0449   22.4010 H   0  0  0  0  0  0
  -26.2779  -16.5222   20.1180 H   0  0  0  0  0  0
  -27.5292  -15.6166   19.4129 H   0  0  0  0  0  0
  -26.7334  -32.5137   23.0946 H   0  0  0  0  0  0
  -25.0217  -33.9592   25.0316 H   0  0  0  0  0  0
  -22.7518  -31.3204   21.4097 H   0  0  0  0  0  0
  -23.3777  -35.9517   23.3283 H   0  0  0  0  0  0
  -24.3568  -36.8880   22.2065 H   0  0  0  0  0  0
  -23.7186  -37.6378   23.6704 H   0  0  0  0  0  0
  -26.2129  -31.3990   20.6424 H   0  0  0  0  0  0
  -26.8776  -30.6728   22.0640 H   0  0  0  0  0  0
  -27.9901  -28.4864   21.3564 H   0  0  0  0  0  0
  -25.6123  -25.8301   18.9122 H   0  0  0  0  0  0
  -23.8339  -27.4554   18.8548 H   0  0  0  0  0  0
  -23.8311  -30.6601   19.4181 H   0  0  0  0  0  0
  -22.7521  -29.3564   19.8051 H   0  0  0  0  0  0
  -25.1308  -36.1839   25.0799 H   0  0  0  0  0  0
  -21.0007  -28.3310   24.1324 H   0  0  0  0  0  0
  -20.5665  -26.2347   23.3603 H   0  0  0  0  0  0
  -21.6664  -26.7430   22.1183 H   0  0  0  0  0  0
  -19.6936  -25.6273   21.1260 H   0  0  0  0  0  0
  -19.6703  -27.3148   20.6691 H   0  0  0  0  0  0
  -17.4205  -26.6643   21.4027 H   0  0  0  0  0  0
  -18.0365  -26.0080   22.9022 H   0  0  0  0  0  0
  -19.7954  -30.7285   24.2222 H   0  0  0  0  0  0
  -17.5038  -31.6273   24.5153 H   0  0  0  0  0  0
  -15.5368  -30.2989   23.7692 H   0  0  0  0  0  0
  -15.8673  -28.0816   22.7121 H   0  0  0  0  0  0
  -24.5890  -30.7163   25.7745 H   0  0  0  0  0  0
  -24.8934  -32.3017   26.4779 H   0  0  0  0  0  0
  -25.7988  -30.9030   27.0257 H   0  0  0  0  0  0
  -26.3109  -29.6618   24.1467 H   0  0  0  0  0  0
  -27.4014  -29.7332   25.5091 H   0  0  0  0  0  0
  -27.9048  -30.4160   23.9847 H   0  0  0  0  0  0
  -27.2644  -33.3661   26.2107 H   0  0  0  0  0  0
  -28.3933  -32.6906   25.0438 H   0  0  0  0  0  0
  -28.0698  -31.8516   26.5535 H   0  0  0  0  0  0
  -28.2560  -38.0095   24.7551 H   0  0  0  0  0  0
  -28.1107  -36.2626   24.6255 H   0  0  0  0  0  0
  -27.2311  -37.1356   25.8876 H   0  0  0  0  0  0
  -20.9421  -29.8851   21.6824 H   0  0  0  0  0  0
  -26.0142  -38.2801   24.1436 H   0  0  0  0  0  0
  -25.1822  -16.8547   22.6459 H   0  0  0  0  0  0
  -26.4704  -12.3500   22.4727 H   0  0  0  0  0  0
  -23.2778  -19.1801   21.6173 H   0  0  0  0  0  0
  -24.8967  -19.0429   22.1880 H   0  0  0  0  0  0
  -26.7012  -18.2772   20.6297 H   0  0  0  0  0  0
  -26.3202  -17.9938   18.9627 H   0  0  0  0  0  0
  -24.2981  -21.4707   21.6922 H   0  0  0  0  0  0
  -23.9388  -21.0835   20.0408 H   0  0  0  0  0  0
  -25.8653  -20.3744   18.5234 H   0  0  0  0  0  0
  -27.4153  -20.2045   19.2693 H   0  0  0  0  0  0
  -23.8802  -18.1858   19.4140 H   0  0  0  0  0  0
  -22.6927  -16.5775   18.3079 H   0  0  0  0  0  0
  -22.7704  -14.9783   17.5825 H   0  0  0  0  0  0
  -24.1288  -16.0911   17.3908 H   0  0  0  0  0  0
  -24.3840  -10.7177   18.3363 H   0  0  0  0  0  0
  -25.7590  -11.5801   17.6213 H   0  0  0  0  0  0
  -24.2986  -11.3265   16.7090 H   0  0  0  0  0  0
  -27.0875  -14.8729   24.4867 H   0  0  0  0  0  0
  -27.1976  -16.2287   23.4388 H   0  0  0  0  0  0
  -28.9475  -13.6951   23.3508 H   0  0  0  0  0  0
  -29.3450  -15.2679   23.7177 H   0  0  0  0  0  0
  -27.0772  -22.6646   19.1092 H   0  0  0  0  0  0
  -25.4484  -23.1505   19.3719 H   0  0  0  0  0  0
  -27.7393  -23.8667   21.3777 H   0  0  0  0  0  0
  -26.1815  -24.5598   21.4147 H   0  0  0  0  0  0
  -29.5732  -16.0406   21.5883 H   0  0  0  0  0  0
  -26.6200  -21.1566   21.2458 H   0  0  0  0  0  0
  1 25  1  0  0  0
  1 30  2  0  0  0
  1 88  1  0  0  0
  2  3  1  0  0  0
  2 25  1  0  0  0
  2 91  1  0  0  0
  2 92  1  0  0  0
  3  4  1  0  0  0
  3 93  1  0  0  0
  3 94  1  0  0  0
  4  5  1  0  0  0
  4 95  1  0  0  0
  4 96  1  0  0  0
  5  6  1  0  0  0
  5 26  1  0  0  0
  5 97  1  0  0  0
  6 25  1  0  0  0
  6 98  1  0  0  0
  6 99  1  0  0  0
  7  8  2  0  0  0
  7 26  1  0  0  0
  7 29  1  0  0  0
  8  9  1  0  0  0
  8 22  1  0  0  0
  9 10  1  0  0  0
  9 27  2  0  0  0
 10 11  2  0  0  0
 10 15  1  0  0  0
 11 12  1  0  0  0
 11100  1  0  0  0
 12 13  2  0  0  0
 12101  1  0  0  0
 13 14  1  0  0  0
 13 31  1  0  0  0
 14 15  2  0  0  0
 14102  1  0  0  0
 15103  1  0  0  0
 16 17  2  0  0  0
 16 21  1  0  0  0
 16 31  1  0  0  0
 17 18  1  0  0  0
 17104  1  0  0  0
 18 19  2  0  0  0
 18105  1  0  0  0
 19 20  1  0  0  0
 19 24  1  0  0  0
 20 21  2  0  0  0
 20106  1  0  0  0
 21 23  1  0  0  0
 22 28  1  0  0  0
 22 32  2  0  0  0
 26 27  1  0  0  0
 28107  1  0  0  0
 28108  1  0  0  0
 29109  1  0  0  0
 29110  1  0  0  0
 33 34  1  0  0  0
 33 66  1  0  0  0
 33 70  2  0  0  0
 34 36  1  0  0  0
 34 59  1  0  0  0
 34111  1  0  0  0
 35 44  2  0  0  0
 35 45  1  0  0  0
 35 68  1  0  0  0
 36 56  1  0  0  0
 36112  1  0  0  0
 37 39  1  0  0  0
 37 47  1  0  0  0
 37 66  1  0  0  0
 37113  1  0  0  0
 38 43  2  0  0  0
 38 46  1  0  0  0
 38 47  1  0  0  0
 39 64  1  0  0  0
 39 67  2  0  0  0
 40 52  1  0  0  0
 40 53  2  0  0  0
 40 58  1  0  0  0
 41114  1  0  0  0
 41115  1  0  0  0
 41116  1  0  0  0
 41 48  1  0  0  0
 42 43  1  0  0  0
 42 66  1  0  0  0
 42117  1  0  0  0
 42118  1  0  0  0
 43 44  1  0  0  0
 44119  1  0  0  0
 45 46  2  0  0  0
 45120  1  0  0  0
 46121  1  0  0  0
 47122  1  0  0  0
 47123  1  0  0  0
 48 56  1  0  0  0
 48 65  1  0  0  0
 48124  1  0  0  0
 49 50  1  0  0  0
 49 53  1  0  0  0
 49 64  1  0  0  0
 49125  1  0  0  0
 50 51  1  0  0  0
 50126  1  0  0  0
 50127  1  0  0  0
 51 52  1  0  0  0
 51128  1  0  0  0
 51129  1  0  0  0
 52130  1  0  0  0
 52131  1  0  0  0
 53 54  1  0  0  0
 54 55  2  0  0  0
 54132  1  0  0  0
 55 57  1  0  0  0
 55133  1  0  0  0
 56 69  2  0  0  0
 57 58  2  0  0  0
 57134  1  0  0  0
 58135  1  0  0  0
 59 60  1  0  0  0
 59 61  1  0  0  0
 59 62  1  0  0  0
 60136  1  0  0  0
 60137  1  0  0  0
 60138  1  0  0  0
 61139  1  0  0  0
 61140  1  0  0  0
 61141  1  0  0  0
 62142  1  0  0  0
 62143  1  0  0  0
 62144  1  0  0  0
 63 65  1  0  0  0
 63145  1  0  0  0
 63146  1  0  0  0
 63147  1  0  0  0
 64148  1  0  0  0
 65149  1  0  0  0
 68 87  1  0  0  0
 71 73  2  0  0  0
 71 74  1  0  0  0
 71150  1  0  0  0
 72 74  2  0  0  0
 72 76  1  0  0  0
 72151  1  0  0  0
 73 75  1  0  0  0
 73 81  1  0  0  0
 74 84  1  0  0  0
 75 76  2  0  0  0
 75 82  1  0  0  0
 76 90  1  0  0  0
 77 79  1  0  0  0
 77 81  1  0  0  0
 77152  1  0  0  0
 77153  1  0  0  0
 78 80  1  0  0  0
 78 81  1  0  0  0
 78154  1  0  0  0
 78155  1  0  0  0
 79 89  1  0  0  0
 79156  1  0  0  0
 79157  1  0  0  0
 80 89  1  0  0  0
 80158  1  0  0  0
 80159  1  0  0  0
 81160  1  0  0  0
 82161  1  0  0  0
 82162  1  0  0  0
 82163  1  0  0  0
 83 90  1  0  0  0
 83164  1  0  0  0
 83165  1  0  0  0
 83166  1  0  0  0
 84 85  1  0  0  0
 84167  1  0  0  0
 84168  1  0  0  0
 85 88  1  0  0  0
 85169  1  0  0  0
 85170  1  0  0  0
 86 87  1  0  0  0
 86171  1  0  0  0
 86172  1  0  0  0
 86 89  1  0  0  0
 87173  1  0  0  0
 87174  1  0  0  0
 88175  1  0  0  0
 89176  1  0  0  0
M  CHG  1  89   1
M  ISO  4   1 100  68 101  87 101  88 100
M  END
> <chiral flag>
0

> <version>
0

> <s_m_source_file>
/data/baiqing/PycharmProjects/Reinvent-master-3.2/result/LINK_invent/BTK/process_docking_weight1_custom_sum_contain_oxygen_bond_distance_aromatic_linkinvent_7_9_3/rearranged_h_0151.sdf

> <i_m_source_file_index>
31

> <r_mmod_Potential_Energy-OPLS-2005>
15885.6728515625

> <r_mmod_Stretch_Energy-OPLS-2005>
10264.1123046875

> <r_mmod_Bend_Energy-OPLS-2005>
795.265747070312

> <r_mmod_Torsional_Energy-OPLS-2005>
448.793762207031

> <r_mmod_Improper_Torsional_Energy-OPLS-2005>
44.3383598327637

> <r_mmod_Van_der_Waal_Energy-OPLS-2005>
4126.1201171875

> <r_mmod_Electrostatic_Energy-OPLS-2005>
-284.607635498047

> <r_mmod_Solvation_Energy-OPLS-2005>
-451.818023681641

> <b_mmod_Minimization_Converged-OPLS-2005>
0

> <r_mmod_RMS_Derivative-OPLS-2005>
4.56041955947876

$$$$
31
                    3D
 Structure written by MMmdl.
166174  0  0  1  0            999 V2000
  -30.6646  -14.4708   20.5937 C   0  0  0  0  0  0
  -30.4355  -12.3101   19.4193 C   0  0  0  0  0  0
  -29.5021  -12.5294   18.2080 C   0  0  0  0  0  0
  -28.0197  -12.3887   18.6120 C   0  0  0  0  0  0
  -27.6712  -13.2016   19.8869 C   0  0  2  0  0  0
  -28.7093  -12.9333   21.0015 C   0  0  0  0  0  0
  -25.2629  -13.8149   20.5679 C   0  0  0  0  0  0
  -24.1859  -13.0436   20.9158 C   0  0  0  0  0  0
  -24.6400  -11.6905   20.8707 C   0  0  0  0  0  0
  -23.9060  -10.4290   21.0388 C   0  0  0  0  0  0
  -24.3617   -9.4212   21.9172 C   0  0  0  0  0  0
  -23.6303   -8.2247   22.0748 C   0  0  0  0  0  0
  -22.4283   -8.0278   21.3546 C   0  0  0  0  0  0
  -21.9911   -9.0251   20.4652 C   0  0  0  0  0  0
  -22.7230  -10.2131   20.3050 C   0  0  0  0  0  0
  -21.6856   -6.0744   22.5283 C   0  0  0  0  0  0
  -21.4007   -6.5652   23.8215 C   0  0  0  0  0  0
  -21.3650   -5.6804   24.9176 C   0  0  0  0  0  0
  -21.6042   -4.3071   24.7234 C   0  0  0  0  0  0
  -21.8811   -3.8159   23.4358 C   0  0  0  0  0  0
  -21.9191   -4.6968   22.3407 C   0  0  0  0  0  0
  -22.7871  -13.5237   21.1835 C   0  0  0  0  0  0
  -22.1661   -4.2151   21.0987 F   0  0  0  0  0  0
  -21.5636   -3.4557   25.7751 F   0  0  0  0  0  0
  -30.0477  -13.2616   20.4725 N   0  0  0  0  0  0
  -26.3069  -12.9316   20.3398 N   0  0  0  0  0  0
  -25.9330  -11.6474   20.5743 N   0  0  0  0  0  0
  -22.0518  -12.8223   22.0399 N   0  0  0  0  0  0
  -25.4402  -15.1864   20.4081 N   0  0  0  0  0  0
  -31.7274  -14.7479   20.0322 O   0  0  0  0  0  0
  -21.6646   -6.8882   21.4247 O   0  0  0  0  0  0
  -22.3554  -14.5543   20.6690 O   0  0  0  0  0  0
  -24.6152  -31.8677   23.2074 C   0  0  0  0  0  0
  -25.9042  -32.4820   23.8388 C   0  0  1  0  0  0
  -27.2449  -27.4168   20.0834 C   0  0  0  0  0  0
  -25.5901  -33.8621   24.2316 N   0  0  0  0  0  0
  -23.4051  -30.4878   21.5498 C   0  0  2  0  0  0
  -24.8503  -28.9491   20.1148 C   0  0  0  0  0  0
  -22.7432  -29.4643   22.5000 C   0  0  0  0  0  0
  -18.0269  -28.1364   22.8497 C   0  0  0  0  0  0
  -24.1483  -36.7312   23.2640 C   0  0  0  0  0  0
  -25.9352  -30.8233   21.3640 C   0  0  0  0  0  0
  -26.0099  -29.4551   20.7121 C   0  0  0  0  0  0
  -27.2027  -28.6934   20.6975 C   0  0  0  0  0  0
  -26.0538  -26.9205   19.5006 C   0  0  0  0  0  0
  -24.8687  -27.6810   19.5093 C   0  0  0  0  0  0
  -23.6123  -29.8168   20.1651 C   0  0  0  0  0  0
  -25.4107  -36.3115   24.0340 C   0  0  1  0  0  0
  -20.5862  -28.3652   23.1321 C   0  0  2  0  0  0
  -20.6748  -26.9394   22.5420 C   0  0  0  0  0  0
  -19.5726  -26.6378   21.5209 C   0  0  0  0  0  0
  -18.1907  -26.7912   22.1630 C   0  0  0  0  0  0
  -19.1521  -28.8826   23.2900 C   0  0  0  0  0  0
  -18.9446  -30.1434   23.8902 C   0  0  0  0  0  0
  -17.6448  -30.6577   24.0552 C   0  0  0  0  0  0
  -25.9041  -34.9480   23.5131 C   0  0  0  0  0  0
  -16.5342  -29.9074   23.6315 C   0  0  0  0  0  0
  -16.7259  -28.6487   23.0350 C   0  0  0  0  0  0
  -26.4449  -31.6609   25.0734 C   0  0  0  0  0  0
  -25.3699  -31.3765   26.1486 C   0  0  0  0  0  0
  -27.0256  -30.3039   24.6126 C   0  0  0  0  0  0
  -27.6056  -32.4313   25.7466 C   0  0  0  0  0  0
  -27.5577  -37.1810   24.8469 C   0  0  0  0  0  0
  -21.4157  -29.3024   22.3745 N   0  0  0  0  0  0
  -26.4291  -37.3800   23.9412 N   0  0  0  0  0  0
  -24.6702  -31.0759   22.0978 N   0  0  0  0  0  0
  -23.4208  -28.8192   23.3045 O   0  0  0  0  0  0
  -28.4439  -26.7191   20.1002 O   0  0  0  0  0  0
  -26.5614  -34.8938   22.4693 O   0  0  0  0  0  0
  -23.5341  -32.1442   23.7448 O   0  0  0  0  0  0
  -29.7926  -21.5377   20.9454 C   0  0  0  0  0  0
  -29.4003  -20.8481   18.6662 C   0  0  0  0  0  0
  -30.2379  -20.2278   21.2615 C   0  0  0  0  0  0
  -29.8183  -19.5259   18.9576 C   0  0  0  0  0  0
  -30.2582  -19.1978   20.2749 C   0  0  0  0  0  0
  -29.3759  -21.8691   19.6358 C   0  0  0  0  0  0
  -30.7026  -19.9559   22.6846 C   0  0  0  0  0  0
  -30.7431  -18.8772   16.6821 C   0  0  0  0  0  0
  -28.3423  -18.3046   17.2897 C   0  0  0  0  0  0
  -30.7572  -17.7736   20.6310 C   0  0  0  0  0  0
  -29.6030  -16.7613   20.8485 C   0  0  0  0  0  0
  -28.6496  -25.5322   19.3042 C   0  0  0  0  0  0
  -28.8102  -24.2203   20.1237 C   0  0  0  0  0  0
  -29.7755  -18.5019   17.8155 C   0  0  0  0  0  0
  -29.9435  -15.3873   21.2655 N   0  0  0  0  0  0
  -28.9539  -23.1211   19.2109 O   0  0  0  0  0  0
  -31.4784  -12.4283   19.1192 H   0  0  0  0  0  0
  -30.3482  -11.2870   19.7885 H   0  0  0  0  0  0
  -29.7432  -11.8224   17.4134 H   0  0  0  0  0  0
  -29.6730  -13.5233   17.7906 H   0  0  0  0  0  0
  -27.8181  -11.3315   18.7816 H   0  0  0  0  0  0
  -27.3735  -12.6937   17.7871 H   0  0  0  0  0  0
  -27.7295  -14.2561   19.6173 H   0  0  0  0  0  0
  -28.6832  -11.8832   21.2950 H   0  0  0  0  0  0
  -28.4575  -13.4849   21.9083 H   0  0  0  0  0  0
  -25.2760   -9.5706   22.4742 H   0  0  0  0  0  0
  -24.0031   -7.4632   22.7452 H   0  0  0  0  0  0
  -21.0852   -8.8752   19.8956 H   0  0  0  0  0  0
  -22.3678  -10.9665   19.6159 H   0  0  0  0  0  0
  -21.1993   -7.6159   23.9720 H   0  0  0  0  0  0
  -21.1483   -6.0540   25.9081 H   0  0  0  0  0  0
  -22.0600   -2.7625   23.2855 H   0  0  0  0  0  0
  -22.4144  -11.9879   22.4764 H   0  0  0  0  0  0
  -21.1130  -13.1232   22.2628 H   0  0  0  0  0  0
  -24.6851  -15.8543   20.5184 H   0  0  0  0  0  0
  -26.3074  -15.6145   20.1115 H   0  0  0  0  0  0
  -26.7124  -32.5513   23.1162 H   0  0  0  0  0  0
  -25.0038  -33.9778   25.0452 H   0  0  0  0  0  0
  -22.6929  -31.3036   21.4105 H   0  0  0  0  0  0
  -23.3754  -35.9635   23.3302 H   0  0  0  0  0  0
  -24.3580  -36.8921   22.2056 H   0  0  0  0  0  0
  -23.7219  -37.6510   23.6656 H   0  0  0  0  0  0
  -26.0498  -31.5849   20.5915 H   0  0  0  0  0  0
  -26.8236  -30.8793   21.9822 H   0  0  0  0  0  0
  -28.0978  -29.0857   21.1587 H   0  0  0  0  0  0
  -26.0020  -25.9427   19.0480 H   0  0  0  0  0  0
  -23.9734  -27.2804   19.0542 H   0  0  0  0  0  0
  -23.7210  -30.5899   19.4043 H   0  0  0  0  0  0
  -22.7359  -29.2348   19.8725 H   0  0  0  0  0  0
  -25.1276  -36.1985   25.0830 H   0  0  0  0  0  0
  -20.9932  -28.3202   24.1453 H   0  0  0  0  0  0
  -20.5640  -26.2267   23.3605 H   0  0  0  0  0  0
  -21.6621  -26.7425   22.1221 H   0  0  0  0  0  0
  -19.6884  -25.6296   21.1224 H   0  0  0  0  0  0
  -19.6649  -27.3198   20.6752 H   0  0  0  0  0  0
  -17.4179  -26.6663   21.4026 H   0  0  0  0  0  0
  -18.0309  -26.0053   22.9021 H   0  0  0  0  0  0
  -19.7925  -30.7234   24.2284 H   0  0  0  0  0  0
  -17.5009  -31.6255   24.5155 H   0  0  0  0  0  0
  -15.5339  -30.2970   23.7637 H   0  0  0  0  0  0
  -15.8667  -28.0798   22.7066 H   0  0  0  0  0  0
  -24.5830  -30.7159   25.7827 H   0  0  0  0  0  0
  -24.8936  -32.2942   26.4949 H   0  0  0  0  0  0
  -25.8016  -30.8908   27.0245 H   0  0  0  0  0  0
  -26.2799  -29.6831   24.1145 H   0  0  0  0  0  0
  -27.3969  -29.7254   25.4597 H   0  0  0  0  0  0
  -27.8669  -30.4346   23.9315 H   0  0  0  0  0  0
  -27.2735  -33.3647   26.2024 H   0  0  0  0  0  0
  -28.3861  -32.6801   25.0263 H   0  0  0  0  0  0
  -28.0730  -31.8438   26.5378 H   0  0  0  0  0  0
  -28.2622  -38.0081   24.7490 H   0  0  0  0  0  0
  -28.1038  -36.2611   24.6315 H   0  0  0  0  0  0
  -27.2304  -37.1499   25.8876 H   0  0  0  0  0  0
  -20.9337  -29.8768   21.6976 H   0  0  0  0  0  0
  -26.0181  -38.2887   24.1385 H   0  0  0  0  0  0
  -29.7871  -22.2879   21.7226 H   0  0  0  0  0  0
  -29.0827  -21.0944   17.6628 H   0  0  0  0  0  0
  -30.5141  -20.8013   23.3480 H   0  0  0  0  0  0
  -31.7756  -19.7608   22.7044 H   0  0  0  0  0  0
  -30.1868  -19.0915   23.1039 H   0  0  0  0  0  0
  -31.7622  -18.9859   17.0552 H   0  0  0  0  0  0
  -30.4650  -19.8138   16.1982 H   0  0  0  0  0  0
  -30.7601  -18.1053   15.9125 H   0  0  0  0  0  0
  -27.6694  -17.9885   18.0878 H   0  0  0  0  0  0
  -28.3107  -17.5399   16.5129 H   0  0  0  0  0  0
  -27.9338  -19.2189   16.8590 H   0  0  0  0  0  0
  -31.3822  -17.7948   21.5209 H   0  0  0  0  0  0
  -31.4354  -17.4263   19.8527 H   0  0  0  0  0  0
  -28.9938  -16.6857   19.9479 H   0  0  0  0  0  0
  -28.9355  -17.1628   21.6104 H   0  0  0  0  0  0
  -27.9175  -25.3995   18.5115 H   0  0  0  0  0  0
  -29.5835  -25.6956   18.7662 H   0  0  0  0  0  0
  -27.9367  -24.0554   20.7556 H   0  0  0  0  0  0
  -29.6838  -24.3089   20.7713 H   0  0  0  0  0  0
  -30.0982  -17.5253   18.1665 H   0  0  0  0  0  0
  -29.2319  -14.9631   21.8414 H   0  0  0  0  0  0
  1 25  1  0  0  0
  1 30  2  0  0  0
  1 85  1  0  0  0
  2  3  1  0  0  0
  2 25  1  0  0  0
  2 87  1  0  0  0
  2 88  1  0  0  0
  3  4  1  0  0  0
  3 89  1  0  0  0
  3 90  1  0  0  0
  4  5  1  0  0  0
  4 91  1  0  0  0
  4 92  1  0  0  0
  5  6  1  0  0  0
  5 26  1  0  0  0
  5 93  1  0  0  0
  6 25  1  0  0  0
  6 94  1  0  0  0
  6 95  1  0  0  0
  7  8  2  0  0  0
  7 26  1  0  0  0
  7 29  1  0  0  0
  8  9  1  0  0  0
  8 22  1  0  0  0
  9 10  1  0  0  0
  9 27  2  0  0  0
 10 11  2  0  0  0
 10 15  1  0  0  0
 11 12  1  0  0  0
 11 96  1  0  0  0
 12 13  2  0  0  0
 12 97  1  0  0  0
 13 14  1  0  0  0
 13 31  1  0  0  0
 14 15  2  0  0  0
 14 98  1  0  0  0
 15 99  1  0  0  0
 16 17  2  0  0  0
 16 21  1  0  0  0
 16 31  1  0  0  0
 17 18  1  0  0  0
 17100  1  0  0  0
 18 19  2  0  0  0
 18101  1  0  0  0
 19 20  1  0  0  0
 19 24  1  0  0  0
 20 21  2  0  0  0
 20102  1  0  0  0
 21 23  1  0  0  0
 22 28  1  0  0  0
 22 32  2  0  0  0
 26 27  1  0  0  0
 28103  1  0  0  0
 28104  1  0  0  0
 29105  1  0  0  0
 29106  1  0  0  0
 33 34  1  0  0  0
 33 66  1  0  0  0
 33 70  2  0  0  0
 34 36  1  0  0  0
 34 59  1  0  0  0
 34107  1  0  0  0
 35 44  2  0  0  0
 35 45  1  0  0  0
 35 68  1  0  0  0
 36 56  1  0  0  0
 36108  1  0  0  0
 37 39  1  0  0  0
 37 47  1  0  0  0
 37 66  1  0  0  0
 37109  1  0  0  0
 38 43  2  0  0  0
 38 46  1  0  0  0
 38 47  1  0  0  0
 39 64  1  0  0  0
 39 67  2  0  0  0
 40 52  1  0  0  0
 40 53  2  0  0  0
 40 58  1  0  0  0
 41110  1  0  0  0
 41111  1  0  0  0
 41112  1  0  0  0
 41 48  1  0  0  0
 42 43  1  0  0  0
 42 66  1  0  0  0
 42113  1  0  0  0
 42114  1  0  0  0
 43 44  1  0  0  0
 44115  1  0  0  0
 45 46  2  0  0  0
 45116  1  0  0  0
 46117  1  0  0  0
 47118  1  0  0  0
 47119  1  0  0  0
 48 56  1  0  0  0
 48 65  1  0  0  0
 48120  1  0  0  0
 49 50  1  0  0  0
 49 53  1  0  0  0
 49 64  1  0  0  0
 49121  1  0  0  0
 50 51  1  0  0  0
 50122  1  0  0  0
 50123  1  0  0  0
 51 52  1  0  0  0
 51124  1  0  0  0
 51125  1  0  0  0
 52126  1  0  0  0
 52127  1  0  0  0
 53 54  1  0  0  0
 54 55  2  0  0  0
 54128  1  0  0  0
 55 57  1  0  0  0
 55129  1  0  0  0
 56 69  2  0  0  0
 57 58  2  0  0  0
 57130  1  0  0  0
 58131  1  0  0  0
 59 60  1  0  0  0
 59 61  1  0  0  0
 59 62  1  0  0  0
 60132  1  0  0  0
 60133  1  0  0  0
 60134  1  0  0  0
 61135  1  0  0  0
 61136  1  0  0  0
 61137  1  0  0  0
 62138  1  0  0  0
 62139  1  0  0  0
 62140  1  0  0  0
 63 65  1  0  0  0
 63141  1  0  0  0
 63142  1  0  0  0
 63143  1  0  0  0
 64144  1  0  0  0
 65145  1  0  0  0
 68 82  1  0  0  0
 71 73  2  0  0  0
 71 76  1  0  0  0
 71146  1  0  0  0
 72 74  1  0  0  0
 72 76  2  0  0  0
 72147  1  0  0  0
 73 75  1  0  0  0
 73 77  1  0  0  0
 74 75  2  0  0  0
 74 84  1  0  0  0
 75 80  1  0  0  0
 76 86  1  0  0  0
 77148  1  0  0  0
 77149  1  0  0  0
 77150  1  0  0  0
 78151  1  0  0  0
 78152  1  0  0  0
 78153  1  0  0  0
 78 84  1  0  0  0
 79 84  1  0  0  0
 79154  1  0  0  0
 79155  1  0  0  0
 79156  1  0  0  0
 80 81  1  0  0  0
 80157  1  0  0  0
 80158  1  0  0  0
 81 85  1  0  0  0
 81159  1  0  0  0
 81160  1  0  0  0
 82 83  1  0  0  0
 82161  1  0  0  0
 82162  1  0  0  0
 83 86  1  0  0  0
 83163  1  0  0  0
 83164  1  0  0  0
 84165  1  0  0  0
 85166  1  0  0  0
M  ISO  4   1 100  68 101  82 101  85 100
M  END
> <chiral flag>
0

> <version>
0

> <s_m_source_file>
/data/baiqing/PycharmProjects/Reinvent-master-3.2/result/LINK_invent/BTK/process_docking_weight1_custom_sum_contain_oxygen_bond_distance_aromatic_linkinvent_7_9_3/rearranged_h_0151.sdf

> <i_m_source_file_index>
32

> <r_mmod_Potential_Energy-OPLS-2005>
-57.2805252075195

> <r_mmod_Stretch_Energy-OPLS-2005>
45.6131858825684

> <r_mmod_Bend_Energy-OPLS-2005>
129.948883056641

> <r_mmod_Torsional_Energy-OPLS-2005>
210.132873535156

> <r_mmod_Improper_Torsional_Energy-OPLS-2005>
5.69687461853027

> <r_mmod_Van_der_Waal_Energy-OPLS-2005>
153.921813964844

> <r_mmod_Electrostatic_Energy-OPLS-2005>
-406.518798828125

> <r_mmod_Solvation_Energy-OPLS-2005>
-209.956085205078

> <b_mmod_Minimization_Converged-OPLS-2005>
0

> <r_mmod_RMS_Derivative-OPLS-2005>
2.0296003818512

$$$$
32
                    3D
 Structure written by MMmdl.
169178  0  0  1  0            999 V2000
  -30.6902  -14.4252   20.6323 C   0  0  0  0  0  0
  -30.4238  -12.2975   19.4100 C   0  0  0  0  0  0
  -29.4921  -12.5395   18.2028 C   0  0  0  0  0  0
  -28.0074  -12.4013   18.6052 C   0  0  0  0  0  0
  -27.6653  -13.1948   19.8952 C   0  0  2  0  0  0
  -28.7055  -12.8940   20.9959 C   0  0  0  0  0  0
  -25.2590  -13.8130   20.5749 C   0  0  0  0  0  0
  -24.1818  -13.0428   20.9191 C   0  0  0  0  0  0
  -24.6340  -11.6893   20.8719 C   0  0  0  0  0  0
  -23.9004  -10.4293   21.0406 C   0  0  0  0  0  0
  -24.3563   -9.4228   21.9194 C   0  0  0  0  0  0
  -23.6267   -8.2249   22.0766 C   0  0  0  0  0  0
  -22.4274   -8.0270   21.3533 C   0  0  0  0  0  0
  -21.9887   -9.0239   20.4646 C   0  0  0  0  0  0
  -22.7193  -10.2125   20.3064 C   0  0  0  0  0  0
  -21.6835   -6.0724   22.5292 C   0  0  0  0  0  0
  -21.4020   -6.5640   23.8224 C   0  0  0  0  0  0
  -21.3673   -5.6791   24.9179 C   0  0  0  0  0  0
  -21.6065   -4.3054   24.7230 C   0  0  0  0  0  0
  -21.8807   -3.8145   23.4351 C   0  0  0  0  0  0
  -21.9187   -4.6958   22.3406 C   0  0  0  0  0  0
  -22.7835  -13.5233   21.1830 C   0  0  0  0  0  0
  -22.1635   -4.2155   21.0965 F   0  0  0  0  0  0
  -21.5644   -3.4532   25.7734 F   0  0  0  0  0  0
  -30.0362  -13.2431   20.4689 N   0  0  0  0  0  0
  -26.3030  -12.9276   20.3485 N   0  0  0  0  0  0
  -25.9275  -11.6448   20.5791 N   0  0  0  0  0  0
  -22.0450  -12.8239   22.0397 N   0  0  0  0  0  0
  -25.4283  -15.1852   20.4202 N   0  0  0  0  0  0
  -31.7924  -14.6486   20.1188 O   0  0  0  0  0  0
  -21.6629   -6.8885   21.4263 O   0  0  0  0  0  0
  -22.3536  -14.5535   20.6668 O   0  0  0  0  0  0
  -24.6074  -31.8700   23.2072 C   0  0  0  0  0  0
  -25.8981  -32.4825   23.8319 C   0  0  1  0  0  0
  -27.2456  -27.4866   20.1044 C   0  0  0  0  0  0
  -25.5868  -33.8632   24.2312 N   0  0  0  0  0  0
  -23.3888  -30.4921   21.5504 C   0  0  2  0  0  0
  -24.8372  -28.9504   20.1249 C   0  0  0  0  0  0
  -22.7343  -29.4685   22.5040 C   0  0  0  0  0  0
  -18.0278  -28.1404   22.8502 C   0  0  0  0  0  0
  -24.1491  -36.7339   23.2685 C   0  0  0  0  0  0
  -25.9017  -30.8648   21.3317 C   0  0  0  0  0  0
  -25.9902  -29.4887   20.7111 C   0  0  0  0  0  0
  -27.1941  -28.7592   20.7105 C   0  0  0  0  0  0
  -26.0833  -26.9572   19.5035 C   0  0  0  0  0  0
  -24.8724  -27.6788   19.5240 C   0  0  0  0  0  0
  -23.5898  -29.8051   20.1698 C   0  0  0  0  0  0
  -25.4117  -36.3129   24.0365 C   0  0  1  0  0  0
  -20.5839  -28.3658   23.1389 C   0  0  2  0  0  0
  -20.6764  -26.9405   22.5490 C   0  0  0  0  0  0
  -19.5780  -26.6422   21.5245 C   0  0  0  0  0  0
  -18.1921  -26.7978   22.1589 C   0  0  0  0  0  0
  -19.1519  -28.8845   23.2958 C   0  0  0  0  0  0
  -18.9447  -30.1434   23.8986 C   0  0  0  0  0  0
  -17.6460  -30.6599   24.0601 C   0  0  0  0  0  0
  -25.9042  -34.9468   23.5145 C   0  0  0  0  0  0
  -16.5353  -29.9119   23.6325 C   0  0  0  0  0  0
  -16.7270  -28.6545   23.0327 C   0  0  0  0  0  0
  -26.4510  -31.6541   25.0548 C   0  0  0  0  0  0
  -25.3881  -31.3553   26.1370 C   0  0  0  0  0  0
  -27.0351  -30.3024   24.5756 C   0  0  0  0  0  0
  -27.6179  -32.4238   25.7215 C   0  0  0  0  0  0
  -27.5613  -37.1795   24.8451 C   0  0  0  0  0  0
  -21.4065  -29.3014   22.3772 N   0  0  0  0  0  0
  -26.4325  -37.3796   23.9411 N   0  0  0  0  0  0
  -24.6537  -31.0872   22.0933 N   0  0  0  0  0  0
  -23.4136  -28.8251   23.3095 O   0  0  0  0  0  0
  -28.4116  -26.7677   20.0243 O   0  0  0  0  0  0
  -26.5627  -34.8961   22.4721 O   0  0  0  0  0  0
  -23.5279  -32.1406   23.7531 O   0  0  0  0  0  0
  -27.6901  -21.9169   20.5208 C   0  0  0  0  0  0
  -27.6973  -20.6431   21.0208 C   0  0  0  0  0  0
  -28.8246  -20.5917   21.8989 C   0  0  0  0  0  0
  -29.4086  -21.8286   21.9835 C   0  0  0  0  0  0
  -29.8235  -17.0717   22.9637 C   0  0  0  0  0  0
  -29.8239  -17.9600   20.6522 C   0  0  0  0  0  0
  -29.4704  -15.6661   22.4359 C   0  0  0  0  0  0
  -29.5771  -16.5432   20.0981 C   0  0  0  0  0  0
  -29.1909  -18.1271   22.0486 C   0  0  0  0  0  0
  -26.7086  -19.5639   20.6628 C   0  0  0  0  0  0
  -30.5929  -22.2952   22.7712 C   0  0  0  0  0  0
  -28.6423  -25.0888   21.7308 C   0  0  0  0  0  0
  -29.0497  -24.0148   20.7045 C   0  0  0  0  0  0
  -29.0719  -26.4841   21.2559 C   0  0  0  0  0  0
  -28.7236  -22.6479   21.0883 N   0  0  0  0  0  0
  -29.9081  -15.4598   21.0394 N   0  0  0  0  0  0
  -29.3137  -19.4753   22.5972 N   0  0  0  0  0  0
  -31.4707  -12.3982   19.1204 H   0  0  0  0  0  0
  -30.3182  -11.2719   19.7642 H   0  0  0  0  0  0
  -29.7301  -11.8425   17.3987 H   0  0  0  0  0  0
  -29.6694  -13.5371   17.7978 H   0  0  0  0  0  0
  -27.7951  -11.3402   18.7486 H   0  0  0  0  0  0
  -27.3653  -12.7305   17.7870 H   0  0  0  0  0  0
  -27.7240  -14.2533   19.6478 H   0  0  0  0  0  0
  -28.6815  -11.8319   21.2451 H   0  0  0  0  0  0
  -28.4564  -13.3873   21.9298 H   0  0  0  0  0  0
  -25.2707   -9.5724   22.4776 H   0  0  0  0  0  0
  -23.9992   -7.4647   22.7490 H   0  0  0  0  0  0
  -21.0837   -8.8729   19.8939 H   0  0  0  0  0  0
  -22.3662  -10.9633   19.6171 H   0  0  0  0  0  0
  -21.1999   -7.6150   23.9736 H   0  0  0  0  0  0
  -21.1526   -6.0511   25.9082 H   0  0  0  0  0  0
  -22.0580   -2.7615   23.2830 H   0  0  0  0  0  0
  -22.3998  -11.9880   22.4815 H   0  0  0  0  0  0
  -21.1093  -13.1349   22.2572 H   0  0  0  0  0  0
  -24.6663  -15.8366   20.5635 H   0  0  0  0  0  0
  -26.2841  -15.6410   20.1365 H   0  0  0  0  0  0
  -26.7031  -32.5635   23.1088 H   0  0  0  0  0  0
  -24.9846  -33.9749   25.0335 H   0  0  0  0  0  0
  -22.6730  -31.3050   21.4041 H   0  0  0  0  0  0
  -23.3752  -35.9680   23.3359 H   0  0  0  0  0  0
  -24.3563  -36.8969   22.2100 H   0  0  0  0  0  0
  -23.7256  -37.6546   23.6712 H   0  0  0  0  0  0
  -25.9519  -31.6062   20.5321 H   0  0  0  0  0  0
  -26.8107  -30.9669   21.9076 H   0  0  0  0  0  0
  -28.0846  -29.1883   21.1456 H   0  0  0  0  0  0
  -26.1139  -25.9862   19.0307 H   0  0  0  0  0  0
  -23.9797  -27.2530   19.0870 H   0  0  0  0  0  0
  -23.6644  -30.5648   19.3906 H   0  0  0  0  0  0
  -22.7199  -29.2000   19.9035 H   0  0  0  0  0  0
  -25.1303  -36.1975   25.0860 H   0  0  0  0  0  0
  -20.9940  -28.3256   24.1504 H   0  0  0  0  0  0
  -20.5657  -26.2269   23.3664 H   0  0  0  0  0  0
  -21.6639  -26.7454   22.1292 H   0  0  0  0  0  0
  -19.6946  -25.6339   21.1242 H   0  0  0  0  0  0
  -19.6786  -27.3272   20.6809 H   0  0  0  0  0  0
  -17.4231  -26.6837   21.3923 H   0  0  0  0  0  0
  -18.0222  -26.0078   22.8919 H   0  0  0  0  0  0
  -19.7921  -30.7226   24.2402 H   0  0  0  0  0  0
  -17.5018  -31.6273   24.5200 H   0  0  0  0  0  0
  -15.5350  -30.3042   23.7624 H   0  0  0  0  0  0
  -15.8665  -28.0908   22.6953 H   0  0  0  0  0  0
  -24.5927  -30.7125   25.7589 H   0  0  0  0  0  0
  -24.9281  -32.2682   26.5125 H   0  0  0  0  0  0
  -25.8265  -30.8392   26.9914 H   0  0  0  0  0  0
  -26.2718  -29.6532   24.1451 H   0  0  0  0  0  0
  -27.4921  -29.7485   25.3974 H   0  0  0  0  0  0
  -27.8137  -30.4402   23.8254 H   0  0  0  0  0  0
  -27.2830  -33.3400   26.2115 H   0  0  0  0  0  0
  -28.3721  -32.7030   24.9813 H   0  0  0  0  0  0
  -28.1187  -31.8212   26.4825 H   0  0  0  0  0  0
  -28.2613  -38.0097   24.7456 H   0  0  0  0  0  0
  -28.1095  -36.2617   24.6263 H   0  0  0  0  0  0
  -27.2334  -37.1447   25.8855 H   0  0  0  0  0  0
  -20.9204  -29.8672   21.6940 H   0  0  0  0  0  0
  -26.0227  -38.2884   24.1409 H   0  0  0  0  0  0
  -27.0450  -22.3763   19.7791 H   0  0  0  0  0  0
  -30.9082  -17.1939   23.0100 H   0  0  0  0  0  0
  -29.4483  -17.1797   23.9850 H   0  0  0  0  0  0
  -29.4031  -18.6747   19.9424 H   0  0  0  0  0  0
  -30.8979  -18.1620   20.6821 H   0  0  0  0  0  0
  -28.3818  -15.5566   22.4706 H   0  0  0  0  0  0
  -29.8824  -14.9026   23.1008 H   0  0  0  0  0  0
  -30.1283  -16.4283   19.1611 H   0  0  0  0  0  0
  -28.5220  -16.4417   19.8412 H   0  0  0  0  0  0
  -28.1316  -17.8817   21.9904 H   0  0  0  0  0  0
  -25.8291  -19.9926   20.1772 H   0  0  0  0  0  0
  -26.3721  -19.0379   21.5585 H   0  0  0  0  0  0
  -27.1529  -18.8425   19.9756 H   0  0  0  0  0  0
  -30.8679  -21.5763   23.5419 H   0  0  0  0  0  0
  -30.4012  -23.2355   23.2850 H   0  0  0  0  0  0
  -31.4599  -22.4348   22.1260 H   0  0  0  0  0  0
  -29.1009  -24.8886   22.6962 H   0  0  0  0  0  0
  -27.5640  -25.0714   21.8964 H   0  0  0  0  0  0
  -30.1196  -24.0749   20.4896 H   0  0  0  0  0  0
  -28.5423  -24.2233   19.7594 H   0  0  0  0  0  0
  -30.1485  -26.5099   21.0774 H   0  0  0  0  0  0
  -28.8768  -27.2286   22.0266 H   0  0  0  0  0  0
  -30.0659  -19.6414   23.2615 H   0  0  0  0  0  0
  1 25  1  0  0  0
  1 30  2  0  0  0
  1 86  1  0  0  0
  2  3  1  0  0  0
  2 25  1  0  0  0
  2 88  1  0  0  0
  2 89  1  0  0  0
  3  4  1  0  0  0
  3 90  1  0  0  0
  3 91  1  0  0  0
  4  5  1  0  0  0
  4 92  1  0  0  0
  4 93  1  0  0  0
  5  6  1  0  0  0
  5 26  1  0  0  0
  5 94  1  0  0  0
  6 25  1  0  0  0
  6 95  1  0  0  0
  6 96  1  0  0  0
  7  8  2  0  0  0
  7 26  1  0  0  0
  7 29  1  0  0  0
  8  9  1  0  0  0
  8 22  1  0  0  0
  9 10  1  0  0  0
  9 27  2  0  0  0
 10 11  2  0  0  0
 10 15  1  0  0  0
 11 12  1  0  0  0
 11 97  1  0  0  0
 12 13  2  0  0  0
 12 98  1  0  0  0
 13 14  1  0  0  0
 13 31  1  0  0  0
 14 15  2  0  0  0
 14 99  1  0  0  0
 15100  1  0  0  0
 16 17  2  0  0  0
 16 21  1  0  0  0
 16 31  1  0  0  0
 17 18  1  0  0  0
 17101  1  0  0  0
 18 19  2  0  0  0
 18102  1  0  0  0
 19 20  1  0  0  0
 19 24  1  0  0  0
 20 21  2  0  0  0
 20103  1  0  0  0
 21 23  1  0  0  0
 22 28  1  0  0  0
 22 32  2  0  0  0
 26 27  1  0  0  0
 28104  1  0  0  0
 28105  1  0  0  0
 29106  1  0  0  0
 29107  1  0  0  0
 33 34  1  0  0  0
 33 66  1  0  0  0
 33 70  2  0  0  0
 34 36  1  0  0  0
 34 59  1  0  0  0
 34108  1  0  0  0
 35 44  2  0  0  0
 35 45  1  0  0  0
 35 68  1  0  0  0
 36 56  1  0  0  0
 36109  1  0  0  0
 37 39  1  0  0  0
 37 47  1  0  0  0
 37 66  1  0  0  0
 37110  1  0  0  0
 38 43  2  0  0  0
 38 46  1  0  0  0
 38 47  1  0  0  0
 39 64  1  0  0  0
 39 67  2  0  0  0
 40 52  1  0  0  0
 40 53  2  0  0  0
 40 58  1  0  0  0
 41111  1  0  0  0
 41112  1  0  0  0
 41113  1  0  0  0
 41 48  1  0  0  0
 42 43  1  0  0  0
 42 66  1  0  0  0
 42114  1  0  0  0
 42115  1  0  0  0
 43 44  1  0  0  0
 44116  1  0  0  0
 45 46  2  0  0  0
 45117  1  0  0  0
 46118  1  0  0  0
 47119  1  0  0  0
 47120  1  0  0  0
 48 56  1  0  0  0
 48 65  1  0  0  0
 48121  1  0  0  0
 49 50  1  0  0  0
 49 53  1  0  0  0
 49 64  1  0  0  0
 49122  1  0  0  0
 50 51  1  0  0  0
 50123  1  0  0  0
 50124  1  0  0  0
 51 52  1  0  0  0
 51125  1  0  0  0
 51126  1  0  0  0
 52127  1  0  0  0
 52128  1  0  0  0
 53 54  1  0  0  0
 54 55  2  0  0  0
 54129  1  0  0  0
 55 57  1  0  0  0
 55130  1  0  0  0
 56 69  2  0  0  0
 57 58  2  0  0  0
 57131  1  0  0  0
 58132  1  0  0  0
 59 60  1  0  0  0
 59 61  1  0  0  0
 59 62  1  0  0  0
 60133  1  0  0  0
 60134  1  0  0  0
 60135  1  0  0  0
 61136  1  0  0  0
 61137  1  0  0  0
 61138  1  0  0  0
 62139  1  0  0  0
 62140  1  0  0  0
 62141  1  0  0  0
 63 65  1  0  0  0
 63142  1  0  0  0
 63143  1  0  0  0
 63144  1  0  0  0
 64145  1  0  0  0
 65146  1  0  0  0
 68 84  1  0  0  0
 71 72  2  0  0  0
 71 85  1  0  0  0
 71147  1  0  0  0
 72 73  1  0  0  0
 72 80  1  0  0  0
 73 74  2  0  0  0
 73 87  1  0  0  0
 74 81  1  0  0  0
 74 85  1  0  0  0
 75 77  1  0  0  0
 75 79  1  0  0  0
 75148  1  0  0  0
 75149  1  0  0  0
 76 78  1  0  0  0
 76 79  1  0  0  0
 76150  1  0  0  0
 76151  1  0  0  0
 77 86  1  0  0  0
 77152  1  0  0  0
 77153  1  0  0  0
 78 86  1  0  0  0
 78154  1  0  0  0
 78155  1  0  0  0
 79 87  1  0  0  0
 79156  1  0  0  0
 80157  1  0  0  0
 80158  1  0  0  0
 80159  1  0  0  0
 81160  1  0  0  0
 81161  1  0  0  0
 81162  1  0  0  0
 82 83  1  0  0  0
 82 84  1  0  0  0
 82163  1  0  0  0
 82164  1  0  0  0
 83 85  1  0  0  0
 83165  1  0  0  0
 83166  1  0  0  0
 84167  1  0  0  0
 84168  1  0  0  0
 87169  1  0  0  0
M  ISO  4   1 100  68 101  84 101  86 100
M  END
> <chiral flag>
0

> <version>
0

> <s_m_source_file>
/data/baiqing/PycharmProjects/Reinvent-master-3.2/result/LINK_invent/BTK/process_docking_weight1_custom_sum_contain_oxygen_bond_distance_aromatic_linkinvent_7_9_3/rearranged_h_0151.sdf

> <i_m_source_file_index>
33

> <r_mmod_Potential_Energy-OPLS-2005>
53.4646072387695

> <r_mmod_Stretch_Energy-OPLS-2005>
34.3581657409668

> <r_mmod_Bend_Energy-OPLS-2005>
116.707931518555

> <r_mmod_Torsional_Energy-OPLS-2005>
354.984954833984

> <r_mmod_Improper_Torsional_Energy-OPLS-2005>
12.7330684661865

> <r_mmod_Van_der_Waal_Energy-OPLS-2005>
132.821823120117

> <r_mmod_Electrostatic_Energy-OPLS-2005>
-399.574035644531

> <r_mmod_Solvation_Energy-OPLS-2005>
-206.343719482422

> <b_mmod_Minimization_Converged-OPLS-2005>
0

> <r_mmod_RMS_Derivative-OPLS-2005>
6.99398803710938

$$$$
33
                    3D
 Structure written by MMmdl.
173183  0  0  1  0            999 V2000
  -30.7302  -14.3919   20.5407 C   0  0  0  0  0  0
  -30.4091  -12.2495   19.4064 C   0  0  0  0  0  0
  -29.4862  -12.4933   18.1961 C   0  0  0  0  0  0
  -28.0062  -12.3786   18.6083 C   0  0  0  0  0  0
  -27.6610  -13.2037   19.8782 C   0  0  2  0  0  0
  -28.7068  -12.9757   20.9945 C   0  0  0  0  0  0
  -25.2558  -13.8162   20.5663 C   0  0  0  0  0  0
  -24.1796  -13.0428   20.9136 C   0  0  0  0  0  0
  -24.6369  -11.6906   20.8717 C   0  0  0  0  0  0
  -23.9047  -10.4290   21.0386 C   0  0  0  0  0  0
  -24.3614   -9.4217   21.9166 C   0  0  0  0  0  0
  -23.6296   -8.2248   22.0738 C   0  0  0  0  0  0
  -22.4275   -8.0274   21.3542 C   0  0  0  0  0  0
  -21.9899   -9.0245   20.4644 C   0  0  0  0  0  0
  -22.7218  -10.2118   20.3034 C   0  0  0  0  0  0
  -21.6839   -6.0737   22.5278 C   0  0  0  0  0  0
  -21.4010   -6.5648   23.8204 C   0  0  0  0  0  0
  -21.3641   -5.6805   24.9167 C   0  0  0  0  0  0
  -21.6038   -4.3072   24.7213 C   0  0  0  0  0  0
  -21.8815   -3.8153   23.4338 C   0  0  0  0  0  0
  -21.9172   -4.6966   22.3393 C   0  0  0  0  0  0
  -22.7819  -13.5208   21.1812 C   0  0  0  0  0  0
  -22.1637   -4.2151   21.0966 F   0  0  0  0  0  0
  -21.5638   -3.4553   25.7724 F   0  0  0  0  0  0
  -30.0399  -13.2321   20.4297 N   0  0  0  0  0  0
  -26.3010  -12.9327   20.3420 N   0  0  0  0  0  0
  -25.9308  -11.6492   20.5819 N   0  0  0  0  0  0
  -22.0506  -12.8187   22.0405 N   0  0  0  0  0  0
  -25.4286  -15.1873   20.4040 N   0  0  0  0  0  0
  -31.9090  -14.5191   20.1933 O   0  0  0  0  0  0
  -21.6643   -6.8870   21.4233 O   0  0  0  0  0  0
  -22.3472  -14.5510   20.6678 O   0  0  0  0  0  0
  -24.6082  -31.8713   23.2137 C   0  0  0  0  0  0
  -25.9006  -32.4839   23.8409 C   0  0  1  0  0  0
  -27.2348  -27.4917   20.0884 C   0  0  0  0  0  0
  -25.5892  -33.8637   24.2341 N   0  0  0  0  0  0
  -23.3920  -30.4955   21.5535 C   0  0  2  0  0  0
  -24.8369  -28.9668   20.1160 C   0  0  0  0  0  0
  -22.7372  -29.4677   22.5032 C   0  0  0  0  0  0
  -18.0261  -28.1367   22.8495 C   0  0  0  0  0  0
  -24.1483  -36.7314   23.2631 C   0  0  0  0  0  0
  -25.9140  -30.8561   21.3566 C   0  0  0  0  0  0
  -25.9926  -29.4954   20.7039 C   0  0  0  0  0  0
  -27.1959  -28.7664   20.6820 C   0  0  0  0  0  0
  -26.0647  -26.9596   19.5010 C   0  0  0  0  0  0
  -24.8653  -27.6964   19.5124 C   0  0  0  0  0  0
  -23.5951  -29.8248   20.1678 C   0  0  0  0  0  0
  -25.4099  -36.3121   24.0339 C   0  0  1  0  0  0
  -20.5843  -28.3635   23.1339 C   0  0  2  0  0  0
  -20.6756  -26.9381   22.5418 C   0  0  0  0  0  0
  -19.5736  -26.6379   21.5213 C   0  0  0  0  0  0
  -18.1912  -26.7917   22.1620 C   0  0  0  0  0  0
  -19.1510  -28.8819   23.2918 C   0  0  0  0  0  0
  -18.9446  -30.1437   23.8911 C   0  0  0  0  0  0
  -17.6449  -30.6578   24.0567 C   0  0  0  0  0  0
  -25.9032  -34.9487   23.5140 C   0  0  0  0  0  0
  -16.5337  -29.9080   23.6335 C   0  0  0  0  0  0
  -16.7251  -28.6497   23.0351 C   0  0  0  0  0  0
  -26.4455  -31.6605   25.0714 C   0  0  0  0  0  0
  -25.3755  -31.3701   26.1494 C   0  0  0  0  0  0
  -27.0263  -30.3050   24.6046 C   0  0  0  0  0  0
  -27.6050  -32.4305   25.7463 C   0  0  0  0  0  0
  -27.5596  -37.1783   24.8446 C   0  0  0  0  0  0
  -21.4107  -29.3018   22.3764 N   0  0  0  0  0  0
  -26.4274  -37.3815   23.9445 N   0  0  0  0  0  0
  -24.6561  -31.0869   22.1009 N   0  0  0  0  0  0
  -23.4181  -28.8225   23.3053 O   0  0  0  0  0  0
  -28.4285  -26.8197   20.0945 O   0  0  0  0  0  0
  -26.5590  -34.8932   22.4696 O   0  0  0  0  0  0
  -23.5294  -32.1436   23.7577 O   0  0  0  0  0  0
  -30.4832  -21.0923   23.0542 C   0  0  0  0  0  0
  -28.5649  -20.8427   21.5931 C   0  0  0  0  0  0
  -29.4339  -21.6733   22.3205 C   0  0  0  0  0  0
  -30.0321  -18.9273   21.9915 C   0  0  0  0  0  0
  -30.7816  -19.7221   22.9048 C   0  0  0  0  0  0
  -28.8418  -19.4764   21.4297 C   0  0  0  0  0  0
  -27.9522  -23.7739   22.3192 C   0  0  0  0  0  0
  -29.9362  -23.4891   20.7305 C   0  0  0  0  0  0
  -27.8929  -25.2552   21.9114 C   0  0  0  0  0  0
  -29.8473  -24.9684   20.3632 C   0  0  0  0  0  0
  -30.8068  -17.6026   19.9422 C   0  0  0  0  0  0
  -30.0091  -16.3935   19.4679 C   0  0  0  0  0  0
  -29.9214  -16.3000   21.8334 C   0  0  0  0  0  0
  -29.3680  -23.1805   22.1338 C   0  0  2  0  0  0
  -30.6307  -17.6131   21.4645 C   0  0  2  0  0  0
  -28.3994  -25.4518   20.4649 C   0  0  2  0  0  0
  -31.9749  -19.1716   23.6712 C   0  0  0  0  0  0
  -27.8768  -18.7089   20.5396 C   0  0  0  0  0  0
  -29.9429  -15.4807   20.6142 N   0  0  0  0  0  0
  -31.4553  -12.3232   19.1079 H   0  0  0  0  0  0
  -30.2788  -11.2374   19.7919 H   0  0  0  0  0  0
  -29.7088  -11.7737   17.4072 H   0  0  0  0  0  0
  -29.6775  -13.4806   17.7715 H   0  0  0  0  0  0
  -27.7949  -11.3226   18.7817 H   0  0  0  0  0  0
  -27.3621  -12.6826   17.7826 H   0  0  0  0  0  0
  -27.7053  -14.2531   19.5905 H   0  0  0  0  0  0
  -28.6565  -11.9516   21.3675 H   0  0  0  0  0  0
  -28.5046  -13.6186   21.8528 H   0  0  0  0  0  0
  -25.2754   -9.5704   22.4744 H   0  0  0  0  0  0
  -23.9998   -7.4632   22.7458 H   0  0  0  0  0  0
  -21.0812   -8.8750   19.8971 H   0  0  0  0  0  0
  -22.3673  -10.9640   19.6133 H   0  0  0  0  0  0
  -21.2036   -7.6163   23.9709 H   0  0  0  0  0  0
  -21.1444   -6.0546   25.9064 H   0  0  0  0  0  0
  -22.0624   -2.7618   23.2838 H   0  0  0  0  0  0
  -22.4160  -11.9832   22.4728 H   0  0  0  0  0  0
  -21.1143  -13.1196   22.2712 H   0  0  0  0  0  0
  -24.6641  -15.8473   20.4943 H   0  0  0  0  0  0
  -26.2879  -15.6193   20.0886 H   0  0  0  0  0  0
  -26.7077  -32.5565   23.1183 H   0  0  0  0  0  0
  -25.0079  -33.9820   25.0510 H   0  0  0  0  0  0
  -22.6767  -31.3089   21.4154 H   0  0  0  0  0  0
  -23.3766  -35.9623   23.3249 H   0  0  0  0  0  0
  -24.3594  -36.8967   22.2055 H   0  0  0  0  0  0
  -23.7197  -37.6488   23.6667 H   0  0  0  0  0  0
  -26.0190  -31.6253   20.5905 H   0  0  0  0  0  0
  -26.8054  -30.9082   21.9698 H   0  0  0  0  0  0
  -28.0929  -29.1755   21.1258 H   0  0  0  0  0  0
  -26.0703  -25.9923   19.0204 H   0  0  0  0  0  0
  -23.9768  -27.2841   19.0542 H   0  0  0  0  0  0
  -23.6927  -30.5959   19.4026 H   0  0  0  0  0  0
  -22.7223  -29.2356   19.8798 H   0  0  0  0  0  0
  -25.1266  -36.1979   25.0825 H   0  0  0  0  0  0
  -20.9931  -28.3187   24.1462 H   0  0  0  0  0  0
  -20.5662  -26.2240   23.3598 H   0  0  0  0  0  0
  -21.6631  -26.7442   22.1202 H   0  0  0  0  0  0
  -19.6900  -25.6300   21.1226 H   0  0  0  0  0  0
  -19.6685  -27.3206   20.6759 H   0  0  0  0  0  0
  -17.4190  -26.6674   21.4013 H   0  0  0  0  0  0
  -18.0303  -26.0044   22.9000 H   0  0  0  0  0  0
  -19.7924  -30.7250   24.2275 H   0  0  0  0  0  0
  -17.5005  -31.6264   24.5153 H   0  0  0  0  0  0
  -15.5341  -30.2986   23.7659 H   0  0  0  0  0  0
  -15.8647  -28.0834   22.7047 H   0  0  0  0  0  0
  -24.5905  -30.7064   25.7849 H   0  0  0  0  0  0
  -24.8983  -32.2859   26.4989 H   0  0  0  0  0  0
  -25.8140  -30.8839   27.0220 H   0  0  0  0  0  0
  -26.2775  -29.6817   24.1139 H   0  0  0  0  0  0
  -27.4089  -29.7272   25.4472 H   0  0  0  0  0  0
  -27.8587  -30.4375   23.9132 H   0  0  0  0  0  0
  -27.2692  -33.3604   26.2063 H   0  0  0  0  0  0
  -28.3850  -32.6860   25.0280 H   0  0  0  0  0  0
  -28.0719  -31.8406   26.5361 H   0  0  0  0  0  0
  -28.2543  -38.0152   24.7625 H   0  0  0  0  0  0
  -28.1166  -36.2699   24.6101 H   0  0  0  0  0  0
  -27.2345  -37.1218   25.8848 H   0  0  0  0  0  0
  -20.9259  -29.8740   21.6992 H   0  0  0  0  0  0
  -26.0161  -38.2871   24.1533 H   0  0  0  0  0  0
  -31.1303  -21.7209   23.6521 H   0  0  0  0  0  0
  -27.7407  -21.2703   21.0407 H   0  0  0  0  0  0
  -27.2226  -23.2424   21.7111 H   0  0  0  0  0  0
  -27.6313  -23.6548   23.3539 H   0  0  0  0  0  0
  -30.9734  -23.1565   20.6685 H   0  0  0  0  0  0
  -29.3915  -22.9187   19.9765 H   0  0  0  0  0  0
  -28.4927  -25.8551   22.5974 H   0  0  0  0  0  0
  -26.8667  -25.6099   22.0119 H   0  0  0  0  0  0
  -30.2232  -25.1185   19.3510 H   0  0  0  0  0  0
  -30.4880  -25.5542   21.0238 H   0  0  0  0  0  0
  -30.5080  -18.5271   19.4486 H   0  0  0  0  0  0
  -31.8617  -17.4559   19.6993 H   0  0  0  0  0  0
  -28.9954  -16.6591   19.1778 H   0  0  0  0  0  0
  -30.4599  -15.9573   18.5731 H   0  0  0  0  0  0
  -28.8927  -16.4521   22.1540 H   0  0  0  0  0  0
  -30.4235  -15.8130   22.6710 H   0  0  0  0  0  0
  -30.0218  -23.6497   22.8710 H   0  0  0  0  0  0
  -31.6469  -17.5144   21.8412 H   0  0  0  0  0  0
  -27.7914  -24.8756   19.7657 H   0  0  0  0  0  0
  -32.1980  -19.7787   24.5493 H   0  0  0  0  0  0
  -32.8633  -19.1530   23.0390 H   0  0  0  0  0  0
  -31.7755  -18.1600   24.0250 H   0  0  0  0  0  0
  -26.8767  -19.1388   20.6022 H   0  0  0  0  0  0
  -27.7712  -17.6666   20.8229 H   0  0  0  0  0  0
  -28.1854  -18.7707   19.4963 H   0  0  0  0  0  0
  1 25  1  0  0  0
  1 30  2  0  0  0
  1 89  1  0  0  0
  2  3  1  0  0  0
  2 25  1  0  0  0
  2 90  1  0  0  0
  2 91  1  0  0  0
  3  4  1  0  0  0
  3 92  1  0  0  0
  3 93  1  0  0  0
  4  5  1  0  0  0
  4 94  1  0  0  0
  4 95  1  0  0  0
  5  6  1  0  0  0
  5 26  1  0  0  0
  5 96  1  0  0  0
  6 25  1  0  0  0
  6 97  1  0  0  0
  6 98  1  0  0  0
  7  8  2  0  0  0
  7 26  1  0  0  0
  7 29  1  0  0  0
  8  9  1  0  0  0
  8 22  1  0  0  0
  9 10  1  0  0  0
  9 27  2  0  0  0
 10 11  2  0  0  0
 10 15  1  0  0  0
 11 12  1  0  0  0
 11 99  1  0  0  0
 12 13  2  0  0  0
 12100  1  0  0  0
 13 14  1  0  0  0
 13 31  1  0  0  0
 14 15  2  0  0  0
 14101  1  0  0  0
 15102  1  0  0  0
 16 17  2  0  0  0
 16 21  1  0  0  0
 16 31  1  0  0  0
 17 18  1  0  0  0
 17103  1  0  0  0
 18 19  2  0  0  0
 18104  1  0  0  0
 19 20  1  0  0  0
 19 24  1  0  0  0
 20 21  2  0  0  0
 20105  1  0  0  0
 21 23  1  0  0  0
 22 28  1  0  0  0
 22 32  2  0  0  0
 26 27  1  0  0  0
 28106  1  0  0  0
 28107  1  0  0  0
 29108  1  0  0  0
 29109  1  0  0  0
 33 34  1  0  0  0
 33 66  1  0  0  0
 33 70  2  0  0  0
 34 36  1  0  0  0
 34 59  1  0  0  0
 34110  1  0  0  0
 35 44  2  0  0  0
 35 45  1  0  0  0
 35 68  1  0  0  0
 36 56  1  0  0  0
 36111  1  0  0  0
 37 39  1  0  0  0
 37 47  1  0  0  0
 37 66  1  0  0  0
 37112  1  0  0  0
 38 43  2  0  0  0
 38 46  1  0  0  0
 38 47  1  0  0  0
 39 64  1  0  0  0
 39 67  2  0  0  0
 40 52  1  0  0  0
 40 53  2  0  0  0
 40 58  1  0  0  0
 41113  1  0  0  0
 41114  1  0  0  0
 41115  1  0  0  0
 41 48  1  0  0  0
 42 43  1  0  0  0
 42 66  1  0  0  0
 42116  1  0  0  0
 42117  1  0  0  0
 43 44  1  0  0  0
 44118  1  0  0  0
 45 46  2  0  0  0
 45119  1  0  0  0
 46120  1  0  0  0
 47121  1  0  0  0
 47122  1  0  0  0
 48 56  1  0  0  0
 48 65  1  0  0  0
 48123  1  0  0  0
 49 50  1  0  0  0
 49 53  1  0  0  0
 49 64  1  0  0  0
 49124  1  0  0  0
 50 51  1  0  0  0
 50125  1  0  0  0
 50126  1  0  0  0
 51 52  1  0  0  0
 51127  1  0  0  0
 51128  1  0  0  0
 52129  1  0  0  0
 52130  1  0  0  0
 53 54  1  0  0  0
 54 55  2  0  0  0
 54131  1  0  0  0
 55 57  1  0  0  0
 55132  1  0  0  0
 56 69  2  0  0  0
 57 58  2  0  0  0
 57133  1  0  0  0
 58134  1  0  0  0
 59 60  1  0  0  0
 59 61  1  0  0  0
 59 62  1  0  0  0
 60135  1  0  0  0
 60136  1  0  0  0
 60137  1  0  0  0
 61138  1  0  0  0
 61139  1  0  0  0
 61140  1  0  0  0
 62141  1  0  0  0
 62142  1  0  0  0
 62143  1  0  0  0
 63 65  1  0  0  0
 63144  1  0  0  0
 63145  1  0  0  0
 63146  1  0  0  0
 64147  1  0  0  0
 65148  1  0  0  0
 68 86  1  0  0  0
 71 73  2  0  0  0
 71 75  1  0  0  0
 71149  1  0  0  0
 72 73  1  0  0  0
 72 76  2  0  0  0
 72150  1  0  0  0
 73 84  1  0  0  0
 74 75  2  0  0  0
 74 76  1  0  0  0
 74 85  1  0  0  0
 75 87  1  0  0  0
 76 88  1  0  0  0
 77 79  1  0  0  0
 77 84  1  0  0  0
 77151  1  0  0  0
 77152  1  0  0  0
 78 80  1  0  0  0
 78 84  1  0  0  0
 78153  1  0  0  0
 78154  1  0  0  0
 79 86  1  0  0  0
 79155  1  0  0  0
 79156  1  0  0  0
 80 86  1  0  0  0
 80157  1  0  0  0
 80158  1  0  0  0
 81 82  1  0  0  0
 81 85  1  0  0  0
 81159  1  0  0  0
 81160  1  0  0  0
 82 89  1  0  0  0
 82161  1  0  0  0
 82162  1  0  0  0
 83 85  1  0  0  0
 83 89  1  0  0  0
 83163  1  0  0  0
 83164  1  0  0  0
 84165  1  0  0  0
 85166  1  0  0  0
 86167  1  0  0  0
 87168  1  0  0  0
 87169  1  0  0  0
 87170  1  0  0  0
 88171  1  0  0  0
 88172  1  0  0  0
 88173  1  0  0  0
M  ISO  4   1 100  68 101  86 101  89 100
M  END
> <chiral flag>
0

> <version>
0

> <s_m_source_file>
/data/baiqing/PycharmProjects/Reinvent-master-3.2/result/LINK_invent/BTK/process_docking_weight1_custom_sum_contain_oxygen_bond_distance_aromatic_linkinvent_7_9_3/rearranged_h_0151.sdf

> <i_m_source_file_index>
34

> <r_mmod_Potential_Energy-OPLS-2005>
248.733520507812

> <r_mmod_Stretch_Energy-OPLS-2005>
33.900260925293

> <r_mmod_Bend_Energy-OPLS-2005>
126.063301086426

> <r_mmod_Torsional_Energy-OPLS-2005>
401.874938964844

> <r_mmod_Improper_Torsional_Energy-OPLS-2005>
20.3702564239502

> <r_mmod_Van_der_Waal_Energy-OPLS-2005>
165.67951965332

> <r_mmod_Electrostatic_Energy-OPLS-2005>
-332.458709716797

> <r_mmod_Solvation_Energy-OPLS-2005>
-181.900909423828

> <b_mmod_Minimization_Converged-OPLS-2005>
0

> <r_mmod_RMS_Derivative-OPLS-2005>
2.08949446678162

$$$$
34
                    3D
 Structure written by MMmdl.
160168  0  0  1  0            999 V2000
  -30.6009  -14.8369   20.5048 C   0  0  0  0  0  0
  -30.4391  -12.5243   19.4968 C   0  0  0  0  0  0
  -29.5208  -12.5533   18.2508 C   0  0  0  0  0  0
  -28.0520  -12.3424   18.6620 C   0  0  0  0  0  0
  -27.6470  -13.2407   19.8606 C   0  0  2  0  0  0
  -28.6876  -13.1999   21.0031 C   0  0  0  0  0  0
  -25.2526  -13.8222   20.5701 C   0  0  0  0  0  0
  -24.1802  -13.0488   20.9214 C   0  0  0  0  0  0
  -24.6370  -11.6937   20.8768 C   0  0  0  0  0  0
  -23.9034  -10.4328   21.0438 C   0  0  0  0  0  0
  -24.3579   -9.4258   21.9228 C   0  0  0  0  0  0
  -23.6279   -8.2277   22.0774 C   0  0  0  0  0  0
  -22.4280   -8.0291   21.3554 C   0  0  0  0  0  0
  -21.9906   -9.0279   20.4661 C   0  0  0  0  0  0
  -22.7201  -10.2165   20.3074 C   0  0  0  0  0  0
  -21.6844   -6.0744   22.5296 C   0  0  0  0  0  0
  -21.4004   -6.5643   23.8234 C   0  0  0  0  0  0
  -21.3666   -5.6793   24.9195 C   0  0  0  0  0  0
  -21.6048   -4.3058   24.7231 C   0  0  0  0  0  0
  -21.8816   -3.8152   23.4351 C   0  0  0  0  0  0
  -21.9190   -4.6976   22.3415 C   0  0  0  0  0  0
  -22.7827  -13.5300   21.1838 C   0  0  0  0  0  0
  -22.1667   -4.2157   21.0989 F   0  0  0  0  0  0
  -21.5633   -3.4536   25.7741 F   0  0  0  0  0  0
  -29.9834  -13.5907   20.4361 N   0  0  0  0  0  0
  -26.2955  -12.9425   20.3301 N   0  0  0  0  0  0
  -25.9308  -11.6564   20.5755 N   0  0  0  0  0  0
  -22.0350  -12.8365   22.0330 N   0  0  0  0  0  0
  -25.4335  -15.1941   20.4091 N   0  0  0  0  0  0
  -31.7607  -14.9349   20.0994 O   0  0  0  0  0  0
  -21.6647   -6.8888   21.4250 O   0  0  0  0  0  0
  -22.3559  -14.5620   20.6645 O   0  0  0  0  0  0
  -24.6421  -31.8463   23.1925 C   0  0  0  0  0  0
  -25.9190  -32.4704   23.8298 C   0  0  1  0  0  0
  -27.2356  -27.1521   20.1669 C   0  0  0  0  0  0
  -25.5952  -33.8506   24.2222 N   0  0  0  0  0  0
  -23.4458  -30.4656   21.5376 C   0  0  2  0  0  0
  -24.9012  -28.8946   20.1186 C   0  0  0  0  0  0
  -22.7543  -29.4557   22.4872 C   0  0  0  0  0  0
  -18.0268  -28.1412   22.8480 C   0  0  0  0  0  0
  -24.1461  -36.7241   23.2634 C   0  0  0  0  0  0
  -25.9985  -30.7325   21.3822 C   0  0  0  0  0  0
  -26.0761  -29.3406   20.7352 C   0  0  0  0  0  0
  -27.2358  -28.4799   20.7548 C   0  0  0  0  0  0
  -26.0430  -26.8261   19.4751 C   0  0  0  0  0  0
  -24.8934  -27.6463   19.4809 C   0  0  0  0  0  0
  -23.6757  -29.7931   20.1591 C   0  0  0  0  0  0
  -25.4096  -36.3024   24.0310 C   0  0  1  0  0  0
  -20.5883  -28.3722   23.1252 C   0  0  2  0  0  0
  -20.6743  -26.9422   22.5419 C   0  0  0  0  0  0
  -19.5718  -26.6370   21.5221 C   0  0  0  0  0  0
  -18.1888  -26.7966   22.1597 C   0  0  0  0  0  0
  -19.1529  -28.8887   23.2848 C   0  0  0  0  0  0
  -18.9456  -30.1500   23.8849 C   0  0  0  0  0  0
  -17.6453  -30.6624   24.0539 C   0  0  0  0  0  0
  -25.9051  -34.9396   23.5061 C   0  0  0  0  0  0
  -16.5338  -29.9108   23.6347 C   0  0  0  0  0  0
  -16.7253  -28.6523   23.0375 C   0  0  0  0  0  0
  -26.4518  -31.6538   25.0707 C   0  0  0  0  0  0
  -25.3708  -31.3728   26.1406 C   0  0  0  0  0  0
  -27.0364  -30.2942   24.6231 C   0  0  0  0  0  0
  -27.6054  -32.4267   25.7497 C   0  0  0  0  0  0
  -27.5562  -37.1757   24.8436 C   0  0  0  0  0  0
  -21.4227  -29.3082   22.3651 N   0  0  0  0  0  0
  -26.4251  -37.3748   23.9404 N   0  0  0  0  0  0
  -24.7154  -31.0342   22.0949 N   0  0  0  0  0  0
  -23.4187  -28.8052   23.2983 O   0  0  0  0  0  0
  -28.2903  -26.1726   20.3077 O   0  0  0  0  0  0
  -26.5624  -34.8893   22.4632 O   0  0  0  0  0  0
  -23.5539  -32.1312   23.7161 O   0  0  0  0  0  0
  -29.7631  -22.4953   19.8000 C   0  0  0  0  0  0
  -30.0788  -21.1130   20.1408 C   0  0  0  0  0  0
  -28.7558  -23.3063   20.4343 C   0  0  0  0  0  0
  -28.1295  -22.5963   21.5095 C   0  0  0  0  0  0
  -28.4101  -21.1931   21.8349 C   0  0  0  0  0  0
  -29.3390  -20.3436   21.1029 C   0  0  0  0  0  0
  -31.2941  -20.4694   19.4877 C   0  0  0  0  0  0
  -27.0666  -23.3664   22.2938 C   0  0  0  0  0  0
  -27.6667  -20.6104   23.0440 C   0  0  0  0  0  0
  -28.1663  -24.7147   19.7999 C   0  0  0  0  0  0
  -30.1260  -17.5006   20.5098 C   0  0  0  0  0  0
  -29.5700  -18.7391   21.4708 C   0  0  1  0  0  0
  -29.8693  -15.9897   20.8408 N   0  0  0  0  0  0
  -30.4431  -18.6535   22.5781 O   0  0  0  0  0  0
  -31.4783  -12.6567   19.1904 H   0  0  0  0  0  0
  -30.3971  -11.5436   19.9744 H   0  0  0  0  0  0
  -29.8242  -11.7934   17.5318 H   0  0  0  0  0  0
  -29.6237  -13.5137   17.7418 H   0  0  0  0  0  0
  -27.9288  -11.2926   18.9279 H   0  0  0  0  0  0
  -27.3921  -12.5208   17.8135 H   0  0  0  0  0  0
  -27.6393  -14.2617   19.4731 H   0  0  0  0  0  0
  -28.7408  -12.2018   21.4434 H   0  0  0  0  0  0
  -28.3981  -13.8728   21.8123 H   0  0  0  0  0  0
  -25.2702   -9.5788   22.4823 H   0  0  0  0  0  0
  -24.0006   -7.4684   22.7494 H   0  0  0  0  0  0
  -21.0841   -8.8795   19.8970 H   0  0  0  0  0  0
  -22.3655  -10.9715   19.6193 H   0  0  0  0  0  0
  -21.1982   -7.6149   23.9734 H   0  0  0  0  0  0
  -21.1491   -6.0526   25.9104 H   0  0  0  0  0  0
  -22.0576   -2.7605   23.2846 H   0  0  0  0  0  0
  -22.3834  -12.0049   22.4878 H   0  0  0  0  0  0
  -21.0962  -13.1508   22.2350 H   0  0  0  0  0  0
  -24.6770  -15.8626   20.4993 H   0  0  0  0  0  0
  -26.2897  -15.6076   20.0630 H   0  0  0  0  0  0
  -26.7252  -32.5352   23.1027 H   0  0  0  0  0  0
  -25.0095  -33.9614   25.0372 H   0  0  0  0  0  0
  -22.7483  -31.2922   21.3816 H   0  0  0  0  0  0
  -23.3730  -35.9567   23.3271 H   0  0  0  0  0  0
  -24.3552  -36.8902   22.2057 H   0  0  0  0  0  0
  -23.7199  -37.6419   23.6690 H   0  0  0  0  0  0
  -26.1306  -31.4838   20.6018 H   0  0  0  0  0  0
  -26.8780  -30.8050   22.0098 H   0  0  0  0  0  0
  -28.1224  -28.8136   21.2749 H   0  0  0  0  0  0
  -25.9523  -25.8991   18.9337 H   0  0  0  0  0  0
  -23.9925  -27.2981   18.9935 H   0  0  0  0  0  0
  -23.8126  -30.5665   19.4034 H   0  0  0  0  0  0
  -22.7929  -29.2331   19.8462 H   0  0  0  0  0  0
  -25.1274  -36.1839   25.0801 H   0  0  0  0  0  0
  -20.9968  -28.3306   24.1376 H   0  0  0  0  0  0
  -20.5618  -26.2331   23.3642 H   0  0  0  0  0  0
  -21.6608  -26.7417   22.1228 H   0  0  0  0  0  0
  -19.6854  -25.6255   21.1315 H   0  0  0  0  0  0
  -19.6688  -27.3123   20.6709 H   0  0  0  0  0  0
  -17.4183  -26.6778   21.3962 H   0  0  0  0  0  0
  -18.0210  -26.0100   22.8971 H   0  0  0  0  0  0
  -19.7930  -30.7334   24.2177 H   0  0  0  0  0  0
  -17.5016  -31.6312   24.5120 H   0  0  0  0  0  0
  -15.5341  -30.3011   23.7702 H   0  0  0  0  0  0
  -15.8645  -28.0853   22.7110 H   0  0  0  0  0  0
  -24.5914  -30.7028   25.7756 H   0  0  0  0  0  0
  -24.8853  -32.2909   26.4732 H   0  0  0  0  0  0
  -25.8017  -30.8994   27.0240 H   0  0  0  0  0  0
  -26.2970  -29.6673   24.1236 H   0  0  0  0  0  0
  -27.3997  -29.7219   25.4773 H   0  0  0  0  0  0
  -27.8869  -30.4178   23.9522 H   0  0  0  0  0  0
  -27.2666  -33.3594   26.2020 H   0  0  0  0  0  0
  -28.3922  -32.6766   25.0364 H   0  0  0  0  0  0
  -28.0651  -31.8400   26.5462 H   0  0  0  0  0  0
  -28.2528  -38.0103   24.7534 H   0  0  0  0  0  0
  -28.1092  -36.2624   24.6164 H   0  0  0  0  0  0
  -27.2287  -37.1299   25.8838 H   0  0  0  0  0  0
  -20.9405  -29.8908   21.6956 H   0  0  0  0  0  0
  -26.0102  -38.2802   24.1448 H   0  0  0  0  0  0
  -30.3094  -22.9466   18.9820 H   0  0  0  0  0  0
  -31.9829  -21.2289   19.1181 H   0  0  0  0  0  0
  -31.0237  -19.8085   18.6640 H   0  0  0  0  0  0
  -31.8586  -19.8868   20.2176 H   0  0  0  0  0  0
  -26.0683  -23.0433   21.9964 H   0  0  0  0  0  0
  -27.1320  -24.4432   22.1288 H   0  0  0  0  0  0
  -27.1639  -23.2472   23.3709 H   0  0  0  0  0  0
  -27.7316  -21.2718   23.9083 H   0  0  0  0  0  0
  -28.0639  -19.6668   23.4089 H   0  0  0  0  0  0
  -26.6110  -20.4695   22.8126 H   0  0  0  0  0  0
  -27.1143  -24.4559   19.7322 H   0  0  0  0  0  0
  -28.4979  -24.7451   18.7604 H   0  0  0  0  0  0
  -31.2000  -17.6198   20.3621 H   0  0  0  0  0  0
  -29.6935  -17.6431   19.5207 H   0  0  0  0  0  0
  -28.5946  -18.3789   21.7977 H   0  0  0  0  0  0
  -28.9531  -15.7925   21.2174 H   0  0  0  0  0  0
  -31.3065  -18.8983   22.2584 H   0  0  0  0  0  0
  1 25  1  0  0  0
  1 30  2  0  0  0
  1 83  1  0  0  0
  2  3  1  0  0  0
  2 25  1  0  0  0
  2 85  1  0  0  0
  2 86  1  0  0  0
  3  4  1  0  0  0
  3 87  1  0  0  0
  3 88  1  0  0  0
  4  5  1  0  0  0
  4 89  1  0  0  0
  4 90  1  0  0  0
  5  6  1  0  0  0
  5 26  1  0  0  0
  5 91  1  0  0  0
  6 25  1  0  0  0
  6 92  1  0  0  0
  6 93  1  0  0  0
  7  8  2  0  0  0
  7 26  1  0  0  0
  7 29  1  0  0  0
  8  9  1  0  0  0
  8 22  1  0  0  0
  9 10  1  0  0  0
  9 27  2  0  0  0
 10 11  2  0  0  0
 10 15  1  0  0  0
 11 12  1  0  0  0
 11 94  1  0  0  0
 12 13  2  0  0  0
 12 95  1  0  0  0
 13 14  1  0  0  0
 13 31  1  0  0  0
 14 15  2  0  0  0
 14 96  1  0  0  0
 15 97  1  0  0  0
 16 17  2  0  0  0
 16 21  1  0  0  0
 16 31  1  0  0  0
 17 18  1  0  0  0
 17 98  1  0  0  0
 18 19  2  0  0  0
 18 99  1  0  0  0
 19 20  1  0  0  0
 19 24  1  0  0  0
 20 21  2  0  0  0
 20100  1  0  0  0
 21 23  1  0  0  0
 22 28  1  0  0  0
 22 32  2  0  0  0
 26 27  1  0  0  0
 28101  1  0  0  0
 28102  1  0  0  0
 29103  1  0  0  0
 29104  1  0  0  0
 33 34  1  0  0  0
 33 66  1  0  0  0
 33 70  2  0  0  0
 34 36  1  0  0  0
 34 59  1  0  0  0
 34105  1  0  0  0
 35 44  2  0  0  0
 35 45  1  0  0  0
 35 68  1  0  0  0
 36 56  1  0  0  0
 36106  1  0  0  0
 37 39  1  0  0  0
 37 47  1  0  0  0
 37 66  1  0  0  0
 37107  1  0  0  0
 38 43  2  0  0  0
 38 46  1  0  0  0
 38 47  1  0  0  0
 39 64  1  0  0  0
 39 67  2  0  0  0
 40 52  1  0  0  0
 40 53  2  0  0  0
 40 58  1  0  0  0
 41108  1  0  0  0
 41109  1  0  0  0
 41110  1  0  0  0
 41 48  1  0  0  0
 42 43  1  0  0  0
 42 66  1  0  0  0
 42111  1  0  0  0
 42112  1  0  0  0
 43 44  1  0  0  0
 44113  1  0  0  0
 45 46  2  0  0  0
 45114  1  0  0  0
 46115  1  0  0  0
 47116  1  0  0  0
 47117  1  0  0  0
 48 56  1  0  0  0
 48 65  1  0  0  0
 48118  1  0  0  0
 49 50  1  0  0  0
 49 53  1  0  0  0
 49 64  1  0  0  0
 49119  1  0  0  0
 50 51  1  0  0  0
 50120  1  0  0  0
 50121  1  0  0  0
 51 52  1  0  0  0
 51122  1  0  0  0
 51123  1  0  0  0
 52124  1  0  0  0
 52125  1  0  0  0
 53 54  1  0  0  0
 54 55  2  0  0  0
 54126  1  0  0  0
 55 57  1  0  0  0
 55127  1  0  0  0
 56 69  2  0  0  0
 57 58  2  0  0  0
 57128  1  0  0  0
 58129  1  0  0  0
 59 60  1  0  0  0
 59 61  1  0  0  0
 59 62  1  0  0  0
 60130  1  0  0  0
 60131  1  0  0  0
 60132  1  0  0  0
 61133  1  0  0  0
 61134  1  0  0  0
 61135  1  0  0  0
 62136  1  0  0  0
 62137  1  0  0  0
 62138  1  0  0  0
 63 65  1  0  0  0
 63139  1  0  0  0
 63140  1  0  0  0
 63141  1  0  0  0
 64142  1  0  0  0
 65143  1  0  0  0
 68 80  1  0  0  0
 71 72  2  0  0  0
 71 73  1  0  0  0
 71144  1  0  0  0
 72 76  1  0  0  0
 72 77  1  0  0  0
 73 74  2  0  0  0
 73 80  1  0  0  0
 74 75  1  0  0  0
 74 78  1  0  0  0
 75 76  2  0  0  0
 75 79  1  0  0  0
 76 82  1  0  0  0
 77145  1  0  0  0
 77146  1  0  0  0
 77147  1  0  0  0
 78148  1  0  0  0
 78149  1  0  0  0
 78150  1  0  0  0
 79151  1  0  0  0
 79152  1  0  0  0
 79153  1  0  0  0
 80154  1  0  0  0
 80155  1  0  0  0
 81 82  1  0  0  0
 81 83  1  0  0  0
 81156  1  0  0  0
 81157  1  0  0  0
 82 84  1  0  0  0
 82158  1  0  0  0
 83159  1  0  0  0
 84160  1  0  0  0
M  ISO  4   1 100  68 101  80 101  83 100
M  END
> <chiral flag>
0

> <version>
0

> <s_m_source_file>
/data/baiqing/PycharmProjects/Reinvent-master-3.2/result/LINK_invent/BTK/process_docking_weight1_custom_sum_contain_oxygen_bond_distance_aromatic_linkinvent_7_9_3/rearranged_h_0151.sdf

> <i_m_source_file_index>
35

> <r_mmod_Potential_Energy-OPLS-2005>
353.479156494141

> <r_mmod_Stretch_Energy-OPLS-2005>
227.645980834961

> <r_mmod_Bend_Energy-OPLS-2005>
253.752838134766

> <r_mmod_Torsional_Energy-OPLS-2005>
242.793640136719

> <r_mmod_Improper_Torsional_Energy-OPLS-2005>
7.24654579162598

> <r_mmod_Van_der_Waal_Energy-OPLS-2005>
145.39421081543

> <r_mmod_Electrostatic_Energy-OPLS-2005>
-446.49853515625

> <r_mmod_Solvation_Energy-OPLS-2005>
-224.618667602539

> <b_mmod_Minimization_Converged-OPLS-2005>
0

> <r_mmod_RMS_Derivative-OPLS-2005>
5.0165753364563

$$$$
35
                    3D
 Structure written by MMmdl.
166175  0  0  1  0            999 V2000
  -30.5995  -14.7585   20.4666 C   0  0  0  0  0  0
  -30.4408  -12.4698   19.4589 C   0  0  0  0  0  0
  -29.5053  -12.5072   18.2303 C   0  0  0  0  0  0
  -28.0353  -12.3237   18.6567 C   0  0  0  0  0  0
  -27.6414  -13.2305   19.8520 C   0  0  2  0  0  0
  -28.6919  -13.1669   20.9804 C   0  0  0  0  0  0
  -25.2488  -13.8190   20.5719 C   0  0  0  0  0  0
  -24.1792  -13.0425   20.9223 C   0  0  0  0  0  0
  -24.6386  -11.6895   20.8754 C   0  0  0  0  0  0
  -23.9063  -10.4288   21.0404 C   0  0  0  0  0  0
  -24.3612   -9.4205   21.9182 C   0  0  0  0  0  0
  -23.6292   -8.2227   22.0740 C   0  0  0  0  0  0
  -22.4270   -8.0268   21.3547 C   0  0  0  0  0  0
  -21.9918   -9.0231   20.4630 C   0  0  0  0  0  0
  -22.7236  -10.2120   20.3045 C   0  0  0  0  0  0
  -21.6858   -6.0726   22.5264 C   0  0  0  0  0  0
  -21.4007   -6.5634   23.8198 C   0  0  0  0  0  0
  -21.3671   -5.6786   24.9165 C   0  0  0  0  0  0
  -21.6049   -4.3052   24.7214 C   0  0  0  0  0  0
  -21.8829   -3.8139   23.4339 C   0  0  0  0  0  0
  -21.9192   -4.6951   22.3391 C   0  0  0  0  0  0
  -22.7825  -13.5197   21.1907 C   0  0  0  0  0  0
  -22.1669   -4.2135   21.0972 F   0  0  0  0  0  0
  -21.5641   -3.4535   25.7740 F   0  0  0  0  0  0
  -29.9862  -13.5287   20.3866 N   0  0  0  0  0  0
  -26.2945  -12.9395   20.3330 N   0  0  0  0  0  0
  -25.9318  -11.6542   20.5775 N   0  0  0  0  0  0
  -22.0495  -12.8133   22.0459 N   0  0  0  0  0  0
  -25.4182  -15.1904   20.4120 N   0  0  0  0  0  0
  -31.7993  -14.8757   20.2118 O   0  0  0  0  0  0
  -21.6642   -6.8856   21.4229 O   0  0  0  0  0  0
  -22.3494  -14.5517   20.6792 O   0  0  0  0  0  0
  -24.6310  -31.8548   23.1996 C   0  0  0  0  0  0
  -25.9135  -32.4763   23.8352 C   0  0  1  0  0  0
  -27.2187  -27.2484   20.1452 C   0  0  0  0  0  0
  -25.5936  -33.8573   24.2290 N   0  0  0  0  0  0
  -23.4307  -30.4795   21.5412 C   0  0  2  0  0  0
  -24.8776  -28.9287   20.1060 C   0  0  0  0  0  0
  -22.7525  -29.4601   22.4893 C   0  0  0  0  0  0
  -18.0297  -28.1405   22.8522 C   0  0  0  0  0  0
  -24.1445  -36.7242   23.2656 C   0  0  0  0  0  0
  -25.9775  -30.7677   21.3760 C   0  0  0  0  0  0
  -26.0497  -29.3872   20.7238 C   0  0  0  0  0  0
  -27.2203  -28.5611   20.7337 C   0  0  0  0  0  0
  -26.0252  -26.8716   19.4805 C   0  0  0  0  0  0
  -24.8725  -27.6804   19.4702 C   0  0  0  0  0  0
  -23.6481  -29.8166   20.1555 C   0  0  0  0  0  0
  -25.4089  -36.3079   24.0354 C   0  0  1  0  0  0
  -20.5909  -28.3710   23.1269 C   0  0  2  0  0  0
  -20.6780  -26.9417   22.5422 C   0  0  0  0  0  0
  -19.5734  -26.6388   21.5246 C   0  0  0  0  0  0
  -18.1911  -26.7968   22.1636 C   0  0  0  0  0  0
  -19.1565  -28.8880   23.2892 C   0  0  0  0  0  0
  -18.9480  -30.1487   23.8889 C   0  0  0  0  0  0
  -17.6489  -30.6609   24.0584 C   0  0  0  0  0  0
  -25.9036  -34.9454   23.5112 C   0  0  0  0  0  0
  -16.5365  -29.9121   23.6360 C   0  0  0  0  0  0
  -16.7289  -28.6528   23.0372 C   0  0  0  0  0  0
  -26.4513  -31.6584   25.0729 C   0  0  0  0  0  0
  -25.3754  -31.3750   26.1462 C   0  0  0  0  0  0
  -27.0397  -30.3040   24.6173 C   0  0  0  0  0  0
  -27.6041  -32.4357   25.7510 C   0  0  0  0  0  0
  -27.5548  -37.1791   24.8495 C   0  0  0  0  0  0
  -21.4228  -29.3061   22.3670 N   0  0  0  0  0  0
  -26.4239  -37.3777   23.9451 N   0  0  0  0  0  0
  -24.6998  -31.0535   22.0950 N   0  0  0  0  0  0
  -23.4245  -28.8123   23.2960 O   0  0  0  0  0  0
  -28.2947  -26.3234   20.2402 O   0  0  0  0  0  0
  -26.5585  -34.8926   22.4671 O   0  0  0  0  0  0
  -23.5459  -32.1335   23.7307 O   0  0  0  0  0  0
  -28.7290  -22.2535   20.0551 C   0  0  0  0  0  0
  -28.9193  -23.6322   20.5123 C   0  0  0  0  0  0
  -29.4701  -21.1243   20.6141 C   0  0  0  0  0  0
  -29.9141  -23.7913   21.5023 C   0  0  0  0  0  0
  -30.4518  -21.4917   21.5686 C   0  0  0  0  0  0
  -26.3304  -22.3195   18.9411 C   0  0  0  0  0  0
  -26.7567  -20.8781   18.9916 C   0  0  0  0  0  0
  -27.8062  -21.9685   18.8914 C   0  0  0  0  0  0
  -30.2152  -25.1280   22.1548 C   0  0  0  0  0  0
  -31.3202  -20.4777   22.2861 C   0  0  0  0  0  0
  -28.5757  -22.1286   17.5906 C   0  0  0  0  0  0
  -27.9923  -24.8571   20.0389 C   0  0  0  0  0  0
  -30.0650  -17.3119   21.0927 C   0  0  0  0  0  0
  -30.0550  -18.6008   20.1014 C   0  0  0  0  0  0
  -30.6628  -22.7649   21.9720 N   0  0  0  0  0  0
  -29.7919  -15.8694   20.6470 N   0  0  0  0  0  0
  -29.1343  -19.7615   20.3223 O   0  0  0  0  0  0
  -31.4764  -12.6172   19.1469 H   0  0  0  0  0  0
  -30.4053  -11.4937   19.9455 H   0  0  0  0  0  0
  -29.7852  -11.7313   17.5162 H   0  0  0  0  0  0
  -29.6214  -13.4600   17.7101 H   0  0  0  0  0  0
  -27.9042  -11.2779   18.9323 H   0  0  0  0  0  0
  -27.3671  -12.5009   17.8134 H   0  0  0  0  0  0
  -27.6318  -14.2499   19.4662 H   0  0  0  0  0  0
  -28.7345  -12.1707   21.4223 H   0  0  0  0  0  0
  -28.4260  -13.8470   21.7910 H   0  0  0  0  0  0
  -25.2749   -9.5684   22.4763 H   0  0  0  0  0  0
  -23.9996   -7.4625   22.7457 H   0  0  0  0  0  0
  -21.0851   -8.8745   19.8928 H   0  0  0  0  0  0
  -22.3692  -10.9650   19.6146 H   0  0  0  0  0  0
  -21.1992   -7.6139   23.9696 H   0  0  0  0  0  0
  -21.1491   -6.0521   25.9072 H   0  0  0  0  0  0
  -22.0595   -2.7592   23.2838 H   0  0  0  0  0  0
  -22.4145  -11.9746   22.4731 H   0  0  0  0  0  0
  -21.1135  -13.1128   22.2763 H   0  0  0  0  0  0
  -24.6449  -15.8403   20.5090 H   0  0  0  0  0  0
  -26.2625  -15.6314   20.0720 H   0  0  0  0  0  0
  -26.7201  -32.5418   23.1095 H   0  0  0  0  0  0
  -25.0210  -33.9752   25.0530 H   0  0  0  0  0  0
  -22.7289  -31.3052   21.3991 H   0  0  0  0  0  0
  -23.3720  -35.9552   23.3311 H   0  0  0  0  0  0
  -24.3545  -36.8845   22.2065 H   0  0  0  0  0  0
  -23.7152  -37.6432   23.6663 H   0  0  0  0  0  0
  -26.1124  -31.5209   20.5982 H   0  0  0  0  0  0
  -26.8591  -30.8242   22.0020 H   0  0  0  0  0  0
  -28.1082  -28.9053   21.2467 H   0  0  0  0  0  0
  -25.9396  -25.9178   18.9819 H   0  0  0  0  0  0
  -23.9767  -27.3290   18.9755 H   0  0  0  0  0  0
  -23.7770  -30.5964   19.4034 H   0  0  0  0  0  0
  -22.7675  -29.2503   19.8432 H   0  0  0  0  0  0
  -25.1250  -36.1900   25.0837 H   0  0  0  0  0  0
  -21.0025  -28.3234   24.1379 H   0  0  0  0  0  0
  -20.5684  -26.2313   23.3639 H   0  0  0  0  0  0
  -21.6637  -26.7443   22.1185 H   0  0  0  0  0  0
  -19.6869  -25.6299   21.1260 H   0  0  0  0  0  0
  -19.6637  -27.3228   20.6796 H   0  0  0  0  0  0
  -17.4201  -26.6792   21.3994 H   0  0  0  0  0  0
  -18.0216  -26.0120   22.9019 H   0  0  0  0  0  0
  -19.7958  -30.7335   24.2204 H   0  0  0  0  0  0
  -17.5044  -31.6294   24.5188 H   0  0  0  0  0  0
  -15.5365  -30.3019   23.7731 H   0  0  0  0  0  0
  -15.8683  -28.0878   22.7063 H   0  0  0  0  0  0
  -24.5964  -30.7023   25.7846 H   0  0  0  0  0  0
  -24.8898  -32.2926   26.4803 H   0  0  0  0  0  0
  -25.8112  -30.9042   27.0288 H   0  0  0  0  0  0
  -26.2996  -29.6781   24.1174 H   0  0  0  0  0  0
  -27.4127  -29.7280   25.4647 H   0  0  0  0  0  0
  -27.8838  -30.4378   23.9406 H   0  0  0  0  0  0
  -27.2617  -33.3701   26.1976 H   0  0  0  0  0  0
  -28.3917  -32.6846   25.0385 H   0  0  0  0  0  0
  -28.0624  -31.8548   26.5519 H   0  0  0  0  0  0
  -28.2577  -38.0078   24.7540 H   0  0  0  0  0  0
  -28.1015  -36.2611   24.6281 H   0  0  0  0  0  0
  -27.2304  -37.1404   25.8912 H   0  0  0  0  0  0
  -20.9412  -29.8852   21.6939 H   0  0  0  0  0  0
  -26.0087  -38.2825   24.1501 H   0  0  0  0  0  0
  -25.9152  -22.7326   19.8566 H   0  0  0  0  0  0
  -25.8479  -22.6419   18.0200 H   0  0  0  0  0  0
  -26.5699  -20.2754   18.1041 H   0  0  0  0  0  0
  -26.6237  -20.3652   19.9424 H   0  0  0  0  0  0
  -30.5317  -25.8667   21.4187 H   0  0  0  0  0  0
  -31.0195  -25.0417   22.8860 H   0  0  0  0  0  0
  -29.3354  -25.5063   22.6768 H   0  0  0  0  0  0
  -30.7530  -19.5905   22.5598 H   0  0  0  0  0  0
  -31.7256  -20.8969   23.2072 H   0  0  0  0  0  0
  -32.1614  -20.1883   21.6577 H   0  0  0  0  0  0
  -29.0058  -23.1288   17.5179 H   0  0  0  0  0  0
  -27.9265  -21.9677   16.7289 H   0  0  0  0  0  0
  -29.3916  -21.4052   17.5461 H   0  0  0  0  0  0
  -27.0480  -24.6600   20.5480 H   0  0  0  0  0  0
  -27.8127  -24.7236   18.9729 H   0  0  0  0  0  0
  -29.3102  -17.5121   21.8531 H   0  0  0  0  0  0
  -31.0021  -17.3095   21.6499 H   0  0  0  0  0  0
  -29.8164  -18.2273   19.1058 H   0  0  0  0  0  0
  -31.0717  -18.9786   19.9941 H   0  0  0  0  0  0
  -28.8136  -15.6251   20.6789 H   0  0  0  0  0  0
  1 25  1  0  0  0
  1 30  2  0  0  0
  1 86  1  0  0  0
  2  3  1  0  0  0
  2 25  1  0  0  0
  2 88  1  0  0  0
  2 89  1  0  0  0
  3  4  1  0  0  0
  3 90  1  0  0  0
  3 91  1  0  0  0
  4  5  1  0  0  0
  4 92  1  0  0  0
  4 93  1  0  0  0
  5  6  1  0  0  0
  5 26  1  0  0  0
  5 94  1  0  0  0
  6 25  1  0  0  0
  6 95  1  0  0  0
  6 96  1  0  0  0
  7  8  2  0  0  0
  7 26  1  0  0  0
  7 29  1  0  0  0
  8  9  1  0  0  0
  8 22  1  0  0  0
  9 10  1  0  0  0
  9 27  2  0  0  0
 10 11  2  0  0  0
 10 15  1  0  0  0
 11 12  1  0  0  0
 11 97  1  0  0  0
 12 13  2  0  0  0
 12 98  1  0  0  0
 13 14  1  0  0  0
 13 31  1  0  0  0
 14 15  2  0  0  0
 14 99  1  0  0  0
 15100  1  0  0  0
 16 17  2  0  0  0
 16 21  1  0  0  0
 16 31  1  0  0  0
 17 18  1  0  0  0
 17101  1  0  0  0
 18 19  2  0  0  0
 18102  1  0  0  0
 19 20  1  0  0  0
 19 24  1  0  0  0
 20 21  2  0  0  0
 20103  1  0  0  0
 21 23  1  0  0  0
 22 28  1  0  0  0
 22 32  2  0  0  0
 26 27  1  0  0  0
 28104  1  0  0  0
 28105  1  0  0  0
 29106  1  0  0  0
 29107  1  0  0  0
 33 34  1  0  0  0
 33 66  1  0  0  0
 33 70  2  0  0  0
 34 36  1  0  0  0
 34 59  1  0  0  0
 34108  1  0  0  0
 35 44  2  0  0  0
 35 45  1  0  0  0
 35 68  1  0  0  0
 36 56  1  0  0  0
 36109  1  0  0  0
 37 39  1  0  0  0
 37 47  1  0  0  0
 37 66  1  0  0  0
 37110  1  0  0  0
 38 43  2  0  0  0
 38 46  1  0  0  0
 38 47  1  0  0  0
 39 64  1  0  0  0
 39 67  2  0  0  0
 40 52  1  0  0  0
 40 53  2  0  0  0
 40 58  1  0  0  0
 41111  1  0  0  0
 41112  1  0  0  0
 41113  1  0  0  0
 41 48  1  0  0  0
 42 43  1  0  0  0
 42 66  1  0  0  0
 42114  1  0  0  0
 42115  1  0  0  0
 43 44  1  0  0  0
 44116  1  0  0  0
 45 46  2  0  0  0
 45117  1  0  0  0
 46118  1  0  0  0
 47119  1  0  0  0
 47120  1  0  0  0
 48 56  1  0  0  0
 48 65  1  0  0  0
 48121  1  0  0  0
 49 50  1  0  0  0
 49 53  1  0  0  0
 49 64  1  0  0  0
 49122  1  0  0  0
 50 51  1  0  0  0
 50123  1  0  0  0
 50124  1  0  0  0
 51 52  1  0  0  0
 51125  1  0  0  0
 51126  1  0  0  0
 52127  1  0  0  0
 52128  1  0  0  0
 53 54  1  0  0  0
 54 55  2  0  0  0
 54129  1  0  0  0
 55 57  1  0  0  0
 55130  1  0  0  0
 56 69  2  0  0  0
 57 58  2  0  0  0
 57131  1  0  0  0
 58132  1  0  0  0
 59 60  1  0  0  0
 59 61  1  0  0  0
 59 62  1  0  0  0
 60133  1  0  0  0
 60134  1  0  0  0
 60135  1  0  0  0
 61136  1  0  0  0
 61137  1  0  0  0
 61138  1  0  0  0
 62139  1  0  0  0
 62140  1  0  0  0
 62141  1  0  0  0
 63 65  1  0  0  0
 63142  1  0  0  0
 63143  1  0  0  0
 63144  1  0  0  0
 64145  1  0  0  0
 65146  1  0  0  0
 68 82  1  0  0  0
 71 72  1  0  0  0
 71 73  2  0  0  0
 71 78  1  0  0  0
 72 74  2  0  0  0
 72 82  1  0  0  0
 73 75  1  0  0  0
 73 87  1  0  0  0
 74 79  1  0  0  0
 74 85  1  0  0  0
 75 80  1  0  0  0
 75 85  2  0  0  0
 76 77  1  0  0  0
 76 78  1  0  0  0
 76147  1  0  0  0
 76148  1  0  0  0
 77 78  1  0  0  0
 77149  1  0  0  0
 77150  1  0  0  0
 78 81  1  0  0  0
 79151  1  0  0  0
 79152  1  0  0  0
 79153  1  0  0  0
 80154  1  0  0  0
 80155  1  0  0  0
 80156  1  0  0  0
 81157  1  0  0  0
 81158  1  0  0  0
 81159  1  0  0  0
 82160  1  0  0  0
 82161  1  0  0  0
 83 84  1  0  0  0
 83 86  1  0  0  0
 83162  1  0  0  0
 83163  1  0  0  0
 84 87  1  0  0  0
 84164  1  0  0  0
 84165  1  0  0  0
 86166  1  0  0  0
M  ISO  4   1 100  68 101  82 101  86 100
M  END
> <chiral flag>
0

> <version>
0

> <s_m_source_file>
/data/baiqing/PycharmProjects/Reinvent-master-3.2/result/LINK_invent/BTK/process_docking_weight1_custom_sum_contain_oxygen_bond_distance_aromatic_linkinvent_7_9_3/rearranged_h_0151.sdf

> <i_m_source_file_index>
36

> <r_mmod_Potential_Energy-OPLS-2005>
105.58032989502

> <r_mmod_Stretch_Energy-OPLS-2005>
134.900695800781

> <r_mmod_Bend_Energy-OPLS-2005>
206.375854492188

> <r_mmod_Torsional_Energy-OPLS-2005>
287.799255371094

> <r_mmod_Improper_Torsional_Energy-OPLS-2005>
5.68395853042603

> <r_mmod_Van_der_Waal_Energy-OPLS-2005>
138.906753540039

> <r_mmod_Electrostatic_Energy-OPLS-2005>
-546.977478027344

> <r_mmod_Solvation_Energy-OPLS-2005>
-219.537521362305

> <b_mmod_Minimization_Converged-OPLS-2005>
0

> <r_mmod_RMS_Derivative-OPLS-2005>
3.83879852294922

$$$$
36
                    3D
 Structure written by MMmdl.
174183  0  0  1  0            999 V2000
  -30.7141  -14.5049   20.5863 C   0  0  0  0  0  0
  -30.4173  -12.3351   19.4309 C   0  0  0  0  0  0
  -29.4917  -12.5042   18.2092 C   0  0  0  0  0  0
  -28.0148  -12.3559   18.6252 C   0  0  0  0  0  0
  -27.6557  -13.2134   19.8675 C   0  0  2  0  0  0
  -28.6962  -13.0326   20.9947 C   0  0  0  0  0  0
  -25.2565  -13.8178   20.5699 C   0  0  0  0  0  0
  -24.1819  -13.0438   20.9143 C   0  0  0  0  0  0
  -24.6400  -11.6912   20.8736 C   0  0  0  0  0  0
  -23.9068  -10.4291   21.0401 C   0  0  0  0  0  0
  -24.3614   -9.4210   21.9182 C   0  0  0  0  0  0
  -23.6278   -8.2250   22.0761 C   0  0  0  0  0  0
  -22.4267   -8.0283   21.3543 C   0  0  0  0  0  0
  -21.9911   -9.0261   20.4646 C   0  0  0  0  0  0
  -22.7244  -10.2133   20.3051 C   0  0  0  0  0  0
  -21.6849   -6.0733   22.5275 C   0  0  0  0  0  0
  -21.4028   -6.5643   23.8210 C   0  0  0  0  0  0
  -21.3649   -5.6791   24.9168 C   0  0  0  0  0  0
  -21.6037   -4.3053   24.7224 C   0  0  0  0  0  0
  -21.8817   -3.8147   23.4346 C   0  0  0  0  0  0
  -21.9201   -4.6963   22.3404 C   0  0  0  0  0  0
  -22.7849  -13.5223   21.1835 C   0  0  0  0  0  0
  -22.1655   -4.2153   21.0979 F   0  0  0  0  0  0
  -21.5625   -3.4540   25.7738 F   0  0  0  0  0  0
  -30.0211  -13.3391   20.4354 N   0  0  0  0  0  0
  -26.2991  -12.9356   20.3339 N   0  0  0  0  0  0
  -25.9318  -11.6512   20.5766 N   0  0  0  0  0  0
  -22.0494  -12.8196   22.0377 N   0  0  0  0  0  0
  -25.4303  -15.1890   20.4134 N   0  0  0  0  0  0
  -31.8411  -14.6539   20.1106 O   0  0  0  0  0  0
  -21.6635   -6.8877   21.4237 O   0  0  0  0  0  0
  -22.3532  -14.5527   20.6686 O   0  0  0  0  0  0
  -24.6219  -31.8653   23.2058 C   0  0  0  0  0  0
  -25.9100  -32.4799   23.8363 C   0  0  1  0  0  0
  -27.2370  -27.3944   20.0930 C   0  0  0  0  0  0
  -25.5928  -33.8598   24.2290 N   0  0  0  0  0  0
  -23.4105  -30.4882   21.5494 C   0  0  2  0  0  0
  -24.8537  -28.9436   20.1205 C   0  0  0  0  0  0
  -22.7435  -29.4661   22.4988 C   0  0  0  0  0  0
  -18.0258  -28.1400   22.8449 C   0  0  0  0  0  0
  -24.1490  -36.7303   23.2640 C   0  0  0  0  0  0
  -25.9433  -30.8187   21.3625 C   0  0  0  0  0  0
  -26.0209  -29.4536   20.7005 C   0  0  0  0  0  0
  -27.2179  -28.6920   20.6689 C   0  0  0  0  0  0
  -26.0372  -26.8994   19.5363 C   0  0  0  0  0  0
  -24.8560  -27.6651   19.5386 C   0  0  0  0  0  0
  -23.6199  -29.8184   20.1661 C   0  0  0  0  0  0
  -25.4116  -36.3088   24.0327 C   0  0  1  0  0  0
  -20.5859  -28.3706   23.1299 C   0  0  2  0  0  0
  -20.6770  -26.9452   22.5421 C   0  0  0  0  0  0
  -19.5788  -26.6417   21.5204 C   0  0  0  0  0  0
  -18.1928  -26.7936   22.1584 C   0  0  0  0  0  0
  -19.1516  -28.8862   23.2843 C   0  0  0  0  0  0
  -18.9452  -30.1445   23.8901 C   0  0  0  0  0  0
  -17.6472  -30.6603   24.0583 C   0  0  0  0  0  0
  -25.9067  -34.9459   23.5111 C   0  0  0  0  0  0
  -16.5351  -29.9130   23.6342 C   0  0  0  0  0  0
  -16.7254  -28.6544   23.0344 C   0  0  0  0  0  0
  -26.4502  -31.6595   25.0726 C   0  0  0  0  0  0
  -25.3731  -31.3722   26.1443 C   0  0  0  0  0  0
  -27.0375  -30.3045   24.6147 C   0  0  0  0  0  0
  -27.6052  -32.4347   25.7488 C   0  0  0  0  0  0
  -27.5571  -37.1789   24.8449 C   0  0  0  0  0  0
  -21.4162  -29.3057   22.3694 N   0  0  0  0  0  0
  -26.4291  -37.3790   23.9401 N   0  0  0  0  0  0
  -24.6780  -31.0709   22.0981 N   0  0  0  0  0  0
  -23.4173  -28.8208   23.3068 O   0  0  0  0  0  0
  -28.4159  -26.6593   20.0689 O   0  0  0  0  0  0
  -26.5633  -34.8913   22.4668 O   0  0  0  0  0  0
  -23.5397  -32.1433   23.7429 O   0  0  0  0  0  0
  -29.3059  -20.3526   22.1750 C   0  0  0  0  0  0
  -29.5438  -20.0136   19.7960 C   0  0  0  0  0  0
  -29.2445  -20.8888   20.8690 C   0  0  0  0  0  0
  -30.0355  -18.1527   21.3395 C   0  0  0  0  0  0
  -29.6897  -19.0129   22.4182 C   0  0  0  0  0  0
  -29.9098  -18.6488   20.0159 C   0  0  0  0  0  0
  -28.1403  -22.8134   19.3889 C   0  0  0  0  0  0
  -30.0953  -23.3321   20.9118 C   0  0  0  0  0  0
  -28.2644  -24.3330   19.0459 C   0  0  0  0  0  0
  -29.6799  -24.8276   21.0532 C   0  0  0  0  0  0
  -28.8911  -22.3924   20.6905 C   0  0  2  0  0  0
  -28.3759  -25.2262   20.3078 C   0  0  1  0  0  0
  -29.5725  -16.6941   25.1568 C   0  0  0  0  0  0
  -29.8443  -16.8868   16.8004 C   0  0  0  0  0  0
  -30.7352  -16.7951   21.6091 C   0  0  0  0  0  0
  -28.8741  -17.6106   24.1446 C   0  0  0  0  0  0
  -29.9536  -18.1525   17.6522 C   0  0  0  0  0  0
  -30.0816  -15.5225   21.2130 N   0  0  0  0  0  0
  -29.7936  -18.6172   23.7298 O   0  0  0  0  0  0
  -30.2006  -17.7643   18.9980 O   0  0  0  0  0  0
  -31.4629  -12.4259   19.1296 H   0  0  0  0  0  0
  -30.3164  -11.3323   19.8506 H   0  0  0  0  0  0
  -29.7364  -11.7641   17.4457 H   0  0  0  0  0  0
  -29.6470  -13.4838   17.7536 H   0  0  0  0  0  0
  -27.8391  -11.3009   18.8396 H   0  0  0  0  0  0
  -27.3587  -12.6048   17.7908 H   0  0  0  0  0  0
  -27.6881  -14.2564   19.5466 H   0  0  0  0  0  0
  -28.6859  -12.0039   21.3602 H   0  0  0  0  0  0
  -28.4505  -13.6534   21.8572 H   0  0  0  0  0  0
  -25.2755   -9.5683   22.4755 H   0  0  0  0  0  0
  -23.9986   -7.4648   22.7498 H   0  0  0  0  0  0
  -21.0833   -8.8759   19.8957 H   0  0  0  0  0  0
  -22.3686  -10.9660   19.6158 H   0  0  0  0  0  0
  -21.2024   -7.6151   23.9706 H   0  0  0  0  0  0
  -21.1470   -6.0529   25.9065 H   0  0  0  0  0  0
  -22.0609   -2.7615   23.2842 H   0  0  0  0  0  0
  -22.4121  -11.9853   22.4732 H   0  0  0  0  0  0
  -21.1123  -13.1236   22.2619 H   0  0  0  0  0  0
  -24.6672  -15.8466   20.5315 H   0  0  0  0  0  0
  -26.2882  -15.6293   20.1032 H   0  0  0  0  0  0
  -26.7159  -32.5502   23.1105 H   0  0  0  0  0  0
  -25.0016  -33.9744   25.0389 H   0  0  0  0  0  0
  -22.7013  -31.3053   21.4045 H   0  0  0  0  0  0
  -23.3755  -35.9629   23.3313 H   0  0  0  0  0  0
  -24.3557  -36.8954   22.2043 H   0  0  0  0  0  0
  -23.7251  -37.6505   23.6681 H   0  0  0  0  0  0
  -26.0615  -31.5899   20.5987 H   0  0  0  0  0  0
  -26.8295  -30.8680   21.9854 H   0  0  0  0  0  0
  -28.1247  -29.0872   21.1027 H   0  0  0  0  0  0
  -25.9854  -25.9184   19.0951 H   0  0  0  0  0  0
  -23.9523  -27.2576   19.1028 H   0  0  0  0  0  0
  -23.7325  -30.5937   19.4079 H   0  0  0  0  0  0
  -22.7431  -29.2404   19.8734 H   0  0  0  0  0  0
  -25.1295  -36.1941   25.0828 H   0  0  0  0  0  0
  -20.9877  -28.3289   24.1457 H   0  0  0  0  0  0
  -20.5720  -26.2318   23.3600 H   0  0  0  0  0  0
  -21.6628  -26.7538   22.1194 H   0  0  0  0  0  0
  -19.6988  -25.6330   21.1247 H   0  0  0  0  0  0
  -19.6748  -27.3211   20.6713 H   0  0  0  0  0  0
  -17.4204  -26.6661   21.3977 H   0  0  0  0  0  0
  -18.0325  -26.0102   22.9006 H   0  0  0  0  0  0
  -19.7952  -30.7214   24.2310 H   0  0  0  0  0  0
  -17.5069  -31.6301   24.5169 H   0  0  0  0  0  0
  -15.5370  -30.3047   23.7703 H   0  0  0  0  0  0
  -15.8638  -28.0898   22.7069 H   0  0  0  0  0  0
  -24.5927  -30.7061   25.7758 H   0  0  0  0  0  0
  -24.8873  -32.2876   26.4842 H   0  0  0  0  0  0
  -25.8040  -30.8922   27.0238 H   0  0  0  0  0  0
  -26.2951  -29.6759   24.1228 H   0  0  0  0  0  0
  -27.4173  -29.7352   25.4639 H   0  0  0  0  0  0
  -27.8755  -30.4383   23.9308 H   0  0  0  0  0  0
  -27.2671  -33.3665   26.2032 H   0  0  0  0  0  0
  -28.3861  -32.6902   25.0315 H   0  0  0  0  0  0
  -28.0711  -31.8506   26.5434 H   0  0  0  0  0  0
  -28.2568  -38.0098   24.7510 H   0  0  0  0  0  0
  -28.1087  -36.2635   24.6265 H   0  0  0  0  0  0
  -27.2274  -37.1417   25.8844 H   0  0  0  0  0  0
  -20.9337  -29.8768   21.6888 H   0  0  0  0  0  0
  -26.0188  -38.2867   24.1425 H   0  0  0  0  0  0
  -29.0900  -20.9898   23.0228 H   0  0  0  0  0  0
  -29.5296  -20.4115   18.7940 H   0  0  0  0  0  0
  -28.5029  -22.2665   18.5193 H   0  0  0  0  0  0
  -27.0911  -22.5335   19.4923 H   0  0  0  0  0  0
  -30.6581  -23.0337   21.7977 H   0  0  0  0  0  0
  -30.7825  -23.2247   20.0703 H   0  0  0  0  0  0
  -27.4402  -24.6249   18.3992 H   0  0  0  0  0  0
  -29.1568  -24.4933   18.4381 H   0  0  0  0  0  0
  -30.5070  -25.4388   20.6909 H   0  0  0  0  0  0
  -29.5725  -25.0846   22.1084 H   0  0  0  0  0  0
  -28.1979  -22.6047   21.5080 H   0  0  0  0  0  0
  -27.5313  -24.9998   20.9634 H   0  0  0  0  0  0
  -28.8874  -15.9359   25.5370 H   0  0  0  0  0  0
  -29.9517  -17.2619   26.0069 H   0  0  0  0  0  0
  -30.4196  -16.1694   24.7155 H   0  0  0  0  0  0
  -29.7809  -17.1363   15.7406 H   0  0  0  0  0  0
  -28.9477  -16.3244   17.0641 H   0  0  0  0  0  0
  -30.7054  -16.2336   16.9425 H   0  0  0  0  0  0
  -30.9781  -16.7122   22.6644 H   0  0  0  0  0  0
  -31.7168  -16.8794   21.1408 H   0  0  0  0  0  0
  -28.0072  -18.0870   24.6054 H   0  0  0  0  0  0
  -28.4928  -17.0186   23.3112 H   0  0  0  0  0  0
  -29.0185  -18.7068   17.5482 H   0  0  0  0  0  0
  -30.7705  -18.7839   17.2987 H   0  0  0  0  0  0
  -29.1411  -15.3536   21.5360 H   0  0  0  0  0  0
  1 25  1  0  0  0
  1 30  2  0  0  0
  1 88  1  0  0  0
  2  3  1  0  0  0
  2 25  1  0  0  0
  2 91  1  0  0  0
  2 92  1  0  0  0
  3  4  1  0  0  0
  3 93  1  0  0  0
  3 94  1  0  0  0
  4  5  1  0  0  0
  4 95  1  0  0  0
  4 96  1  0  0  0
  5  6  1  0  0  0
  5 26  1  0  0  0
  5 97  1  0  0  0
  6 25  1  0  0  0
  6 98  1  0  0  0
  6 99  1  0  0  0
  7  8  2  0  0  0
  7 26  1  0  0  0
  7 29  1  0  0  0
  8  9  1  0  0  0
  8 22  1  0  0  0
  9 10  1  0  0  0
  9 27  2  0  0  0
 10 11  2  0  0  0
 10 15  1  0  0  0
 11 12  1  0  0  0
 11100  1  0  0  0
 12 13  2  0  0  0
 12101  1  0  0  0
 13 14  1  0  0  0
 13 31  1  0  0  0
 14 15  2  0  0  0
 14102  1  0  0  0
 15103  1  0  0  0
 16 17  2  0  0  0
 16 21  1  0  0  0
 16 31  1  0  0  0
 17 18  1  0  0  0
 17104  1  0  0  0
 18 19  2  0  0  0
 18105  1  0  0  0
 19 20  1  0  0  0
 19 24  1  0  0  0
 20 21  2  0  0  0
 20106  1  0  0  0
 21 23  1  0  0  0
 22 28  1  0  0  0
 22 32  2  0  0  0
 26 27  1  0  0  0
 28107  1  0  0  0
 28108  1  0  0  0
 29109  1  0  0  0
 29110  1  0  0  0
 33 34  1  0  0  0
 33 66  1  0  0  0
 33 70  2  0  0  0
 34 36  1  0  0  0
 34 59  1  0  0  0
 34111  1  0  0  0
 35 44  2  0  0  0
 35 45  1  0  0  0
 35 68  1  0  0  0
 36 56  1  0  0  0
 36112  1  0  0  0
 37 39  1  0  0  0
 37 47  1  0  0  0
 37 66  1  0  0  0
 37113  1  0  0  0
 38 43  2  0  0  0
 38 46  1  0  0  0
 38 47  1  0  0  0
 39 64  1  0  0  0
 39 67  2  0  0  0
 40 52  1  0  0  0
 40 53  2  0  0  0
 40 58  1  0  0  0
 41114  1  0  0  0
 41115  1  0  0  0
 41116  1  0  0  0
 41 48  1  0  0  0
 42 43  1  0  0  0
 42 66  1  0  0  0
 42117  1  0  0  0
 42118  1  0  0  0
 43 44  1  0  0  0
 44119  1  0  0  0
 45 46  2  0  0  0
 45120  1  0  0  0
 46121  1  0  0  0
 47122  1  0  0  0
 47123  1  0  0  0
 48 56  1  0  0  0
 48 65  1  0  0  0
 48124  1  0  0  0
 49 50  1  0  0  0
 49 53  1  0  0  0
 49 64  1  0  0  0
 49125  1  0  0  0
 50 51  1  0  0  0
 50126  1  0  0  0
 50127  1  0  0  0
 51 52  1  0  0  0
 51128  1  0  0  0
 51129  1  0  0  0
 52130  1  0  0  0
 52131  1  0  0  0
 53 54  1  0  0  0
 54 55  2  0  0  0
 54132  1  0  0  0
 55 57  1  0  0  0
 55133  1  0  0  0
 56 69  2  0  0  0
 57 58  2  0  0  0
 57134  1  0  0  0
 58135  1  0  0  0
 59 60  1  0  0  0
 59 61  1  0  0  0
 59 62  1  0  0  0
 60136  1  0  0  0
 60137  1  0  0  0
 60138  1  0  0  0
 61139  1  0  0  0
 61140  1  0  0  0
 61141  1  0  0  0
 62142  1  0  0  0
 62143  1  0  0  0
 62144  1  0  0  0
 63 65  1  0  0  0
 63145  1  0  0  0
 63146  1  0  0  0
 63147  1  0  0  0
 64148  1  0  0  0
 65149  1  0  0  0
 68 82  1  0  0  0
 71 73  2  0  0  0
 71 75  1  0  0  0
 71150  1  0  0  0
 72 73  1  0  0  0
 72 76  2  0  0  0
 72151  1  0  0  0
 73 81  1  0  0  0
 74 75  2  0  0  0
 74 76  1  0  0  0
 74 85  1  0  0  0
 75 89  1  0  0  0
 76 90  1  0  0  0
 77 79  1  0  0  0
 77 81  1  0  0  0
 77152  1  0  0  0
 77153  1  0  0  0
 78 80  1  0  0  0
 78 81  1  0  0  0
 78154  1  0  0  0
 78155  1  0  0  0
 79 82  1  0  0  0
 79156  1  0  0  0
 79157  1  0  0  0
 80 82  1  0  0  0
 80158  1  0  0  0
 80159  1  0  0  0
 81160  1  0  0  0
 82161  1  0  0  0
 83 86  1  0  0  0
 83162  1  0  0  0
 83163  1  0  0  0
 83164  1  0  0  0
 84 87  1  0  0  0
 84165  1  0  0  0
 84166  1  0  0  0
 84167  1  0  0  0
 85 88  1  0  0  0
 85168  1  0  0  0
 85169  1  0  0  0
 86 89  1  0  0  0
 86170  1  0  0  0
 86171  1  0  0  0
 87 90  1  0  0  0
 87172  1  0  0  0
 87173  1  0  0  0
 88174  1  0  0  0
M  ISO  4   1 100  68 101  82 101  88 100
M  END
> <chiral flag>
0

> <version>
0

> <s_m_source_file>
/data/baiqing/PycharmProjects/Reinvent-master-3.2/result/LINK_invent/BTK/process_docking_weight1_custom_sum_contain_oxygen_bond_distance_aromatic_linkinvent_7_9_3/rearranged_h_0151.sdf

> <i_m_source_file_index>
37

> <r_mmod_Potential_Energy-OPLS-2005>
19.8907222747803

> <r_mmod_Stretch_Energy-OPLS-2005>
52.5374221801758

> <r_mmod_Bend_Energy-OPLS-2005>
130.183059692383

> <r_mmod_Torsional_Energy-OPLS-2005>
282.463531494141

> <r_mmod_Improper_Torsional_Energy-OPLS-2005>
3.28552055358887

> <r_mmod_Van_der_Waal_Energy-OPLS-2005>
157.213424682617

> <r_mmod_Electrostatic_Energy-OPLS-2005>
-418.260559082031

> <r_mmod_Solvation_Energy-OPLS-2005>
-205.695190429688

> <b_mmod_Minimization_Converged-OPLS-2005>
0

> <r_mmod_RMS_Derivative-OPLS-2005>
3.87761878967285

$$$$
37
                    3D
 Structure written by MMmdl.
179190  0  0  1  0            999 V2000
  -30.6880  -14.7035   20.4477 C   0  0  0  0  0  0
  -30.4074  -12.4421   19.4522 C   0  0  0  0  0  0
  -29.4855  -12.4800   18.2199 C   0  0  0  0  0  0
  -28.0188  -12.2749   18.6498 C   0  0  0  0  0  0
  -27.6200  -13.1800   19.8437 C   0  0  2  0  0  0
  -28.6847  -13.1785   20.9705 C   0  0  0  0  0  0
  -25.2481  -13.8027   20.5713 C   0  0  0  0  0  0
  -24.1733  -13.0342   20.9260 C   0  0  0  0  0  0
  -24.6304  -11.6806   20.8886 C   0  0  0  0  0  0
  -23.8980  -10.4223   21.0525 C   0  0  0  0  0  0
  -24.3567   -9.4146   21.9274 C   0  0  0  0  0  0
  -23.6271   -8.2175   22.0810 C   0  0  0  0  0  0
  -22.4265   -8.0243   21.3575 C   0  0  0  0  0  0
  -21.9871   -9.0201   20.4689 C   0  0  0  0  0  0
  -22.7179  -10.2086   20.3120 C   0  0  0  0  0  0
  -21.6836   -6.0736   22.5304 C   0  0  0  0  0  0
  -21.4003   -6.5636   23.8237 C   0  0  0  0  0  0
  -21.3669   -5.6786   24.9195 C   0  0  0  0  0  0
  -21.6052   -4.3055   24.7244 C   0  0  0  0  0  0
  -21.8832   -3.8150   23.4367 C   0  0  0  0  0  0
  -21.9210   -4.6971   22.3426 C   0  0  0  0  0  0
  -22.7781  -13.5206   21.1890 C   0  0  0  0  0  0
  -22.1651   -4.2158   21.1004 F   0  0  0  0  0  0
  -21.5605   -3.4532   25.7737 F   0  0  0  0  0  0
  -29.9697  -13.5310   20.3557 N   0  0  0  0  0  0
  -26.2824  -12.9112   20.3369 N   0  0  0  0  0  0
  -25.9202  -11.6328   20.5902 N   0  0  0  0  0  0
  -22.0360  -12.8284   22.0446 N   0  0  0  0  0  0
  -25.4185  -15.1726   20.4026 N   0  0  0  0  0  0
  -31.8987  -14.6602   20.1956 O   0  0  0  0  0  0
  -21.6632   -6.8853   21.4258 O   0  0  0  0  0  0
  -22.3521  -14.5535   20.6728 O   0  0  0  0  0  0
  -24.6205  -31.8616   23.2039 C   0  0  0  0  0  0
  -25.9072  -32.4794   23.8356 C   0  0  1  0  0  0
  -27.2313  -27.3488   20.1175 C   0  0  0  0  0  0
  -25.5906  -33.8592   24.2294 N   0  0  0  0  0  0
  -23.4124  -30.4855   21.5456 C   0  0  2  0  0  0
  -24.8602  -28.9421   20.1148 C   0  0  0  0  0  0
  -22.7443  -29.4638   22.4956 C   0  0  0  0  0  0
  -18.0278  -28.1378   22.8500 C   0  0  0  0  0  0
  -24.1487  -36.7299   23.2641 C   0  0  0  0  0  0
  -25.9488  -30.8071   21.3661 C   0  0  0  0  0  0
  -26.0257  -29.4340   20.7131 C   0  0  0  0  0  0
  -27.2108  -28.6475   20.7064 C   0  0  0  0  0  0
  -26.0338  -26.8907   19.5197 C   0  0  0  0  0  0
  -24.8661  -27.6748   19.5132 C   0  0  0  0  0  0
  -23.6258  -29.8167   20.1611 C   0  0  0  0  0  0
  -25.4112  -36.3093   24.0329 C   0  0  1  0  0  0
  -20.5881  -28.3677   23.1307 C   0  0  2  0  0  0
  -20.6773  -26.9403   22.5425 C   0  0  0  0  0  0
  -19.5747  -26.6383   21.5229 C   0  0  0  0  0  0
  -18.1927  -26.7928   22.1638 C   0  0  0  0  0  0
  -19.1532  -28.8841   23.2902 C   0  0  0  0  0  0
  -18.9460  -30.1457   23.8900 C   0  0  0  0  0  0
  -17.6455  -30.6584   24.0572 C   0  0  0  0  0  0
  -25.9039  -34.9455   23.5117 C   0  0  0  0  0  0
  -16.5347  -29.9085   23.6330 C   0  0  0  0  0  0
  -16.7266  -28.6505   23.0350 C   0  0  0  0  0  0
  -26.4471  -31.6578   25.0700 C   0  0  0  0  0  0
  -25.3717  -31.3711   26.1442 C   0  0  0  0  0  0
  -27.0309  -30.3012   24.6106 C   0  0  0  0  0  0
  -27.6035  -32.4308   25.7467 C   0  0  0  0  0  0
  -27.5584  -37.1803   24.8468 C   0  0  0  0  0  0
  -21.4164  -29.3030   22.3697 N   0  0  0  0  0  0
  -26.4299  -37.3785   23.9401 N   0  0  0  0  0  0
  -24.6796  -31.0671   22.0963 N   0  0  0  0  0  0
  -23.4189  -28.8176   23.3022 O   0  0  0  0  0  0
  -28.4013  -26.5829   20.1558 O   0  0  0  0  0  0
  -26.5618  -34.8919   22.4686 O   0  0  0  0  0  0
  -23.5378  -32.1398   23.7382 O   0  0  0  0  0  0
  -29.9305  -19.7652   19.0532 C   0  0  0  0  0  0
  -30.2557  -19.0032   17.8975 C   0  0  0  0  0  0
  -30.5815  -21.0654   19.1146 C   0  0  0  0  0  0
  -31.3928  -19.3098   17.1690 C   0  0  0  0  0  0
  -31.8550  -21.1311   18.4607 C   0  0  0  0  0  0
  -29.5650  -17.8187   17.2502 C   0  0  0  0  0  0
  -31.6500  -18.3567   16.0351 C   0  0  0  0  0  0
  -30.6087  -17.2502   16.2611 C   0  0  0  0  0  0
  -28.6476  -22.5926   20.3685 C   0  0  0  0  0  0
  -29.9857  -23.5127   18.5448 C   0  0  0  0  0  0
  -28.3119  -24.0795   20.8142 C   0  0  0  0  0  0
  -29.8458  -24.9591   19.0718 C   0  0  0  0  0  0
  -28.2969  -17.9057   20.1768 C   0  0  0  0  0  0
  -30.4336  -18.4784   21.2367 C   0  0  0  0  0  0
  -28.7024  -16.3760   20.3644 C   0  0  0  0  0  0
  -31.0363  -17.1180   20.7864 C   0  0  0  0  0  0
  -29.3407  -19.0499   20.3146 C   0  0  0  0  0  0
  -30.0455  -22.4446   19.6857 C   0  0  2  0  0  0
  -28.4678  -25.1827   19.7108 C   0  0  2  0  0  0
  -32.9478  -22.1131   18.8682 C   0  0  0  0  0  0
  -32.2512  -20.2772   17.4939 N   0  0  0  0  0  0
  -30.1061  -15.9610   20.6519 N   0  0  0  0  0  0
  -31.4486  -12.5376   19.1358 H   0  0  0  0  0  0
  -30.3473  -11.4759   19.9569 H   0  0  0  0  0  0
  -29.7766  -11.7070   17.5118 H   0  0  0  0  0  0
  -29.5965  -13.4353   17.7032 H   0  0  0  0  0  0
  -27.8933  -11.2273   18.9178 H   0  0  0  0  0  0
  -27.3498  -12.4403   17.8064 H   0  0  0  0  0  0
  -27.5492  -14.1501   19.3879 H   0  0  0  0  0  0
  -28.7512  -12.1926   21.4354 H   0  0  0  0  0  0
  -28.4265  -13.8685   21.7742 H   0  0  0  0  0  0
  -25.2720   -9.5584   22.4867 H   0  0  0  0  0  0
  -23.9993   -7.4560   22.7541 H   0  0  0  0  0  0
  -21.0800   -8.8690   19.9008 H   0  0  0  0  0  0
  -22.3650  -10.9623   19.6230 H   0  0  0  0  0  0
  -21.1950   -7.6133   23.9695 H   0  0  0  0  0  0
  -21.1493   -6.0544   25.9089 H   0  0  0  0  0  0
  -22.0618   -2.7620   23.2863 H   0  0  0  0  0  0
  -22.3902  -11.9958   22.4893 H   0  0  0  0  0  0
  -21.1018  -13.1432   22.2599 H   0  0  0  0  0  0
  -24.6495  -15.8243   20.5051 H   0  0  0  0  0  0
  -26.2850  -15.6191   20.1321 H   0  0  0  0  0  0
  -26.7138  -32.5490   23.1112 H   0  0  0  0  0  0
  -25.0035  -33.9745   25.0431 H   0  0  0  0  0  0
  -22.7037  -31.3037   21.4027 H   0  0  0  0  0  0
  -23.3746  -35.9641   23.3316 H   0  0  0  0  0  0
  -24.3594  -36.8906   22.2057 H   0  0  0  0  0  0
  -23.7241  -37.6504   23.6654 H   0  0  0  0  0  0
  -26.0703  -31.5698   20.5944 H   0  0  0  0  0  0
  -26.8329  -30.8626   21.9890 H   0  0  0  0  0  0
  -28.1083  -29.0298   21.1747 H   0  0  0  0  0  0
  -25.9532  -25.9184   19.0607 H   0  0  0  0  0  0
  -23.9681  -27.2858   19.0559 H   0  0  0  0  0  0
  -23.7369  -30.5915   19.4004 H   0  0  0  0  0  0
  -22.7467  -29.2413   19.8651 H   0  0  0  0  0  0
  -25.1290  -36.1954   25.0824 H   0  0  0  0  0  0
  -20.9987  -28.3240   24.1419 H   0  0  0  0  0  0
  -20.5703  -26.2265   23.3616 H   0  0  0  0  0  0
  -21.6633  -26.7447   22.1187 H   0  0  0  0  0  0
  -19.6903  -25.6298   21.1236 H   0  0  0  0  0  0
  -19.6681  -27.3213   20.6776 H   0  0  0  0  0  0
  -17.4200  -26.6703   21.4031 H   0  0  0  0  0  0
  -18.0304  -26.0067   22.9021 H   0  0  0  0  0  0
  -19.7939  -30.7292   24.2244 H   0  0  0  0  0  0
  -17.5009  -31.6267   24.5184 H   0  0  0  0  0  0
  -15.5349  -30.2990   23.7658 H   0  0  0  0  0  0
  -15.8676  -28.0841   22.7040 H   0  0  0  0  0  0
  -24.5877  -30.7084   25.7764 H   0  0  0  0  0  0
  -24.8934  -32.2886   26.4875 H   0  0  0  0  0  0
  -25.8044  -30.8868   27.0204 H   0  0  0  0  0  0
  -26.2864  -29.6772   24.1148 H   0  0  0  0  0  0
  -27.4063  -29.7248   25.4568 H   0  0  0  0  0  0
  -27.8700  -30.4327   23.9274 H   0  0  0  0  0  0
  -27.2642  -33.3602   26.2053 H   0  0  0  0  0  0
  -28.3834  -32.6877   25.0285 H   0  0  0  0  0  0
  -28.0717  -31.8431   26.5380 H   0  0  0  0  0  0
  -28.2592  -38.0102   24.7506 H   0  0  0  0  0  0
  -28.1084  -36.2634   24.6297 H   0  0  0  0  0  0
  -27.2310  -37.1445   25.8873 H   0  0  0  0  0  0
  -20.9320  -29.8744   21.6913 H   0  0  0  0  0  0
  -26.0181  -38.2862   24.1395 H   0  0  0  0  0  0
  -28.6832  -18.1743   16.7096 H   0  0  0  0  0  0
  -29.2583  -17.0364   17.9194 H   0  0  0  0  0  0
  -32.6689  -17.9744   16.0448 H   0  0  0  0  0  0
  -31.4711  -18.8707   15.0923 H   0  0  0  0  0  0
  -30.1795  -16.8556   15.3401 H   0  0  0  0  0  0
  -31.1149  -16.4203   16.7568 H   0  0  0  0  0  0
  -27.8733  -22.2463   19.6835 H   0  0  0  0  0  0
  -28.5867  -21.9573   21.2511 H   0  0  0  0  0  0
  -30.8457  -23.4914   17.8847 H   0  0  0  0  0  0
  -29.1540  -23.2873   17.8763 H   0  0  0  0  0  0
  -28.9655  -24.3326   21.6498 H   0  0  0  0  0  0
  -27.2959  -24.1132   21.2102 H   0  0  0  0  0  0
  -29.9859  -25.6626   18.2522 H   0  0  0  0  0  0
  -30.6389  -25.1644   19.7965 H   0  0  0  0  0  0
  -27.5895  -18.0947   20.9878 H   0  0  0  0  0  0
  -27.6904  -18.0598   19.2844 H   0  0  0  0  0  0
  -31.2288  -19.2163   21.3466 H   0  0  0  0  0  0
  -30.0160  -18.3533   22.2369 H   0  0  0  0  0  0
  -28.4281  -15.9044   19.4328 H   0  0  0  0  0  0
  -28.0595  -15.9461   21.1325 H   0  0  0  0  0  0
  -31.8262  -16.8591   21.4922 H   0  0  0  0  0  0
  -31.5317  -17.2702   19.8268 H   0  0  0  0  0  0
  -28.8452  -19.8463   20.8619 H   0  0  0  0  0  0
  -30.7841  -22.7647   20.4205 H   0  0  0  0  0  0
  -27.7508  -24.9869   18.9191 H   0  0  0  0  0  0
  -33.1340  -22.0307   19.9379 H   0  0  0  0  0  0
  -32.7435  -23.1558   18.6390 H   0  0  0  0  0  0
  -33.8875  -21.8655   18.3745 H   0  0  0  0  0  0
  1 25  1  0  0  0
  1 30  2  0  0  0
  1 92  1  0  0  0
  2  3  1  0  0  0
  2 25  1  0  0  0
  2 93  1  0  0  0
  2 94  1  0  0  0
  3  4  1  0  0  0
  3 95  1  0  0  0
  3 96  1  0  0  0
  4  5  1  0  0  0
  4 97  1  0  0  0
  4 98  1  0  0  0
  5  6  1  0  0  0
  5 26  1  0  0  0
  5 99  1  0  0  0
  6 25  1  0  0  0
  6100  1  0  0  0
  6101  1  0  0  0
  7  8  2  0  0  0
  7 26  1  0  0  0
  7 29  1  0  0  0
  8  9  1  0  0  0
  8 22  1  0  0  0
  9 10  1  0  0  0
  9 27  2  0  0  0
 10 11  2  0  0  0
 10 15  1  0  0  0
 11 12  1  0  0  0
 11102  1  0  0  0
 12 13  2  0  0  0
 12103  1  0  0  0
 13 14  1  0  0  0
 13 31  1  0  0  0
 14 15  2  0  0  0
 14104  1  0  0  0
 15105  1  0  0  0
 16 17  2  0  0  0
 16 21  1  0  0  0
 16 31  1  0  0  0
 17 18  1  0  0  0
 17106  1  0  0  0
 18 19  2  0  0  0
 18107  1  0  0  0
 19 20  1  0  0  0
 19 24  1  0  0  0
 20 21  2  0  0  0
 20108  1  0  0  0
 21 23  1  0  0  0
 22 28  1  0  0  0
 22 32  2  0  0  0
 26 27  1  0  0  0
 28109  1  0  0  0
 28110  1  0  0  0
 29111  1  0  0  0
 29112  1  0  0  0
 33 34  1  0  0  0
 33 66  1  0  0  0
 33 70  2  0  0  0
 34 36  1  0  0  0
 34 59  1  0  0  0
 34113  1  0  0  0
 35 44  2  0  0  0
 35 45  1  0  0  0
 35 68  1  0  0  0
 36 56  1  0  0  0
 36114  1  0  0  0
 37 39  1  0  0  0
 37 47  1  0  0  0
 37 66  1  0  0  0
 37115  1  0  0  0
 38 43  2  0  0  0
 38 46  1  0  0  0
 38 47  1  0  0  0
 39 64  1  0  0  0
 39 67  2  0  0  0
 40 52  1  0  0  0
 40 53  2  0  0  0
 40 58  1  0  0  0
 41116  1  0  0  0
 41117  1  0  0  0
 41118  1  0  0  0
 41 48  1  0  0  0
 42 43  1  0  0  0
 42 66  1  0  0  0
 42119  1  0  0  0
 42120  1  0  0  0
 43 44  1  0  0  0
 44121  1  0  0  0
 45 46  2  0  0  0
 45122  1  0  0  0
 46123  1  0  0  0
 47124  1  0  0  0
 47125  1  0  0  0
 48 56  1  0  0  0
 48 65  1  0  0  0
 48126  1  0  0  0
 49 50  1  0  0  0
 49 53  1  0  0  0
 49 64  1  0  0  0
 49127  1  0  0  0
 50 51  1  0  0  0
 50128  1  0  0  0
 50129  1  0  0  0
 51 52  1  0  0  0
 51130  1  0  0  0
 51131  1  0  0  0
 52132  1  0  0  0
 52133  1  0  0  0
 53 54  1  0  0  0
 54 55  2  0  0  0
 54134  1  0  0  0
 55 57  1  0  0  0
 55135  1  0  0  0
 56 69  2  0  0  0
 57 58  2  0  0  0
 57136  1  0  0  0
 58137  1  0  0  0
 59 60  1  0  0  0
 59 61  1  0  0  0
 59 62  1  0  0  0
 60138  1  0  0  0
 60139  1  0  0  0
 60140  1  0  0  0
 61141  1  0  0  0
 61142  1  0  0  0
 61143  1  0  0  0
 62144  1  0  0  0
 62145  1  0  0  0
 62146  1  0  0  0
 63 65  1  0  0  0
 63147  1  0  0  0
 63148  1  0  0  0
 63149  1  0  0  0
 64150  1  0  0  0
 65151  1  0  0  0
 68 89  1  0  0  0
 71 72  2  0  0  0
 71 73  1  0  0  0
 71 87  1  0  0  0
 72 74  1  0  0  0
 72 76  1  0  0  0
 73 75  2  0  0  0
 73 88  1  0  0  0
 74 77  1  0  0  0
 74 91  2  0  0  0
 75 90  1  0  0  0
 75 91  1  0  0  0
 76 78  1  0  0  0
 76152  1  0  0  0
 76153  1  0  0  0
 77 78  1  0  0  0
 77154  1  0  0  0
 77155  1  0  0  0
 78156  1  0  0  0
 78157  1  0  0  0
 79 81  1  0  0  0
 79 88  1  0  0  0
 79158  1  0  0  0
 79159  1  0  0  0
 80 82  1  0  0  0
 80 88  1  0  0  0
 80160  1  0  0  0
 80161  1  0  0  0
 81 89  1  0  0  0
 81162  1  0  0  0
 81163  1  0  0  0
 82 89  1  0  0  0
 82164  1  0  0  0
 82165  1  0  0  0
 83 85  1  0  0  0
 83 87  1  0  0  0
 83166  1  0  0  0
 83167  1  0  0  0
 84 86  1  0  0  0
 84 87  1  0  0  0
 84168  1  0  0  0
 84169  1  0  0  0
 85 92  1  0  0  0
 85170  1  0  0  0
 85171  1  0  0  0
 86 92  1  0  0  0
 86172  1  0  0  0
 86173  1  0  0  0
 87174  1  0  0  0
 88175  1  0  0  0
 89176  1  0  0  0
 90177  1  0  0  0
 90178  1  0  0  0
 90179  1  0  0  0
M  ISO  4   1 100  68 101  89 101  92 100
M  END
> <chiral flag>
0

> <version>
0

> <s_m_source_file>
/data/baiqing/PycharmProjects/Reinvent-master-3.2/result/LINK_invent/BTK/process_docking_weight1_custom_sum_contain_oxygen_bond_distance_aromatic_linkinvent_7_9_3/rearranged_h_0151.sdf

> <i_m_source_file_index>
38

> <r_mmod_Potential_Energy-OPLS-2005>
375.753448486328

> <r_mmod_Stretch_Energy-OPLS-2005>
93.3582458496094

> <r_mmod_Bend_Energy-OPLS-2005>
276.428009033203

> <r_mmod_Torsional_Energy-OPLS-2005>
460.902008056641

> <r_mmod_Improper_Torsional_Energy-OPLS-2005>
9.17891216278076

> <r_mmod_Van_der_Waal_Energy-OPLS-2005>
168.730438232422

> <r_mmod_Electrostatic_Energy-OPLS-2005>
-478.221405029297

> <r_mmod_Solvation_Energy-OPLS-2005>
-216.056213378906

> <b_mmod_Minimization_Converged-OPLS-2005>
0

> <r_mmod_RMS_Derivative-OPLS-2005>
4.7794132232666

$$$$
38
                    3D
 Structure written by MMmdl.
162171  0  0  1  0            999 V2000
  -30.5283  -14.8947   20.4299 C   0  0  0  0  0  0
  -30.4508  -12.5497   19.4839 C   0  0  0  0  0  0
  -29.5227  -12.5262   18.2469 C   0  0  0  0  0  0
  -28.0522  -12.3207   18.6622 C   0  0  0  0  0  0
  -27.6364  -13.2364   19.8426 C   0  0  2  0  0  0
  -28.6823  -13.2192   20.9783 C   0  0  0  0  0  0
  -25.2500  -13.8188   20.5686 C   0  0  0  0  0  0
  -24.1805  -13.0422   20.9208 C   0  0  0  0  0  0
  -24.6407  -11.6905   20.8735 C   0  0  0  0  0  0
  -23.9087  -10.4277   21.0398 C   0  0  0  0  0  0
  -24.3640   -9.4194   21.9178 C   0  0  0  0  0  0
  -23.6305   -8.2235   22.0753 C   0  0  0  0  0  0
  -22.4284   -8.0276   21.3544 C   0  0  0  0  0  0
  -21.9923   -9.0249   20.4643 C   0  0  0  0  0  0
  -22.7257  -10.2127   20.3049 C   0  0  0  0  0  0
  -21.6864   -6.0732   22.5272 C   0  0  0  0  0  0
  -21.4018   -6.5635   23.8204 C   0  0  0  0  0  0
  -21.3660   -5.6787   24.9167 C   0  0  0  0  0  0
  -21.6048   -4.3048   24.7217 C   0  0  0  0  0  0
  -21.8824   -3.8144   23.4336 C   0  0  0  0  0  0
  -21.9198   -4.6961   22.3395 C   0  0  0  0  0  0
  -22.7826  -13.5200   21.1861 C   0  0  0  0  0  0
  -22.1667   -4.2150   21.0970 F   0  0  0  0  0  0
  -21.5627   -3.4528   25.7728 F   0  0  0  0  0  0
  -29.9654  -13.6247   20.3880 N   0  0  0  0  0  0
  -26.2919  -12.9396   20.3240 N   0  0  0  0  0  0
  -25.9335  -11.6533   20.5724 N   0  0  0  0  0  0
  -22.0488  -12.8186   22.0425 N   0  0  0  0  0  0
  -25.4145  -15.1921   20.4092 N   0  0  0  0  0  0
  -31.7330  -15.0052   20.1704 O   0  0  0  0  0  0
  -21.6647   -6.8877   21.4235 O   0  0  0  0  0  0
  -22.3496  -14.5492   20.6689 O   0  0  0  0  0  0
  -24.6397  -31.8470   23.1887 C   0  0  0  0  0  0
  -25.9178  -32.4716   23.8281 C   0  0  1  0  0  0
  -27.2297  -27.1730   20.1604 C   0  0  0  0  0  0
  -25.5934  -33.8521   24.2198 N   0  0  0  0  0  0
  -23.4429  -30.4616   21.5342 C   0  0  2  0  0  0
  -24.8951  -28.8830   20.1223 C   0  0  0  0  0  0
  -22.7543  -29.4550   22.4878 C   0  0  0  0  0  0
  -18.0294  -28.1387   22.8467 C   0  0  0  0  0  0
  -24.1492  -36.7260   23.2642 C   0  0  0  0  0  0
  -25.9943  -30.7332   21.3803 C   0  0  0  0  0  0
  -26.0706  -29.3429   20.7313 C   0  0  0  0  0  0
  -27.2435  -28.5047   20.7279 C   0  0  0  0  0  0
  -26.0283  -26.7925   19.5300 C   0  0  0  0  0  0
  -24.8836  -27.6196   19.5081 C   0  0  0  0  0  0
  -23.6702  -29.7829   20.1570 C   0  0  0  0  0  0
  -25.4124  -36.3041   24.0313 C   0  0  1  0  0  0
  -20.5904  -28.3712   23.1240 C   0  0  2  0  0  0
  -20.6771  -26.9414   22.5406 C   0  0  0  0  0  0
  -19.5753  -26.6376   21.5199 C   0  0  0  0  0  0
  -18.1935  -26.7929   22.1609 C   0  0  0  0  0  0
  -19.1550  -28.8864   23.2850 C   0  0  0  0  0  0
  -18.9472  -30.1458   23.8882 C   0  0  0  0  0  0
  -17.6470  -30.6589   24.0551 C   0  0  0  0  0  0
  -25.9066  -34.9415   23.5061 C   0  0  0  0  0  0
  -16.5359  -29.9081   23.6328 C   0  0  0  0  0  0
  -16.7281  -28.6495   23.0355 C   0  0  0  0  0  0
  -26.4518  -31.6580   25.0713 C   0  0  0  0  0  0
  -25.3718  -31.3752   26.1419 C   0  0  0  0  0  0
  -27.0366  -30.2977   24.6265 C   0  0  0  0  0  0
  -27.6044  -32.4350   25.7512 C   0  0  0  0  0  0
  -27.5577  -37.1787   24.8464 C   0  0  0  0  0  0
  -21.4236  -29.3045   22.3626 N   0  0  0  0  0  0
  -26.4289  -37.3750   23.9406 N   0  0  0  0  0  0
  -24.7116  -31.0351   22.0901 N   0  0  0  0  0  0
  -23.4195  -28.8106   23.3030 O   0  0  0  0  0  0
  -28.3171  -26.2447   20.1170 O   0  0  0  0  0  0
  -26.5648  -34.8904   22.4638 O   0  0  0  0  0  0
  -23.5519  -32.1332   23.7116 O   0  0  0  0  0  0
  -28.7194  -18.1928   19.6379 C   0  0  0  0  0  0
  -28.5818  -19.6326   19.5626 C   0  0  0  0  0  0
  -29.3919  -20.5337   20.3327 C   0  0  0  0  0  0
  -30.2835  -19.7649   21.1837 C   0  0  0  0  0  0
  -29.6871  -17.5114   20.4394 C   0  0  0  0  0  0
  -31.2018  -19.8836   23.6387 C   0  0  0  0  0  0
  -30.5710  -21.2152   23.3490 C   0  0  0  0  0  0
  -31.1693  -20.4069   22.2131 C   0  0  0  0  0  0
  -27.5353  -20.1952   18.6177 C   0  0  0  0  0  0
  -30.7780  -22.8428   20.3973 C   0  0  0  0  0  0
  -28.1999  -23.2864   20.3177 C   0  0  0  0  0  0
  -28.2873  -24.8852   20.8344 C   0  0  0  0  0  0
  -29.4260  -22.1826   20.0793 C   0  0  2  0  0  0
  -30.4325  -18.3755   21.1969 N   0  0  0  0  0  0
  -29.6481  -15.9954   20.5270 N   0  0  0  0  0  0
  -31.4836  -12.7173   19.1733 H   0  0  0  0  0  0
  -30.4423  -11.5856   19.9948 H   0  0  0  0  0  0
  -29.8286  -11.7387   17.5571 H   0  0  0  0  0  0
  -29.6216  -13.4660   17.7013 H   0  0  0  0  0  0
  -27.9334  -11.2751   18.9477 H   0  0  0  0  0  0
  -27.3923  -12.4787   17.8086 H   0  0  0  0  0  0
  -27.6096  -14.2461   19.4334 H   0  0  0  0  0  0
  -28.7560  -12.2278   21.4266 H   0  0  0  0  0  0
  -28.3921  -13.8971   21.7831 H   0  0  0  0  0  0
  -25.2791   -9.5667   22.4747 H   0  0  0  0  0  0
  -24.0015   -7.4628   22.7475 H   0  0  0  0  0  0
  -21.0854   -8.8772   19.8950 H   0  0  0  0  0  0
  -22.3722  -10.9666   19.6156 H   0  0  0  0  0  0
  -21.2020   -7.6144   23.9709 H   0  0  0  0  0  0
  -21.1476   -6.0513   25.9070 H   0  0  0  0  0  0
  -22.0611   -2.7606   23.2832 H   0  0  0  0  0  0
  -22.4124  -11.9862   22.4825 H   0  0  0  0  0  0
  -21.1100  -13.1193   22.2623 H   0  0  0  0  0  0
  -24.6349  -15.8335   20.5107 H   0  0  0  0  0  0
  -26.2367  -15.6362   20.0251 H   0  0  0  0  0  0
  -26.7244  -32.5354   23.1016 H   0  0  0  0  0  0
  -25.0060  -33.9651   25.0329 H   0  0  0  0  0  0
  -22.7452  -31.2858   21.3755 H   0  0  0  0  0  0
  -23.3757  -35.9589   23.3300 H   0  0  0  0  0  0
  -24.3571  -36.8902   22.2058 H   0  0  0  0  0  0
  -23.7248  -37.6451   23.6687 H   0  0  0  0  0  0
  -26.1410  -31.4853   20.6038 H   0  0  0  0  0  0
  -26.8668  -30.7905   22.0192 H   0  0  0  0  0  0
  -28.1505  -28.8606   21.1967 H   0  0  0  0  0  0
  -25.9712  -25.8212   19.0576 H   0  0  0  0  0  0
  -23.9841  -27.2613   19.0268 H   0  0  0  0  0  0
  -23.8086  -30.5536   19.3979 H   0  0  0  0  0  0
  -22.7868  -29.2222   19.8465 H   0  0  0  0  0  0
  -25.1319  -36.1865   25.0806 H   0  0  0  0  0  0
  -20.9985  -28.3291   24.1364 H   0  0  0  0  0  0
  -20.5631  -26.2326   23.3622 H   0  0  0  0  0  0
  -21.6643  -26.7402   22.1227 H   0  0  0  0  0  0
  -19.6915  -25.6279   21.1246 H   0  0  0  0  0  0
  -19.6697  -27.3164   20.6711 H   0  0  0  0  0  0
  -17.4198  -26.6660   21.4018 H   0  0  0  0  0  0
  -18.0346  -26.0087   22.9020 H   0  0  0  0  0  0
  -19.7951  -30.7265   24.2263 H   0  0  0  0  0  0
  -17.5029  -31.6273   24.5146 H   0  0  0  0  0  0
  -15.5361  -30.2975   23.7671 H   0  0  0  0  0  0
  -15.8681  -28.0802   22.7094 H   0  0  0  0  0  0
  -24.5889  -30.7113   25.7740 H   0  0  0  0  0  0
  -24.8920  -32.2926   26.4837 H   0  0  0  0  0  0
  -25.8017  -30.8930   27.0207 H   0  0  0  0  0  0
  -26.2960  -29.6726   24.1261 H   0  0  0  0  0  0
  -27.3965  -29.7263   25.4833 H   0  0  0  0  0  0
  -27.8884  -30.4219   23.9573 H   0  0  0  0  0  0
  -27.2616  -33.3651   26.2064 H   0  0  0  0  0  0
  -28.3873  -32.6921   25.0364 H   0  0  0  0  0  0
  -28.0696  -31.8504   26.5461 H   0  0  0  0  0  0
  -28.2583  -38.0093   24.7503 H   0  0  0  0  0  0
  -28.1077  -36.2616   24.6297 H   0  0  0  0  0  0
  -27.2288  -37.1446   25.8866 H   0  0  0  0  0  0
  -20.9441  -29.8782   21.6829 H   0  0  0  0  0  0
  -26.0152  -38.2814   24.1420 H   0  0  0  0  0  0
  -28.0557  -17.5869   19.0363 H   0  0  0  0  0  0
  -30.5333  -19.0662   23.8992 H   0  0  0  0  0  0
  -32.1569  -19.8912   24.1605 H   0  0  0  0  0  0
  -31.1115  -22.0967   23.6849 H   0  0  0  0  0  0
  -29.4862  -21.2811   23.3991 H   0  0  0  0  0  0
  -32.1175  -20.7252   21.7849 H   0  0  0  0  0  0
  -26.8912  -19.4096   18.2218 H   0  0  0  0  0  0
  -28.0059  -20.6960   17.7720 H   0  0  0  0  0  0
  -26.8948  -20.9102   19.1344 H   0  0  0  0  0  0
  -31.6127  -22.2591   20.0070 H   0  0  0  0  0  0
  -30.9261  -23.0037   21.4619 H   0  0  0  0  0  0
  -30.8433  -23.8255   19.9283 H   0  0  0  0  0  0
  -27.5196  -23.2462   19.4667 H   0  0  0  0  0  0
  -27.6250  -22.8122   21.1140 H   0  0  0  0  0  0
  -29.1346  -24.9240   21.5184 H   0  0  0  0  0  0
  -27.4344  -24.9899   21.5064 H   0  0  0  0  0  0
  -29.4693  -22.1764   18.9902 H   0  0  0  0  0  0
  -28.7035  -15.6563   20.5884 H   0  0  0  0  0  0
  1 25  1  0  0  0
  1 30  2  0  0  0
  1 85  1  0  0  0
  2  3  1  0  0  0
  2 25  1  0  0  0
  2 86  1  0  0  0
  2 87  1  0  0  0
  3  4  1  0  0  0
  3 88  1  0  0  0
  3 89  1  0  0  0
  4  5  1  0  0  0
  4 90  1  0  0  0
  4 91  1  0  0  0
  5  6  1  0  0  0
  5 26  1  0  0  0
  5 92  1  0  0  0
  6 25  1  0  0  0
  6 93  1  0  0  0
  6 94  1  0  0  0
  7  8  2  0  0  0
  7 26  1  0  0  0
  7 29  1  0  0  0
  8  9  1  0  0  0
  8 22  1  0  0  0
  9 10  1  0  0  0
  9 27  2  0  0  0
 10 11  2  0  0  0
 10 15  1  0  0  0
 11 12  1  0  0  0
 11 95  1  0  0  0
 12 13  2  0  0  0
 12 96  1  0  0  0
 13 14  1  0  0  0
 13 31  1  0  0  0
 14 15  2  0  0  0
 14 97  1  0  0  0
 15 98  1  0  0  0
 16 17  2  0  0  0
 16 21  1  0  0  0
 16 31  1  0  0  0
 17 18  1  0  0  0
 17 99  1  0  0  0
 18 19  2  0  0  0
 18100  1  0  0  0
 19 20  1  0  0  0
 19 24  1  0  0  0
 20 21  2  0  0  0
 20101  1  0  0  0
 21 23  1  0  0  0
 22 28  1  0  0  0
 22 32  2  0  0  0
 26 27  1  0  0  0
 28102  1  0  0  0
 28103  1  0  0  0
 29104  1  0  0  0
 29105  1  0  0  0
 33 34  1  0  0  0
 33 66  1  0  0  0
 33 70  2  0  0  0
 34 36  1  0  0  0
 34 59  1  0  0  0
 34106  1  0  0  0
 35 44  2  0  0  0
 35 45  1  0  0  0
 35 68  1  0  0  0
 36 56  1  0  0  0
 36107  1  0  0  0
 37 39  1  0  0  0
 37 47  1  0  0  0
 37 66  1  0  0  0
 37108  1  0  0  0
 38 43  2  0  0  0
 38 46  1  0  0  0
 38 47  1  0  0  0
 39 64  1  0  0  0
 39 67  2  0  0  0
 40 52  1  0  0  0
 40 53  2  0  0  0
 40 58  1  0  0  0
 41109  1  0  0  0
 41110  1  0  0  0
 41111  1  0  0  0
 41 48  1  0  0  0
 42 43  1  0  0  0
 42 66  1  0  0  0
 42112  1  0  0  0
 42113  1  0  0  0
 43 44  1  0  0  0
 44114  1  0  0  0
 45 46  2  0  0  0
 45115  1  0  0  0
 46116  1  0  0  0
 47117  1  0  0  0
 47118  1  0  0  0
 48 56  1  0  0  0
 48 65  1  0  0  0
 48119  1  0  0  0
 49 50  1  0  0  0
 49 53  1  0  0  0
 49 64  1  0  0  0
 49120  1  0  0  0
 50 51  1  0  0  0
 50121  1  0  0  0
 50122  1  0  0  0
 51 52  1  0  0  0
 51123  1  0  0  0
 51124  1  0  0  0
 52125  1  0  0  0
 52126  1  0  0  0
 53 54  1  0  0  0
 54 55  2  0  0  0
 54127  1  0  0  0
 55 57  1  0  0  0
 55128  1  0  0  0
 56 69  2  0  0  0
 57 58  2  0  0  0
 57129  1  0  0  0
 58130  1  0  0  0
 59 60  1  0  0  0
 59 61  1  0  0  0
 59 62  1  0  0  0
 60131  1  0  0  0
 60132  1  0  0  0
 60133  1  0  0  0
 61134  1  0  0  0
 61135  1  0  0  0
 61136  1  0  0  0
 62137  1  0  0  0
 62138  1  0  0  0
 62139  1  0  0  0
 63 65  1  0  0  0
 63140  1  0  0  0
 63141  1  0  0  0
 63142  1  0  0  0
 64143  1  0  0  0
 65144  1  0  0  0
 68 82  1  0  0  0
 71 72  2  0  0  0
 71 75  1  0  0  0
 71145  1  0  0  0
 72 73  1  0  0  0
 72 79  1  0  0  0
 73 74  2  0  0  0
 73 83  1  0  0  0
 74 84  1  0  0  0
 74 78  1  0  0  0
 75 84  2  0  0  0
 75 85  1  0  0  0
 76 77  1  0  0  0
 76 78  1  0  0  0
 76146  1  0  0  0
 76147  1  0  0  0
 77 78  1  0  0  0
 77148  1  0  0  0
 77149  1  0  0  0
 78150  1  0  0  0
 79151  1  0  0  0
 79152  1  0  0  0
 79153  1  0  0  0
 80154  1  0  0  0
 80155  1  0  0  0
 80156  1  0  0  0
 80 83  1  0  0  0
 81 82  1  0  0  0
 81 83  1  0  0  0
 81157  1  0  0  0
 81158  1  0  0  0
 82159  1  0  0  0
 82160  1  0  0  0
 83161  1  0  0  0
 85162  1  0  0  0
M  ISO  4   1 100  68 101  82 101  85 100
M  END
> <chiral flag>
0

> <version>
0

> <s_m_source_file>
/data/baiqing/PycharmProjects/Reinvent-master-3.2/result/LINK_invent/BTK/process_docking_weight1_custom_sum_contain_oxygen_bond_distance_aromatic_linkinvent_7_9_3/rearranged_h_0151.sdf

> <i_m_source_file_index>
39

> <r_mmod_Potential_Energy-OPLS-2005>
371.525756835938

> <r_mmod_Stretch_Energy-OPLS-2005>
213.128936767578

> <r_mmod_Bend_Energy-OPLS-2005>
296.821868896484

> <r_mmod_Torsional_Energy-OPLS-2005>
296.547790527344

> <r_mmod_Improper_Torsional_Energy-OPLS-2005>
7.97071409225464

> <r_mmod_Van_der_Waal_Energy-OPLS-2005>
128.746826171875

> <r_mmod_Electrostatic_Energy-OPLS-2005>
-498.529205322266

> <r_mmod_Solvation_Energy-OPLS-2005>
-226.701126098633

> <b_mmod_Minimization_Converged-OPLS-2005>
0

> <r_mmod_RMS_Derivative-OPLS-2005>
1.25958693027496

$$$$
39
                    3D
 Structure written by MMmdl.
168177  0  0  1  0            999 V2000
  -30.6334  -14.9123   20.4406 C   0  0  0  0  0  0
  -30.4067  -12.5757   19.4971 C   0  0  0  0  0  0
  -29.5020  -12.5179   18.2493 C   0  0  0  0  0  0
  -28.0408  -12.2915   18.6715 C   0  0  0  0  0  0
  -27.6148  -13.2370   19.8230 C   0  0  2  0  0  0
  -28.6564  -13.3232   20.9614 C   0  0  0  0  0  0
  -25.2414  -13.8174   20.5704 C   0  0  0  0  0  0
  -24.1737  -13.0410   20.9239 C   0  0  0  0  0  0
  -24.6355  -11.6901   20.8758 C   0  0  0  0  0  0
  -23.9049  -10.4275   21.0402 C   0  0  0  0  0  0
  -24.3604   -9.4200   21.9184 C   0  0  0  0  0  0
  -23.6295   -8.2224   22.0750 C   0  0  0  0  0  0
  -22.4285   -8.0254   21.3528 C   0  0  0  0  0  0
  -21.9909   -9.0228   20.4637 C   0  0  0  0  0  0
  -22.7221  -10.2115   20.3052 C   0  0  0  0  0  0
  -21.6851   -6.0728   22.5282 C   0  0  0  0  0  0
  -21.4007   -6.5638   23.8214 C   0  0  0  0  0  0
  -21.3664   -5.6791   24.9173 C   0  0  0  0  0  0
  -21.6050   -4.3054   24.7219 C   0  0  0  0  0  0
  -21.8820   -3.8143   23.4340 C   0  0  0  0  0  0
  -21.9192   -4.6958   22.3400 C   0  0  0  0  0  0
  -22.7768  -13.5204   21.1892 C   0  0  0  0  0  0
  -22.1661   -4.2148   21.0977 F   0  0  0  0  0  0
  -21.5637   -3.4542   25.7733 F   0  0  0  0  0  0
  -29.9310  -13.7101   20.3485 N   0  0  0  0  0  0
  -26.2808  -12.9388   20.3189 N   0  0  0  0  0  0
  -25.9276  -11.6538   20.5733 N   0  0  0  0  0  0
  -22.0414  -12.8194   22.0433 N   0  0  0  0  0  0
  -25.4062  -15.1894   20.4136 N   0  0  0  0  0  0
  -31.8443  -14.8346   20.2005 O   0  0  0  0  0  0
  -21.6638   -6.8864   21.4236 O   0  0  0  0  0  0
  -22.3460  -14.5514   20.6742 O   0  0  0  0  0  0
  -24.6414  -31.8479   23.1914 C   0  0  0  0  0  0
  -25.9204  -32.4713   23.8297 C   0  0  1  0  0  0
  -27.2063  -27.1630   20.1597 C   0  0  0  0  0  0
  -25.5974  -33.8514   24.2222 N   0  0  0  0  0  0
  -23.4420  -30.4694   21.5366 C   0  0  2  0  0  0
  -24.8893  -28.8984   20.1137 C   0  0  0  0  0  0
  -22.7542  -29.4589   22.4876 C   0  0  0  0  0  0
  -18.0298  -28.1401   22.8478 C   0  0  0  0  0  0
  -24.1494  -36.7244   23.2644 C   0  0  0  0  0  0
  -25.9958  -30.7310   21.3856 C   0  0  0  0  0  0
  -26.0662  -29.3439   20.7292 C   0  0  0  0  0  0
  -27.2316  -28.4930   20.7326 C   0  0  0  0  0  0
  -26.0097  -26.8113   19.5033 C   0  0  0  0  0  0
  -24.8708  -27.6439   19.4854 C   0  0  0  0  0  0
  -23.6665  -29.7987   20.1557 C   0  0  0  0  0  0
  -25.4123  -36.3032   24.0325 C   0  0  1  0  0  0
  -20.5911  -28.3730   23.1238 C   0  0  2  0  0  0
  -20.6789  -26.9438   22.5400 C   0  0  0  0  0  0
  -19.5765  -26.6391   21.5208 C   0  0  0  0  0  0
  -18.1945  -26.7946   22.1619 C   0  0  0  0  0  0
  -19.1555  -28.8881   23.2855 C   0  0  0  0  0  0
  -18.9472  -30.1477   23.8883 C   0  0  0  0  0  0
  -17.6472  -30.6599   24.0556 C   0  0  0  0  0  0
  -25.9077  -34.9412   23.5072 C   0  0  0  0  0  0
  -16.5362  -29.9088   23.6338 C   0  0  0  0  0  0
  -16.7287  -28.6504   23.0362 C   0  0  0  0  0  0
  -26.4543  -31.6563   25.0722 C   0  0  0  0  0  0
  -25.3736  -31.3732   26.1421 C   0  0  0  0  0  0
  -27.0404  -30.2965   24.6279 C   0  0  0  0  0  0
  -27.6095  -32.4315   25.7492 C   0  0  0  0  0  0
  -27.5576  -37.1776   24.8466 C   0  0  0  0  0  0
  -21.4244  -29.3059   22.3609 N   0  0  0  0  0  0
  -26.4283  -37.3748   23.9422 N   0  0  0  0  0  0
  -24.7124  -31.0367   22.0934 N   0  0  0  0  0  0
  -23.4198  -28.8145   23.3027 O   0  0  0  0  0  0
  -28.2557  -26.1876   20.1812 O   0  0  0  0  0  0
  -26.5641  -34.8906   22.4644 O   0  0  0  0  0  0
  -23.5545  -32.1352   23.7156 O   0  0  0  0  0  0
  -29.3144  -23.4999   18.8418 C   0  0  0  0  0  0
  -29.8840  -22.3919   18.1772 C   0  0  0  0  0  0
  -28.6587  -23.3843   20.0713 C   0  0  0  0  0  0
  -28.6284  -22.0050   20.6289 C   0  0  0  0  0  0
  -29.8269  -21.0636   18.7094 C   0  0  0  0  0  0
  -29.2188  -20.8017   19.9845 C   0  0  0  0  0  0
  -30.4608  -18.8613   21.1820 C   0  0  0  0  0  0
  -28.4523  -18.2740   19.9817 C   0  0  0  0  0  0
  -31.0024  -17.4186   20.7084 C   0  0  0  0  0  0
  -28.6893  -16.7880   20.5926 C   0  0  0  0  0  0
  -30.5491  -22.7009   16.8401 C   0  0  0  0  0  0
  -27.9313  -21.7977   21.9624 C   0  0  0  0  0  0
  -29.5946  -19.5317   16.6482 C   0  0  0  0  0  0
  -30.4399  -19.9293   17.8728 C   0  0  0  0  0  0
  -27.9677  -24.7463   20.6616 C   0  0  0  0  0  0
  -29.2410  -19.4171   20.5402 N   0  0  0  0  0  0
  -30.0819  -16.2258   20.6142 N   0  0  0  0  0  0
  -31.4474  -12.6832   19.1878 H   0  0  0  0  0  0
  -30.3606  -11.6347   20.0477 H   0  0  0  0  0  0
  -29.8276  -11.7229   17.5772 H   0  0  0  0  0  0
  -29.5858  -13.4505   17.6904 H   0  0  0  0  0  0
  -27.9440  -11.2522   18.9884 H   0  0  0  0  0  0
  -27.3742  -12.4109   17.8152 H   0  0  0  0  0  0
  -27.5548  -14.2096   19.3457 H   0  0  0  0  0  0
  -28.7451  -12.3749   21.4937 H   0  0  0  0  0  0
  -28.3535  -14.0642   21.7013 H   0  0  0  0  0  0
  -25.2735   -9.5706   22.4774 H   0  0  0  0  0  0
  -24.0011   -7.4626   22.7475 H   0  0  0  0  0  0
  -21.0834   -8.8742   19.8953 H   0  0  0  0  0  0
  -22.3655  -10.9659   19.6180 H   0  0  0  0  0  0
  -21.1995   -7.6145   23.9718 H   0  0  0  0  0  0
  -21.1491   -6.0513   25.9083 H   0  0  0  0  0  0
  -22.0597   -2.7603   23.2829 H   0  0  0  0  0  0
  -22.4047  -11.9849   22.4803 H   0  0  0  0  0  0
  -21.1047  -13.1233   22.2681 H   0  0  0  0  0  0
  -24.6352  -15.8371   20.5352 H   0  0  0  0  0  0
  -26.2539  -15.6338   20.0908 H   0  0  0  0  0  0
  -26.7267  -32.5334   23.1031 H   0  0  0  0  0  0
  -25.0132  -33.9634   25.0377 H   0  0  0  0  0  0
  -22.7438  -31.2960   21.3836 H   0  0  0  0  0  0
  -23.3773  -35.9556   23.3281 H   0  0  0  0  0  0
  -24.3582  -36.8896   22.2063 H   0  0  0  0  0  0
  -23.7229  -37.6426   23.6691 H   0  0  0  0  0  0
  -26.1466  -31.4853   20.6126 H   0  0  0  0  0  0
  -26.8694  -30.7811   22.0244 H   0  0  0  0  0  0
  -28.1320  -28.8311   21.2251 H   0  0  0  0  0  0
  -25.9374  -25.8516   19.0106 H   0  0  0  0  0  0
  -23.9727  -27.2999   18.9910 H   0  0  0  0  0  0
  -23.8029  -30.5737   19.4008 H   0  0  0  0  0  0
  -22.7814  -29.2406   19.8452 H   0  0  0  0  0  0
  -25.1312  -36.1854   25.0818 H   0  0  0  0  0  0
  -21.0003  -28.3318   24.1358 H   0  0  0  0  0  0
  -20.5674  -26.2349   23.3622 H   0  0  0  0  0  0
  -21.6654  -26.7445   22.1200 H   0  0  0  0  0  0
  -19.6921  -25.6288   21.1265 H   0  0  0  0  0  0
  -19.6705  -27.3175   20.6722 H   0  0  0  0  0  0
  -17.4216  -26.6691   21.4023 H   0  0  0  0  0  0
  -18.0345  -26.0091   22.9019 H   0  0  0  0  0  0
  -19.7951  -30.7294   24.2250 H   0  0  0  0  0  0
  -17.5028  -31.6279   24.5159 H   0  0  0  0  0  0
  -15.5361  -30.2987   23.7681 H   0  0  0  0  0  0
  -15.8686  -28.0817   22.7095 H   0  0  0  0  0  0
  -24.5922  -30.7078   25.7728 H   0  0  0  0  0  0
  -24.8915  -32.2898   26.4824 H   0  0  0  0  0  0
  -25.8028  -30.8910   27.0211 H   0  0  0  0  0  0
  -26.3003  -29.6684   24.1301 H   0  0  0  0  0  0
  -27.4043  -29.7277   25.4845 H   0  0  0  0  0  0
  -27.8910  -30.4216   23.9574 H   0  0  0  0  0  0
  -27.2722  -33.3656   26.2000 H   0  0  0  0  0  0
  -28.3937  -32.6802   25.0327 H   0  0  0  0  0  0
  -28.0725  -31.8470   26.5454 H   0  0  0  0  0  0
  -28.2574  -38.0090   24.7528 H   0  0  0  0  0  0
  -28.1088  -36.2620   24.6271 H   0  0  0  0  0  0
  -27.2293  -37.1389   25.8865 H   0  0  0  0  0  0
  -20.9449  -29.8750   21.6768 H   0  0  0  0  0  0
  -26.0145  -38.2813   24.1436 H   0  0  0  0  0  0
  -29.3622  -24.4793   18.3839 H   0  0  0  0  0  0
  -31.2700  -19.5864   21.0833 H   0  0  0  0  0  0
  -30.2537  -18.8078   22.2524 H   0  0  0  0  0  0
  -27.3976  -18.5259   20.1113 H   0  0  0  0  0  0
  -28.5982  -18.2273   18.9053 H   0  0  0  0  0  0
  -31.8074  -17.1560   21.3966 H   0  0  0  0  0  0
  -31.4934  -17.5213   19.7414 H   0  0  0  0  0  0
  -28.0571  -16.1158   20.0274 H   0  0  0  0  0  0
  -28.3134  -16.7577   21.6172 H   0  0  0  0  0  0
  -30.7439  -23.7692   16.7383 H   0  0  0  0  0  0
  -29.8958  -22.4276   16.0129 H   0  0  0  0  0  0
  -31.5088  -22.1997   16.7203 H   0  0  0  0  0  0
  -27.2200  -22.5916   22.1849 H   0  0  0  0  0  0
  -28.6664  -21.7613   22.7658 H   0  0  0  0  0  0
  -27.3787  -20.8575   21.9656 H   0  0  0  0  0  0
  -30.0213  -18.6554   16.1580 H   0  0  0  0  0  0
  -29.5456  -20.3149   15.8962 H   0  0  0  0  0  0
  -28.5708  -19.2876   16.9288 H   0  0  0  0  0  0
  -30.6047  -19.0376   18.4637 H   0  0  0  0  0  0
  -31.4477  -20.2033   17.5643 H   0  0  0  0  0  0
  -28.2071  -24.7605   21.7255 H   0  0  0  0  0  0
  -26.8934  -24.5700   20.6278 H   0  0  0  0  0  0
  1 25  1  0  0  0
  1 30  2  0  0  0
  1 87  1  0  0  0
  2  3  1  0  0  0
  2 25  1  0  0  0
  2 88  1  0  0  0
  2 89  1  0  0  0
  3  4  1  0  0  0
  3 90  1  0  0  0
  3 91  1  0  0  0
  4  5  1  0  0  0
  4 92  1  0  0  0
  4 93  1  0  0  0
  5  6  1  0  0  0
  5 26  1  0  0  0
  5 94  1  0  0  0
  6 25  1  0  0  0
  6 95  1  0  0  0
  6 96  1  0  0  0
  7  8  2  0  0  0
  7 26  1  0  0  0
  7 29  1  0  0  0
  8  9  1  0  0  0
  8 22  1  0  0  0
  9 10  1  0  0  0
  9 27  2  0  0  0
 10 11  2  0  0  0
 10 15  1  0  0  0
 11 12  1  0  0  0
 11 97  1  0  0  0
 12 13  2  0  0  0
 12 98  1  0  0  0
 13 14  1  0  0  0
 13 31  1  0  0  0
 14 15  2  0  0  0
 14 99  1  0  0  0
 15100  1  0  0  0
 16 17  2  0  0  0
 16 21  1  0  0  0
 16 31  1  0  0  0
 17 18  1  0  0  0
 17101  1  0  0  0
 18 19  2  0  0  0
 18102  1  0  0  0
 19 20  1  0  0  0
 19 24  1  0  0  0
 20 21  2  0  0  0
 20103  1  0  0  0
 21 23  1  0  0  0
 22 28  1  0  0  0
 22 32  2  0  0  0
 26 27  1  0  0  0
 28104  1  0  0  0
 28105  1  0  0  0
 29106  1  0  0  0
 29107  1  0  0  0
 33 34  1  0  0  0
 33 66  1  0  0  0
 33 70  2  0  0  0
 34 36  1  0  0  0
 34 59  1  0  0  0
 34108  1  0  0  0
 35 44  2  0  0  0
 35 45  1  0  0  0
 35 68  1  0  0  0
 36 56  1  0  0  0
 36109  1  0  0  0
 37 39  1  0  0  0
 37 47  1  0  0  0
 37 66  1  0  0  0
 37110  1  0  0  0
 38 43  2  0  0  0
 38 46  1  0  0  0
 38 47  1  0  0  0
 39 64  1  0  0  0
 39 67  2  0  0  0
 40 52  1  0  0  0
 40 53  2  0  0  0
 40 58  1  0  0  0
 41111  1  0  0  0
 41112  1  0  0  0
 41113  1  0  0  0
 41 48  1  0  0  0
 42 43  1  0  0  0
 42 66  1  0  0  0
 42114  1  0  0  0
 42115  1  0  0  0
 43 44  1  0  0  0
 44116  1  0  0  0
 45 46  2  0  0  0
 45117  1  0  0  0
 46118  1  0  0  0
 47119  1  0  0  0
 47120  1  0  0  0
 48 56  1  0  0  0
 48 65  1  0  0  0
 48121  1  0  0  0
 49 50  1  0  0  0
 49 53  1  0  0  0
 49 64  1  0  0  0
 49122  1  0  0  0
 50 51  1  0  0  0
 50123  1  0  0  0
 50124  1  0  0  0
 51 52  1  0  0  0
 51125  1  0  0  0
 51126  1  0  0  0
 52127  1  0  0  0
 52128  1  0  0  0
 53 54  1  0  0  0
 54 55  2  0  0  0
 54129  1  0  0  0
 55 57  1  0  0  0
 55130  1  0  0  0
 56 69  2  0  0  0
 57 58  2  0  0  0
 57131  1  0  0  0
 58132  1  0  0  0
 59 60  1  0  0  0
 59 61  1  0  0  0
 59 62  1  0  0  0
 60133  1  0  0  0
 60134  1  0  0  0
 60135  1  0  0  0
 61136  1  0  0  0
 61137  1  0  0  0
 61138  1  0  0  0
 62139  1  0  0  0
 62140  1  0  0  0
 62141  1  0  0  0
 63 65  1  0  0  0
 63142  1  0  0  0
 63143  1  0  0  0
 63144  1  0  0  0
 64145  1  0  0  0
 65146  1  0  0  0
 68 85  1  0  0  0
 71 72  2  0  0  0
 71 73  1  0  0  0
 71147  1  0  0  0
 72 75  1  0  0  0
 72 81  1  0  0  0
 73 74  2  0  0  0
 73 85  1  0  0  0
 74 76  1  0  0  0
 74 82  1  0  0  0
 75 76  2  0  0  0
 75 84  1  0  0  0
 76 86  1  0  0  0
 77 79  1  0  0  0
 77 86  1  0  0  0
 77148  1  0  0  0
 77149  1  0  0  0
 78 80  1  0  0  0
 78 86  1  0  0  0
 78150  1  0  0  0
 78151  1  0  0  0
 79 87  1  0  0  0
 79152  1  0  0  0
 79153  1  0  0  0
 80 87  1  0  0  0
 80154  1  0  0  0
 80155  1  0  0  0
 81156  1  0  0  0
 81157  1  0  0  0
 81158  1  0  0  0
 82159  1  0  0  0
 82160  1  0  0  0
 82161  1  0  0  0
 83 84  1  0  0  0
 83162  1  0  0  0
 83163  1  0  0  0
 83164  1  0  0  0
 84165  1  0  0  0
 84166  1  0  0  0
 85167  1  0  0  0
 85168  1  0  0  0
M  ISO  4   1 100  68 101  85 101  87 100
M  END
> <chiral flag>
0

> <version>
0

> <s_m_source_file>
/data/baiqing/PycharmProjects/Reinvent-master-3.2/result/LINK_invent/BTK/process_docking_weight1_custom_sum_contain_oxygen_bond_distance_aromatic_linkinvent_7_9_3/rearranged_h_0151.sdf

> <i_m_source_file_index>
40

> <r_mmod_Potential_Energy-OPLS-2005>
629.510437011719

> <r_mmod_Stretch_Energy-OPLS-2005>
213.38298034668

> <r_mmod_Bend_Energy-OPLS-2005>
265.246978759766

> <r_mmod_Torsional_Energy-OPLS-2005>
380.021148681641

> <r_mmod_Improper_Torsional_Energy-OPLS-2005>
5.8251485824585

> <r_mmod_Van_der_Waal_Energy-OPLS-2005>
151.465850830078

> <r_mmod_Electrostatic_Energy-OPLS-2005>
-355.084228515625

> <r_mmod_Solvation_Energy-OPLS-2005>
-203.470687866211

> <b_mmod_Minimization_Converged-OPLS-2005>
0

> <r_mmod_RMS_Derivative-OPLS-2005>
2.10230922698975

$$$$
40
                    3D
 Structure written by MMmdl.
161170  0  0  1  0            999 V2000
  -30.7141  -14.6444   20.4733 C   0  0  0  0  0  0
  -30.4223  -12.3929   19.4648 C   0  0  0  0  0  0
  -29.5133  -12.4981   18.2242 C   0  0  0  0  0  0
  -28.0421  -12.3216   18.6454 C   0  0  0  0  0  0
  -27.6499  -13.2283   19.8428 C   0  0  2  0  0  0
  -28.6975  -13.1660   20.9787 C   0  0  0  0  0  0
  -25.2569  -13.8199   20.5680 C   0  0  0  0  0  0
  -24.1837  -13.0449   20.9180 C   0  0  0  0  0  0
  -24.6402  -11.6922   20.8731 C   0  0  0  0  0  0
  -23.9064  -10.4328   21.0430 C   0  0  0  0  0  0
  -24.3620   -9.4219   21.9182 C   0  0  0  0  0  0
  -23.6311   -8.2250   22.0740 C   0  0  0  0  0  0
  -22.4279   -8.0297   21.3562 C   0  0  0  0  0  0
  -21.9918   -9.0268   20.4654 C   0  0  0  0  0  0
  -22.7234  -10.2155   20.3078 C   0  0  0  0  0  0
  -21.6840   -6.0750   22.5306 C   0  0  0  0  0  0
  -21.3994   -6.5664   23.8238 C   0  0  0  0  0  0
  -21.3651   -5.6791   24.9182 C   0  0  0  0  0  0
  -21.6046   -4.3052   24.7230 C   0  0  0  0  0  0
  -21.8797   -3.8169   23.4331 C   0  0  0  0  0  0
  -21.9171   -4.6989   22.3383 C   0  0  0  0  0  0
  -22.7844  -13.5262   21.1804 C   0  0  0  0  0  0
  -22.1645   -4.2184   21.0966 F   0  0  0  0  0  0
  -21.5636   -3.4526   25.7729 F   0  0  0  0  0  0
  -30.0099  -13.4674   20.3954 N   0  0  0  0  0  0
  -26.2988  -12.9401   20.3221 N   0  0  0  0  0  0
  -25.9348  -11.6532   20.5703 N   0  0  0  0  0  0
  -22.0423  -12.8366   22.0398 N   0  0  0  0  0  0
  -25.4251  -15.1925   20.4105 N   0  0  0  0  0  0
  -31.8894  -14.6805   20.1147 O   0  0  0  0  0  0
  -21.6626   -6.8909   21.4265 O   0  0  0  0  0  0
  -22.3536  -14.5528   20.6553 O   0  0  0  0  0  0
  -24.6277  -31.8559   23.1934 C   0  0  0  0  0  0
  -25.9094  -32.4753   23.8313 C   0  0  1  0  0  0
  -27.2530  -27.3193   20.1055 C   0  0  0  0  0  0
  -25.5915  -33.8550   24.2223 N   0  0  0  0  0  0
  -23.4250  -30.4720   21.5374 C   0  0  2  0  0  0
  -24.8788  -28.9168   20.1193 C   0  0  0  0  0  0
  -22.7455  -29.4586   22.4902 C   0  0  0  0  0  0
  -18.0273  -28.1349   22.8448 C   0  0  0  0  0  0
  -24.1477  -36.7270   23.2638 C   0  0  0  0  0  0
  -25.9683  -30.7792   21.3780 C   0  0  0  0  0  0
  -26.0468  -29.4076   20.7166 C   0  0  0  0  0  0
  -27.2370  -28.6217   20.6953 C   0  0  0  0  0  0
  -26.0600  -26.8739   19.4952 C   0  0  0  0  0  0
  -24.8857  -27.6538   19.5035 C   0  0  0  0  0  0
  -23.6456  -29.7934   20.1597 C   0  0  0  0  0  0
  -25.4110  -36.3045   24.0308 C   0  0  1  0  0  0
  -20.5865  -28.3655   23.1261 C   0  0  2  0  0  0
  -20.6734  -26.9365   22.5423 C   0  0  0  0  0  0
  -19.5754  -26.6348   21.5169 C   0  0  0  0  0  0
  -18.1913  -26.7903   22.1547 C   0  0  0  0  0  0
  -19.1522  -28.8808   23.2854 C   0  0  0  0  0  0
  -18.9455  -30.1400   23.8891 C   0  0  0  0  0  0
  -17.6459  -30.6561   24.0520 C   0  0  0  0  0  0
  -25.9058  -34.9428   23.5068 C   0  0  0  0  0  0
  -16.5342  -29.9059   23.6320 C   0  0  0  0  0  0
  -16.7260  -28.6461   23.0367 C   0  0  0  0  0  0
  -26.4473  -31.6616   25.0727 C   0  0  0  0  0  0
  -25.3675  -31.3826   26.1438 C   0  0  0  0  0  0
  -27.0371  -30.3022   24.6312 C   0  0  0  0  0  0
  -27.6017  -32.4387   25.7495 C   0  0  0  0  0  0
  -27.5584  -37.1755   24.8437 C   0  0  0  0  0  0
  -21.4163  -29.3017   22.3663 N   0  0  0  0  0  0
  -26.4281  -37.3747   23.9404 N   0  0  0  0  0  0
  -24.6907  -31.0546   22.0917 N   0  0  0  0  0  0
  -23.4141  -28.8136   23.3016 O   0  0  0  0  0  0
  -28.3830  -26.4847   20.0779 O   0  0  0  0  0  0
  -26.5630  -34.8905   22.4633 O   0  0  0  0  0  0
  -23.5422  -32.1368   23.7252 O   0  0  0  0  0  0
  -29.5070  -19.0234   19.9594 C   0  0  0  0  0  0
  -30.2381  -20.9255   21.8644 C   0  0  0  0  0  0
  -30.2986  -18.5616   21.0484 C   0  0  0  0  0  0
  -30.7234  -19.5822   21.9576 C   0  0  0  0  0  0
  -29.0673  -20.3916   19.8423 C   0  0  0  0  0  0
  -29.3856  -21.3734   20.8240 C   0  0  0  0  0  0
  -31.7205  -19.2836   23.0830 C   0  0  0  0  0  0
  -32.2946  -17.8574   23.1103 C   0  0  0  0  0  0
  -31.2476  -16.8400   22.6946 C   0  0  0  0  0  0
  -30.8272  -17.0682   21.2315 C   0  0  1  0  0  0
  -28.2040  -20.7918   18.6650 C   0  0  0  0  0  0
  -28.2510  -25.1215   20.6570 C   0  0  0  0  0  0
  -28.9647  -23.8077   20.0656 C   0  0  0  0  0  0
  -30.0812  -15.8152   20.8302 N   0  0  0  0  0  0
  -28.7542  -22.6382   20.9430 O   0  0  0  0  0  0
  -31.4727  -12.4628   19.1751 H   0  0  0  0  0  0
  -30.3137  -11.4159   19.9384 H   0  0  0  0  0  0
  -29.8003  -11.7543   17.4766 H   0  0  0  0  0  0
  -29.6471  -13.4724   17.7527 H   0  0  0  0  0  0
  -27.9170  -11.2738   18.9230 H   0  0  0  0  0  0
  -27.3777  -12.4962   17.7970 H   0  0  0  0  0  0
  -27.6498  -14.2489   19.4567 H   0  0  0  0  0  0
  -28.7110  -12.1799   21.4429 H   0  0  0  0  0  0
  -28.4489  -13.8754   21.7684 H   0  0  0  0  0  0
  -25.2764   -9.5706   22.4722 H   0  0  0  0  0  0
  -24.0030   -7.4643   22.7463 H   0  0  0  0  0  0
  -21.0836   -8.8798   19.8979 H   0  0  0  0  0  0
  -22.3703  -10.9680   19.6197 H   0  0  0  0  0  0
  -21.2007   -7.6169   23.9753 H   0  0  0  0  0  0
  -21.1487   -6.0520   25.9095 H   0  0  0  0  0  0
  -22.0591   -2.7634   23.2789 H   0  0  0  0  0  0
  -22.3951  -12.0118   22.5001 H   0  0  0  0  0  0
  -21.1017  -13.1472   22.2434 H   0  0  0  0  0  0
  -24.6605  -15.8481   20.5388 H   0  0  0  0  0  0
  -26.2836  -15.6355   20.1102 H   0  0  0  0  0  0
  -26.7152  -32.5407   23.1055 H   0  0  0  0  0  0
  -25.0024  -33.9698   25.0340 H   0  0  0  0  0  0
  -22.7194  -31.2908   21.3821 H   0  0  0  0  0  0
  -23.3762  -35.9583   23.3285 H   0  0  0  0  0  0
  -24.3560  -36.8928   22.2058 H   0  0  0  0  0  0
  -23.7225  -37.6446   23.6710 H   0  0  0  0  0  0
  -26.1237  -31.5473   20.6193 H   0  0  0  0  0  0
  -26.8354  -30.8097   22.0265 H   0  0  0  0  0  0
  -28.1403  -28.9987   21.1551 H   0  0  0  0  0  0
  -26.0382  -25.9094   19.0050 H   0  0  0  0  0  0
  -23.9893  -27.2710   19.0349 H   0  0  0  0  0  0
  -23.7574  -30.5588   19.3916 H   0  0  0  0  0  0
  -22.7740  -29.2087   19.8657 H   0  0  0  0  0  0
  -25.1302  -36.1860   25.0800 H   0  0  0  0  0  0
  -20.9952  -28.3227   24.1378 H   0  0  0  0  0  0
  -20.5523  -26.2260   23.3624 H   0  0  0  0  0  0
  -21.6620  -26.7331   22.1295 H   0  0  0  0  0  0
  -19.6915  -25.6247   21.1221 H   0  0  0  0  0  0
  -19.6749  -27.3129   20.6681 H   0  0  0  0  0  0
  -17.4207  -26.6676   21.3923 H   0  0  0  0  0  0
  -18.0294  -26.0031   22.8924 H   0  0  0  0  0  0
  -19.7936  -30.7182   24.2298 H   0  0  0  0  0  0
  -17.5033  -31.6258   24.5101 H   0  0  0  0  0  0
  -15.5341  -30.2960   23.7670 H   0  0  0  0  0  0
  -15.8650  -28.0770   22.7142 H   0  0  0  0  0  0
  -24.5798  -30.7250   25.7735 H   0  0  0  0  0  0
  -24.8948  -32.3051   26.4830 H   0  0  0  0  0  0
  -25.7946  -30.8985   27.0231 H   0  0  0  0  0  0
  -26.3019  -29.6722   24.1296 H   0  0  0  0  0  0
  -27.3955  -29.7344   25.4912 H   0  0  0  0  0  0
  -27.8919  -30.4277   23.9660 H   0  0  0  0  0  0
  -27.2568  -33.3605   26.2195 H   0  0  0  0  0  0
  -28.3746  -32.7100   25.0291 H   0  0  0  0  0  0
  -28.0802  -31.8480   26.5318 H   0  0  0  0  0  0
  -28.2573  -38.0076   24.7513 H   0  0  0  0  0  0
  -28.1102  -36.2611   24.6203 H   0  0  0  0  0  0
  -27.2329  -37.1333   25.8844 H   0  0  0  0  0  0
  -20.9318  -29.8737   21.6891 H   0  0  0  0  0  0
  -26.0158  -38.2812   24.1436 H   0  0  0  0  0  0
  -29.2404  -18.3103   19.1938 H   0  0  0  0  0  0
  -30.5093  -21.6274   22.6411 H   0  0  0  0  0  0
  -31.2164  -19.4789   24.0287 H   0  0  0  0  0  0
  -32.5504  -19.9894   23.0210 H   0  0  0  0  0  0
  -32.6918  -17.6193   24.0971 H   0  0  0  0  0  0
  -33.1436  -17.7687   22.4296 H   0  0  0  0  0  0
  -30.3770  -16.9093   23.3491 H   0  0  0  0  0  0
  -31.6631  -15.8398   22.8405 H   0  0  0  0  0  0
  -31.7393  -17.0832   20.6291 H   0  0  0  0  0  0
  -28.0603  -19.9693   17.9628 H   0  0  0  0  0  0
  -28.6888  -21.6017   18.1188 H   0  0  0  0  0  0
  -27.2290  -21.1360   19.0164 H   0  0  0  0  0  0
  -28.6190  -25.2315   21.6756 H   0  0  0  0  0  0
  -27.1971  -24.8700   20.7648 H   0  0  0  0  0  0
  -30.0366  -23.9670   19.9466 H   0  0  0  0  0  0
  -28.5635  -23.6174   19.0689 H   0  0  0  0  0  0
  -29.0989  -15.7640   21.0543 H   0  0  0  0  0  0
  1 25  1  0  0  0
  1 30  2  0  0  0
  1 84  1  0  0  0
  2  3  1  0  0  0
  2 25  1  0  0  0
  2 86  1  0  0  0
  2 87  1  0  0  0
  3  4  1  0  0  0
  3 88  1  0  0  0
  3 89  1  0  0  0
  4  5  1  0  0  0
  4 90  1  0  0  0
  4 91  1  0  0  0
  5  6  1  0  0  0
  5 26  1  0  0  0
  5 92  1  0  0  0
  6 25  1  0  0  0
  6 93  1  0  0  0
  6 94  1  0  0  0
  7  8  2  0  0  0
  7 26  1  0  0  0
  7 29  1  0  0  0
  8  9  1  0  0  0
  8 22  1  0  0  0
  9 10  1  0  0  0
  9 27  2  0  0  0
 10 11  2  0  0  0
 10 15  1  0  0  0
 11 12  1  0  0  0
 11 95  1  0  0  0
 12 13  2  0  0  0
 12 96  1  0  0  0
 13 14  1  0  0  0
 13 31  1  0  0  0
 14 15  2  0  0  0
 14 97  1  0  0  0
 15 98  1  0  0  0
 16 17  2  0  0  0
 16 21  1  0  0  0
 16 31  1  0  0  0
 17 18  1  0  0  0
 17 99  1  0  0  0
 18 19  2  0  0  0
 18100  1  0  0  0
 19 20  1  0  0  0
 19 24  1  0  0  0
 20 21  2  0  0  0
 20101  1  0  0  0
 21 23  1  0  0  0
 22 28  1  0  0  0
 22 32  2  0  0  0
 26 27  1  0  0  0
 28102  1  0  0  0
 28103  1  0  0  0
 29104  1  0  0  0
 29105  1  0  0  0
 33 34  1  0  0  0
 33 66  1  0  0  0
 33 70  2  0  0  0
 34 36  1  0  0  0
 34 59  1  0  0  0
 34106  1  0  0  0
 35 44  2  0  0  0
 35 45  1  0  0  0
 35 68  1  0  0  0
 36 56  1  0  0  0
 36107  1  0  0  0
 37 39  1  0  0  0
 37 47  1  0  0  0
 37 66  1  0  0  0
 37108  1  0  0  0
 38 43  2  0  0  0
 38 46  1  0  0  0
 38 47  1  0  0  0
 39 64  1  0  0  0
 39 67  2  0  0  0
 40 52  1  0  0  0
 40 53  2  0  0  0
 40 58  1  0  0  0
 41109  1  0  0  0
 41110  1  0  0  0
 41111  1  0  0  0
 41 48  1  0  0  0
 42 43  1  0  0  0
 42 66  1  0  0  0
 42112  1  0  0  0
 42113  1  0  0  0
 43 44  1  0  0  0
 44114  1  0  0  0
 45 46  2  0  0  0
 45115  1  0  0  0
 46116  1  0  0  0
 47117  1  0  0  0
 47118  1  0  0  0
 48 56  1  0  0  0
 48 65  1  0  0  0
 48119  1  0  0  0
 49 50  1  0  0  0
 49 53  1  0  0  0
 49 64  1  0  0  0
 49120  1  0  0  0
 50 51  1  0  0  0
 50121  1  0  0  0
 50122  1  0  0  0
 51 52  1  0  0  0
 51123  1  0  0  0
 51124  1  0  0  0
 52125  1  0  0  0
 52126  1  0  0  0
 53 54  1  0  0  0
 54 55  2  0  0  0
 54127  1  0  0  0
 55 57  1  0  0  0
 55128  1  0  0  0
 56 69  2  0  0  0
 57 58  2  0  0  0
 57129  1  0  0  0
 58130  1  0  0  0
 59 60  1  0  0  0
 59 61  1  0  0  0
 59 62  1  0  0  0
 60131  1  0  0  0
 60132  1  0  0  0
 60133  1  0  0  0
 61134  1  0  0  0
 61135  1  0  0  0
 61136  1  0  0  0
 62137  1  0  0  0
 62138  1  0  0  0
 62139  1  0  0  0
 63 65  1  0  0  0
 63140  1  0  0  0
 63141  1  0  0  0
 63142  1  0  0  0
 64143  1  0  0  0
 65144  1  0  0  0
 68 82  1  0  0  0
 71 73  2  0  0  0
 71 75  1  0  0  0
 71145  1  0  0  0
 72 74  2  0  0  0
 72 76  1  0  0  0
 72146  1  0  0  0
 73 74  1  0  0  0
 73 80  1  0  0  0
 74 77  1  0  0  0
 75 76  2  0  0  0
 75 81  1  0  0  0
 76 85  1  0  0  0
 77 78  1  0  0  0
 77147  1  0  0  0
 77148  1  0  0  0
 78 79  1  0  0  0
 78149  1  0  0  0
 78150  1  0  0  0
 79 80  1  0  0  0
 79151  1  0  0  0
 79152  1  0  0  0
 80 84  1  0  0  0
 80153  1  0  0  0
 81154  1  0  0  0
 81155  1  0  0  0
 81156  1  0  0  0
 82 83  1  0  0  0
 82157  1  0  0  0
 82158  1  0  0  0
 83 85  1  0  0  0
 83159  1  0  0  0
 83160  1  0  0  0
 84161  1  0  0  0
M  ISO  4   1 100  68 101  82 101  84 100
M  END
> <chiral flag>
0

> <version>
0

> <s_m_source_file>
/data/baiqing/PycharmProjects/Reinvent-master-3.2/result/LINK_invent/BTK/process_docking_weight1_custom_sum_contain_oxygen_bond_distance_aromatic_linkinvent_7_9_3/rearranged_h_0151.sdf

> <i_m_source_file_index>
41

> <r_mmod_Potential_Energy-OPLS-2005>
111.549819946289

> <r_mmod_Stretch_Energy-OPLS-2005>
95.1458740234375

> <r_mmod_Bend_Energy-OPLS-2005>
178.30534362793

> <r_mmod_Torsional_Energy-OPLS-2005>
258.979278564453

> <r_mmod_Improper_Torsional_Energy-OPLS-2005>
4.78321123123169

> <r_mmod_Van_der_Waal_Energy-OPLS-2005>
146.081100463867

> <r_mmod_Electrostatic_Energy-OPLS-2005>
-418.174865722656

> <r_mmod_Solvation_Energy-OPLS-2005>
-206.717819213867

> <b_mmod_Minimization_Converged-OPLS-2005>
0

> <r_mmod_RMS_Derivative-OPLS-2005>
5.59466505050659

$$$$
41
                    3D
 Structure written by MMmdl.
166175  0  0  1  0            999 V2000
  -30.5624  -14.6011   20.5111 C   0  0  0  0  0  0
  -30.4526  -12.3661   19.4403 C   0  0  0  0  0  0
  -29.5024  -12.4787   18.2277 C   0  0  0  0  0  0
  -28.0338  -12.3042   18.6654 C   0  0  0  0  0  0
  -27.6554  -13.1859   19.8839 C   0  0  2  0  0  0
  -28.7053  -12.9865   21.0069 C   0  0  0  0  0  0
  -25.2577  -13.8156   20.5816 C   0  0  0  0  0  0
  -24.1801  -13.0464   20.9254 C   0  0  0  0  0  0
  -24.6312  -11.6904   20.8843 C   0  0  0  0  0  0
  -23.9009  -10.4287   21.0465 C   0  0  0  0  0  0
  -24.3568   -9.4159   21.9194 C   0  0  0  0  0  0
  -23.6233   -8.2191   22.0717 C   0  0  0  0  0  0
  -22.4211   -8.0269   21.3501 C   0  0  0  0  0  0
  -21.9862   -9.0263   20.4600 C   0  0  0  0  0  0
  -22.7215  -10.2132   20.3054 C   0  0  0  0  0  0
  -21.6857   -6.0687   22.5269 C   0  0  0  0  0  0
  -21.4006   -6.5614   23.8196 C   0  0  0  0  0  0
  -21.3682   -5.6788   24.9179 C   0  0  0  0  0  0
  -21.6059   -4.3051   24.7260 C   0  0  0  0  0  0
  -21.8806   -3.8115   23.4385 C   0  0  0  0  0  0
  -21.9173   -4.6901   22.3429 C   0  0  0  0  0  0
  -22.7783  -13.5269   21.1822 C   0  0  0  0  0  0
  -22.1650   -4.2059   21.1004 F   0  0  0  0  0  0
  -21.5640   -3.4583   25.7799 F   0  0  0  0  0  0
  -30.0159  -13.3510   20.4404 N   0  0  0  0  0  0
  -26.2969  -12.9261   20.3486 N   0  0  0  0  0  0
  -25.9222  -11.6444   20.5927 N   0  0  0  0  0  0
  -22.0325  -12.8353   22.0325 N   0  0  0  0  0  0
  -25.4334  -15.1893   20.4240 N   0  0  0  0  0  0
  -31.7326  -14.8360   20.1899 O   0  0  0  0  0  0
  -21.6583   -6.8841   21.4232 O   0  0  0  0  0  0
  -22.3548  -14.5571   20.6590 O   0  0  0  0  0  0
  -24.6166  -31.8611   23.2136 C   0  0  0  0  0  0
  -25.9009  -32.4837   23.8420 C   0  0  1  0  0  0
  -27.2407  -27.3836   20.0990 C   0  0  0  0  0  0
  -25.5802  -33.8642   24.2301 N   0  0  0  0  0  0
  -23.4109  -30.4866   21.5494 C   0  0  2  0  0  0
  -24.8606  -28.9518   20.1084 C   0  0  0  0  0  0
  -22.7445  -29.4607   22.4945 C   0  0  0  0  0  0
  -18.0253  -28.1364   22.8484 C   0  0  0  0  0  0
  -24.1444  -36.7390   23.2641 C   0  0  0  0  0  0
  -25.9443  -30.8151   21.3741 C   0  0  0  0  0  0
  -26.0226  -29.4473   20.7139 C   0  0  0  0  0  0
  -27.2093  -28.6693   20.7055 C   0  0  0  0  0  0
  -26.0552  -26.9153   19.4896 C   0  0  0  0  0  0
  -24.8755  -27.6880   19.4940 C   0  0  0  0  0  0
  -23.6238  -29.8239   20.1611 C   0  0  0  0  0  0
  -25.4068  -36.3145   24.0320 C   0  0  1  0  0  0
  -20.5853  -28.3660   23.1303 C   0  0  2  0  0  0
  -20.6748  -26.9378   22.5440 C   0  0  0  0  0  0
  -19.5721  -26.6362   21.5239 C   0  0  0  0  0  0
  -18.1895  -26.7894   22.1640 C   0  0  0  0  0  0
  -19.1508  -28.8828   23.2884 C   0  0  0  0  0  0
  -18.9437  -30.1429   23.8907 C   0  0  0  0  0  0
  -17.6442  -30.6572   24.0552 C   0  0  0  0  0  0
  -25.8997  -34.9499   23.5115 C   0  0  0  0  0  0
  -16.5334  -29.9079   23.6298 C   0  0  0  0  0  0
  -16.7246  -28.6487   23.0331 C   0  0  0  0  0  0
  -26.4441  -31.6670   25.0780 C   0  0  0  0  0  0
  -25.3696  -31.3822   26.1533 C   0  0  0  0  0  0
  -27.0295  -30.3097   24.6229 C   0  0  0  0  0  0
  -27.5986  -32.4453   25.7518 C   0  0  0  0  0  0
  -27.5545  -37.1844   24.8425 C   0  0  0  0  0  0
  -21.4163  -29.3015   22.3708 N   0  0  0  0  0  0
  -26.4244  -37.3849   23.9385 N   0  0  0  0  0  0
  -24.6765  -31.0677   22.1044 N   0  0  0  0  0  0
  -23.4225  -28.8109   23.2960 O   0  0  0  0  0  0
  -28.4217  -26.6478   20.1352 O   0  0  0  0  0  0
  -26.5617  -34.8942   22.4715 O   0  0  0  0  0  0
  -23.5327  -32.1384   23.7478 O   0  0  0  0  0  0
  -29.4136  -18.0318   20.1773 C   0  0  0  0  0  0
  -28.6761  -18.4180   22.8299 C   0  0  0  0  0  0
  -28.8493  -19.3036   20.5527 C   0  0  0  0  0  0
  -28.4360  -19.4521   21.9001 C   0  0  0  0  0  0
  -29.2028  -17.1691   22.4431 C   0  0  0  0  0  0
  -29.5514  -16.9371   21.0917 C   0  0  0  0  0  0
  -28.4684  -20.3255   19.4605 C   0  0  2  0  0  0
  -29.4714  -21.1575   18.7064 C   0  0  2  0  0  0
  -28.3398  -21.8889   19.4230 C   0  0  2  0  0  0
  -27.5937  -20.6299   22.3722 C   0  0  0  0  0  0
  -29.2335  -16.0578   23.4807 C   0  0  0  0  0  0
  -29.5141  -21.0737   17.1991 C   0  0  0  0  0  0
  -28.1897  -24.1387   20.6427 C   0  0  0  0  0  0
  -28.5430  -25.2836   19.6289 C   0  0  0  0  0  0
  -29.6038  -15.5614   20.6476 N   0  0  0  0  0  0
  -28.9015  -22.8178   20.4547 N   0  3  0  0  0  0
  -31.4881  -12.5273   19.1357 H   0  0  0  0  0  0
  -30.4218  -11.3610   19.8599 H   0  0  0  0  0  0
  -29.7516  -11.7098   17.4944 H   0  0  0  0  0  0
  -29.6434  -13.4406   17.7312 H   0  0  0  0  0  0
  -27.9005  -11.2544   18.9357 H   0  0  0  0  0  0
  -27.3617  -12.4913   17.8281 H   0  0  0  0  0  0
  -27.6774  -14.2182   19.5383 H   0  0  0  0  0  0
  -28.7164  -11.9443   21.3309 H   0  0  0  0  0  0
  -28.4769  -13.5670   21.9053 H   0  0  0  0  0  0
  -25.2694   -9.5629   22.4806 H   0  0  0  0  0  0
  -23.9884   -7.4564   22.7437 H   0  0  0  0  0  0
  -21.0754   -8.8866   19.8949 H   0  0  0  0  0  0
  -22.3675  -10.9699   19.6207 H   0  0  0  0  0  0
  -21.1998   -7.6117   23.9702 H   0  0  0  0  0  0
  -21.1531   -6.0503   25.9077 H   0  0  0  0  0  0
  -22.0562   -2.7554   23.2927 H   0  0  0  0  0  0
  -22.3712  -11.9924   22.4734 H   0  0  0  0  0  0
  -21.1007  -13.1592   22.2529 H   0  0  0  0  0  0
  -26.2943  -15.6445   20.1532 H   0  0  0  0  0  0
  -24.6646  -15.8455   20.5097 H   0  0  0  0  0  0
  -26.7081  -32.5541   23.1172 H   0  0  0  0  0  0
  -24.9803  -33.9840   25.0336 H   0  0  0  0  0  0
  -22.7059  -31.3085   21.4119 H   0  0  0  0  0  0
  -23.3681  -35.9751   23.3298 H   0  0  0  0  0  0
  -24.3513  -36.9072   22.2063 H   0  0  0  0  0  0
  -23.7260  -37.6604   23.6700 H   0  0  0  0  0  0
  -26.0643  -31.5867   20.6132 H   0  0  0  0  0  0
  -26.8314  -30.8708   21.9916 H   0  0  0  0  0  0
  -28.1034  -29.0477   21.1833 H   0  0  0  0  0  0
  -26.0123  -25.9494   19.0127 H   0  0  0  0  0  0
  -23.9816  -27.3040   19.0252 H   0  0  0  0  0  0
  -23.7396  -30.6090   19.4136 H   0  0  0  0  0  0
  -22.7469  -29.2520   19.8511 H   0  0  0  0  0  0
  -25.1247  -36.2015   25.0827 H   0  0  0  0  0  0
  -20.9957  -28.3226   24.1418 H   0  0  0  0  0  0
  -20.5619  -26.2270   23.3644 H   0  0  0  0  0  0
  -21.6615  -26.7355   22.1241 H   0  0  0  0  0  0
  -19.6866  -25.6281   21.1222 H   0  0  0  0  0  0
  -19.6654  -27.3205   20.6794 H   0  0  0  0  0  0
  -17.4165  -26.6630   21.4039 H   0  0  0  0  0  0
  -18.0270  -26.0059   22.9052 H   0  0  0  0  0  0
  -19.7925  -30.7216   24.2316 H   0  0  0  0  0  0
  -17.4996  -31.6251   24.5153 H   0  0  0  0  0  0
  -15.5336  -30.2979   23.7627 H   0  0  0  0  0  0
  -15.8639  -28.0821   22.7031 H   0  0  0  0  0  0
  -24.5785  -30.7279   25.7869 H   0  0  0  0  0  0
  -24.8952  -32.3004   26.5008 H   0  0  0  0  0  0
  -25.7980  -30.8940   27.0291 H   0  0  0  0  0  0
  -26.2865  -29.6854   24.1253 H   0  0  0  0  0  0
  -27.4007  -29.7353   25.4732 H   0  0  0  0  0  0
  -27.8719  -30.4417   23.9439 H   0  0  0  0  0  0
  -27.2543  -33.3722   26.2122 H   0  0  0  0  0  0
  -28.3717  -32.7122   25.0302 H   0  0  0  0  0  0
  -28.0748  -31.8615   26.5413 H   0  0  0  0  0  0
  -28.2549  -38.0149   24.7435 H   0  0  0  0  0  0
  -28.1034  -36.2668   24.6227 H   0  0  0  0  0  0
  -27.2251  -37.1509   25.8831 H   0  0  0  0  0  0
  -20.9331  -29.8832   21.7001 H   0  0  0  0  0  0
  -26.0117  -38.2906   24.1460 H   0  0  0  0  0  0
  -29.6124  -17.8515   19.1293 H   0  0  0  0  0  0
  -28.3393  -18.5408   23.8494 H   0  0  0  0  0  0
  -27.7087  -19.8316   18.8587 H   0  0  0  0  0  0
  -30.4598  -21.2236   19.1590 H   0  0  0  0  0  0
  -27.5510  -22.3342   18.8181 H   0  0  0  0  0  0
  -28.2074  -21.3938   22.8500 H   0  0  0  0  0  0
  -26.8540  -20.2982   23.1031 H   0  0  0  0  0  0
  -27.0115  -21.0730   21.5637 H   0  0  0  0  0  0
  -29.2993  -16.4723   24.4861 H   0  0  0  0  0  0
  -30.0832  -15.3898   23.3462 H   0  0  0  0  0  0
  -28.3242  -15.4589   23.4293 H   0  0  0  0  0  0
  -30.1314  -21.8714   16.7885 H   0  0  0  0  0  0
  -28.5161  -21.1596   16.7656 H   0  0  0  0  0  0
  -29.9444  -20.1183   16.9017 H   0  0  0  0  0  0
  -27.1093  -23.9879   20.6754 H   0  0  0  0  0  0
  -28.4694  -24.4878   21.6363 H   0  0  0  0  0  0
  -29.5980  -25.1901   19.3709 H   0  0  0  0  0  0
  -28.0199  -25.1543   18.6833 H   0  0  0  0  0  0
  -28.7055  -15.1130   20.7318 H   0  0  0  0  0  0
  -28.8882  -22.3375   21.3395 H   0  0  0  0  0  0
  -29.8723  -23.0026   20.2493 H   0  0  0  0  0  0
  1 25  1  0  0  0
  1 30  2  0  0  0
  1 85  1  0  0  0
  2  3  1  0  0  0
  2 25  1  0  0  0
  2 87  1  0  0  0
  2 88  1  0  0  0
  3  4  1  0  0  0
  3 89  1  0  0  0
  3 90  1  0  0  0
  4  5  1  0  0  0
  4 91  1  0  0  0
  4 92  1  0  0  0
  5  6  1  0  0  0
  5 26  1  0  0  0
  5 93  1  0  0  0
  6 25  1  0  0  0
  6 94  1  0  0  0
  6 95  1  0  0  0
  7  8  2  0  0  0
  7 26  1  0  0  0
  7 29  1  0  0  0
  8  9  1  0  0  0
  8 22  1  0  0  0
  9 10  1  0  0  0
  9 27  2  0  0  0
 10 11  2  0  0  0
 10 15  1  0  0  0
 11 12  1  0  0  0
 11 96  1  0  0  0
 12 13  2  0  0  0
 12 97  1  0  0  0
 13 14  1  0  0  0
 13 31  1  0  0  0
 14 15  2  0  0  0
 14 98  1  0  0  0
 15 99  1  0  0  0
 16 17  2  0  0  0
 16 21  1  0  0  0
 16 31  1  0  0  0
 17 18  1  0  0  0
 17100  1  0  0  0
 18 19  2  0  0  0
 18101  1  0  0  0
 19 20  1  0  0  0
 19 24  1  0  0  0
 20 21  2  0  0  0
 20102  1  0  0  0
 21 23  1  0  0  0
 22 28  1  0  0  0
 22 32  2  0  0  0
 26 27  1  0  0  0
 28103  1  0  0  0
 28104  1  0  0  0
 29105  1  0  0  0
 29106  1  0  0  0
 33 34  1  0  0  0
 33 66  1  0  0  0
 33 70  2  0  0  0
 34 36  1  0  0  0
 34 59  1  0  0  0
 34107  1  0  0  0
 35 44  2  0  0  0
 35 45  1  0  0  0
 35 68  1  0  0  0
 36 56  1  0  0  0
 36108  1  0  0  0
 37 39  1  0  0  0
 37 47  1  0  0  0
 37 66  1  0  0  0
 37109  1  0  0  0
 38 43  2  0  0  0
 38 46  1  0  0  0
 38 47  1  0  0  0
 39 64  1  0  0  0
 39 67  2  0  0  0
 40 52  1  0  0  0
 40 53  2  0  0  0
 40 58  1  0  0  0
 41110  1  0  0  0
 41111  1  0  0  0
 41112  1  0  0  0
 41 48  1  0  0  0
 42 43  1  0  0  0
 42 66  1  0  0  0
 42113  1  0  0  0
 42114  1  0  0  0
 43 44  1  0  0  0
 44115  1  0  0  0
 45 46  2  0  0  0
 45116  1  0  0  0
 46117  1  0  0  0
 47118  1  0  0  0
 47119  1  0  0  0
 48 56  1  0  0  0
 48 65  1  0  0  0
 48120  1  0  0  0
 49 50  1  0  0  0
 49 53  1  0  0  0
 49 64  1  0  0  0
 49121  1  0  0  0
 50 51  1  0  0  0
 50122  1  0  0  0
 50123  1  0  0  0
 51 52  1  0  0  0
 51124  1  0  0  0
 51125  1  0  0  0
 52126  1  0  0  0
 52127  1  0  0  0
 53 54  1  0  0  0
 54 55  2  0  0  0
 54128  1  0  0  0
 55 57  1  0  0  0
 55129  1  0  0  0
 56 69  2  0  0  0
 57 58  2  0  0  0
 57130  1  0  0  0
 58131  1  0  0  0
 59 60  1  0  0  0
 59 61  1  0  0  0
 59 62  1  0  0  0
 60132  1  0  0  0
 60133  1  0  0  0
 60134  1  0  0  0
 61135  1  0  0  0
 61136  1  0  0  0
 61137  1  0  0  0
 62138  1  0  0  0
 62139  1  0  0  0
 62140  1  0  0  0
 63 65  1  0  0  0
 63141  1  0  0  0
 63142  1  0  0  0
 63143  1  0  0  0
 64144  1  0  0  0
 65145  1  0  0  0
 68 84  1  0  0  0
 71 73  2  0  0  0
 71 76  1  0  0  0
 71146  1  0  0  0
 72 74  2  0  0  0
 72 75  1  0  0  0
 72147  1  0  0  0
 73 74  1  0  0  0
 73 77  1  0  0  0
 74 80  1  0  0  0
 75 76  2  0  0  0
 75 81  1  0  0  0
 76 85  1  0  0  0
 77 78  1  0  0  0
 77 79  1  0  0  0
 77148  1  0  0  0
 78 79  1  0  0  0
 78 82  1  0  0  0
 78149  1  0  0  0
 79 86  1  0  0  0
 79150  1  0  0  0
 80151  1  0  0  0
 80152  1  0  0  0
 80153  1  0  0  0
 81154  1  0  0  0
 81155  1  0  0  0
 81156  1  0  0  0
 82157  1  0  0  0
 82158  1  0  0  0
 82159  1  0  0  0
 83 84  1  0  0  0
 83 86  1  0  0  0
 83160  1  0  0  0
 83161  1  0  0  0
 84162  1  0  0  0
 84163  1  0  0  0
 85164  1  0  0  0
 86165  1  0  0  0
 86166  1  0  0  0
M  CHG  1  86   1
M  ISO  4   1 100  68 101  84 101  85 100
M  END
> <chiral flag>
0

> <version>
0

> <s_m_source_file>
/data/baiqing/PycharmProjects/Reinvent-master-3.2/result/LINK_invent/BTK/process_docking_weight1_custom_sum_contain_oxygen_bond_distance_aromatic_linkinvent_7_9_3/rearranged_h_0151.sdf

> <i_m_source_file_index>
42

> <r_mmod_Potential_Energy-OPLS-2005>
-16.8355464935303

> <r_mmod_Stretch_Energy-OPLS-2005>
61.7355613708496

> <r_mmod_Bend_Energy-OPLS-2005>
179.929977416992

> <r_mmod_Torsional_Energy-OPLS-2005>
323.678771972656

> <r_mmod_Improper_Torsional_Energy-OPLS-2005>
16.4148197174072

> <r_mmod_Van_der_Waal_Energy-OPLS-2005>
135.741104125977

> <r_mmod_Electrostatic_Energy-OPLS-2005>
-318.847381591797

> <r_mmod_Solvation_Energy-OPLS-2005>
-451.018341064453

> <b_mmod_Minimization_Converged-OPLS-2005>
0

> <r_mmod_RMS_Derivative-OPLS-2005>
5.9849100112915

$$$$
42
                    3D
 Structure written by MMmdl.
161170  0  0  1  0            999 V2000
  -30.7022  -14.7098   20.4349 C   0  0  0  0  0  0
  -30.4098  -12.4385   19.4625 C   0  0  0  0  0  0
  -29.4958  -12.4907   18.2246 C   0  0  0  0  0  0
  -28.0261  -12.3065   18.6491 C   0  0  0  0  0  0
  -27.6288  -13.2154   19.8431 C   0  0  2  0  0  0
  -28.6881  -13.2185   20.9701 C   0  0  0  0  0  0
  -25.2495  -13.8114   20.5731 C   0  0  0  0  0  0
  -24.1786  -13.0381   20.9255 C   0  0  0  0  0  0
  -24.6373  -11.6858   20.8819 C   0  0  0  0  0  0
  -23.9041  -10.4255   21.0465 C   0  0  0  0  0  0
  -24.3594   -9.4161   21.9242 C   0  0  0  0  0  0
  -23.6265   -8.2189   22.0753 C   0  0  0  0  0  0
  -22.4261   -8.0239   21.3527 C   0  0  0  0  0  0
  -21.9904   -9.0220   20.4645 C   0  0  0  0  0  0
  -22.7220  -10.2110   20.3091 C   0  0  0  0  0  0
  -21.6842   -6.0714   22.5289 C   0  0  0  0  0  0
  -21.4002   -6.5621   23.8226 C   0  0  0  0  0  0
  -21.3671   -5.6780   24.9190 C   0  0  0  0  0  0
  -21.6045   -4.3039   24.7246 C   0  0  0  0  0  0
  -21.8805   -3.8127   23.4365 C   0  0  0  0  0  0
  -21.9180   -4.6945   22.3415 C   0  0  0  0  0  0
  -22.7811  -13.5194   21.1872 C   0  0  0  0  0  0
  -22.1633   -4.2133   21.0998 F   0  0  0  0  0  0
  -21.5652   -3.4522   25.7763 F   0  0  0  0  0  0
  -29.9848  -13.5353   20.3613 N   0  0  0  0  0  0
  -26.2911  -12.9275   20.3346 N   0  0  0  0  0  0
  -25.9309  -11.6449   20.5844 N   0  0  0  0  0  0
  -22.0418  -12.8242   22.0431 N   0  0  0  0  0  0
  -25.4178  -15.1820   20.4084 N   0  0  0  0  0  0
  -31.9068  -14.6879   20.1745 O   0  0  0  0  0  0
  -21.6607   -6.8849   21.4245 O   0  0  0  0  0  0
  -22.3538  -14.5504   20.6694 O   0  0  0  0  0  0
  -24.6277  -31.8590   23.2047 C   0  0  0  0  0  0
  -25.9133  -32.4761   23.8346 C   0  0  1  0  0  0
  -27.2127  -27.3163   20.0972 C   0  0  0  0  0  0
  -25.5946  -33.8566   24.2270 N   0  0  0  0  0  0
  -23.4178  -30.4881   21.5489 C   0  0  2  0  0  0
  -24.8584  -28.9472   20.1099 C   0  0  0  0  0  0
  -22.7475  -29.4622   22.4944 C   0  0  0  0  0  0
  -18.0289  -28.1391   22.8487 C   0  0  0  0  0  0
  -24.1487  -36.7299   23.2623 C   0  0  0  0  0  0
  -25.9631  -30.7839   21.3795 C   0  0  0  0  0  0
  -26.0317  -29.4150   20.7145 C   0  0  0  0  0  0
  -27.2115  -28.6119   20.7007 C   0  0  0  0  0  0
  -26.0109  -26.9041   19.4717 C   0  0  0  0  0  0
  -24.8493  -27.6937   19.4847 C   0  0  0  0  0  0
  -23.6298  -29.8317   20.1612 C   0  0  0  0  0  0
  -25.4107  -36.3075   24.0319 C   0  0  1  0  0  0
  -20.5895  -28.3686   23.1292 C   0  0  2  0  0  0
  -20.6791  -26.9410   22.5405 C   0  0  0  0  0  0
  -19.5754  -26.6391   21.5226 C   0  0  0  0  0  0
  -18.1932  -26.7939   22.1623 C   0  0  0  0  0  0
  -19.1545  -28.8853   23.2884 C   0  0  0  0  0  0
  -18.9469  -30.1470   23.8887 C   0  0  0  0  0  0
  -17.6463  -30.6585   24.0576 C   0  0  0  0  0  0
  -25.9058  -34.9449   23.5090 C   0  0  0  0  0  0
  -16.5353  -29.9081   23.6338 C   0  0  0  0  0  0
  -16.7275  -28.6509   23.0334 C   0  0  0  0  0  0
  -26.4519  -31.6578   25.0725 C   0  0  0  0  0  0
  -25.3762  -31.3724   26.1457 C   0  0  0  0  0  0
  -27.0363  -30.2983   24.6216 C   0  0  0  0  0  0
  -27.6049  -32.4340   25.7503 C   0  0  0  0  0  0
  -27.5605  -37.1760   24.8431 C   0  0  0  0  0  0
  -21.4194  -29.3038   22.3685 N   0  0  0  0  0  0
  -26.4269  -37.3796   23.9440 N   0  0  0  0  0  0
  -24.6882  -31.0618   22.0999 N   0  0  0  0  0  0
  -23.4209  -28.8167   23.3022 O   0  0  0  0  0  0
  -28.3223  -26.4536   20.1419 O   0  0  0  0  0  0
  -26.5636  -34.8926   22.4666 O   0  0  0  0  0  0
  -23.5441  -32.1407   23.7374 O   0  0  0  0  0  0
  -30.2658  -24.3528   21.0259 C   0  0  0  0  0  0
  -29.0347  -22.5521   19.9371 C   0  0  0  0  0  0
  -29.1443  -23.9489   20.2839 C   0  0  0  0  0  0
  -31.2718  -23.4277   21.3720 C   0  0  0  0  0  0
  -30.0343  -21.5785   20.2901 C   0  0  0  0  0  0
  -31.1751  -22.0660   20.9822 C   0  0  0  0  0  0
  -29.1062  -17.9903   19.4093 C   0  0  0  0  0  0
  -30.2071  -18.3985   21.5939 C   0  0  0  0  0  0
  -28.9458  -16.5086   19.9433 C   0  0  0  0  0  0
  -30.9488  -17.0595   21.2177 C   0  0  0  0  0  0
  -29.4181  -19.1072   20.4553 C   0  0  0  0  0  0
  -32.4793  -23.9360   22.1427 C   0  0  0  0  0  0
  -28.0683  -25.0124   19.8954 C   0  0  0  0  0  0
  -30.1009  -15.9425   20.6976 N   0  0  0  0  0  0
  -30.0490  -20.2568   19.7896 O   0  0  0  0  0  0
  -32.5147  -21.0128   21.2893 Cl  0  0  0  0  0  0
  -31.4539  -12.5181   19.1556 H   0  0  0  0  0  0
  -30.3199  -11.4779   19.9696 H   0  0  0  0  0  0
  -29.7805  -11.7177   17.5110 H   0  0  0  0  0  0
  -29.6200  -13.4448   17.7111 H   0  0  0  0  0  0
  -27.8942  -11.2589   18.9194 H   0  0  0  0  0  0
  -27.3627  -12.4825   17.8011 H   0  0  0  0  0  0
  -27.5734  -14.2122   19.4249 H   0  0  0  0  0  0
  -28.7343  -12.2513   21.4720 H   0  0  0  0  0  0
  -28.4343  -13.9540   21.7355 H   0  0  0  0  0  0
  -25.2723   -9.5607   22.4858 H   0  0  0  0  0  0
  -23.9934   -7.4573   22.7487 H   0  0  0  0  0  0
  -21.0810   -8.8736   19.8986 H   0  0  0  0  0  0
  -22.3658  -10.9651   19.6205 H   0  0  0  0  0  0
  -21.1987   -7.6128   23.9708 H   0  0  0  0  0  0
  -21.1519   -6.0532   25.9096 H   0  0  0  0  0  0
  -22.0596   -2.7589   23.2877 H   0  0  0  0  0  0
  -22.3933  -11.9878   22.4861 H   0  0  0  0  0  0
  -21.1055  -13.1338   22.2618 H   0  0  0  0  0  0
  -24.6469  -15.8323   20.5166 H   0  0  0  0  0  0
  -26.2647  -15.6237   20.0776 H   0  0  0  0  0  0
  -26.7189  -32.5409   23.1074 H   0  0  0  0  0  0
  -25.0089  -33.9695   25.0407 H   0  0  0  0  0  0
  -22.7116  -31.3103   21.4118 H   0  0  0  0  0  0
  -23.3786  -35.9587   23.3178 H   0  0  0  0  0  0
  -24.3618  -36.9036   22.2065 H   0  0  0  0  0  0
  -23.7183  -37.6439   23.6723 H   0  0  0  0  0  0
  -26.1075  -31.5503   20.6176 H   0  0  0  0  0  0
  -26.8390  -30.8186   22.0142 H   0  0  0  0  0  0
  -28.1114  -28.9649   21.1835 H   0  0  0  0  0  0
  -25.9258  -25.9518   18.9714 H   0  0  0  0  0  0
  -23.9499  -27.3258   19.0092 H   0  0  0  0  0  0
  -23.7528  -30.6144   19.4117 H   0  0  0  0  0  0
  -22.7448  -29.2706   19.8544 H   0  0  0  0  0  0
  -25.1272  -36.1900   25.0805 H   0  0  0  0  0  0
  -20.9995  -28.3258   24.1406 H   0  0  0  0  0  0
  -20.5720  -26.2289   23.3605 H   0  0  0  0  0  0
  -21.6652  -26.7446   22.1175 H   0  0  0  0  0  0
  -19.6921  -25.6307   21.1230 H   0  0  0  0  0  0
  -19.6715  -27.3228   20.6778 H   0  0  0  0  0  0
  -17.4218  -26.6713   21.4009 H   0  0  0  0  0  0
  -18.0308  -26.0068   22.9000 H   0  0  0  0  0  0
  -19.7941  -30.7310   24.2232 H   0  0  0  0  0  0
  -17.5000  -31.6265   24.5189 H   0  0  0  0  0  0
  -15.5347  -30.2974   23.7676 H   0  0  0  0  0  0
  -15.8671  -28.0836   22.7025 H   0  0  0  0  0  0
  -24.5891  -30.7133   25.7785 H   0  0  0  0  0  0
  -24.9033  -32.2910   26.4940 H   0  0  0  0  0  0
  -25.8087  -30.8837   27.0195 H   0  0  0  0  0  0
  -26.2941  -29.6717   24.1258 H   0  0  0  0  0  0
  -27.4052  -29.7257   25.4735 H   0  0  0  0  0  0
  -27.8824  -30.4245   23.9460 H   0  0  0  0  0  0
  -27.2606  -33.3607   26.2115 H   0  0  0  0  0  0
  -28.3844  -32.6970   25.0340 H   0  0  0  0  0  0
  -28.0753  -31.8471   26.5403 H   0  0  0  0  0  0
  -28.2480  -38.0191   24.7662 H   0  0  0  0  0  0
  -28.1240  -36.2737   24.6008 H   0  0  0  0  0  0
  -27.2361  -37.1098   25.8829 H   0  0  0  0  0  0
  -20.9378  -29.8759   21.6890 H   0  0  0  0  0  0
  -26.0139  -38.2831   24.1575 H   0  0  0  0  0  0
  -30.3629  -25.3903   21.3167 H   0  0  0  0  0  0
  -28.1863  -22.2308   19.3503 H   0  0  0  0  0  0
  -28.2079  -18.2764   18.8600 H   0  0  0  0  0  0
  -29.9050  -17.9853   18.6661 H   0  0  0  0  0  0
  -30.8920  -19.0944   22.0725 H   0  0  0  0  0  0
  -29.4835  -18.1503   22.3710 H   0  0  0  0  0  0
  -28.7511  -15.8947   19.0672 H   0  0  0  0  0  0
  -28.0672  -16.4479   20.5845 H   0  0  0  0  0  0
  -31.4826  -16.7013   22.0983 H   0  0  0  0  0  0
  -31.7165  -17.2908   20.4764 H   0  0  0  0  0  0
  -28.4769  -19.4692   20.8729 H   0  0  0  0  0  0
  -32.4074  -25.0083   22.3332 H   0  0  0  0  0  0
  -33.3989  -23.7657   21.5835 H   0  0  0  0  0  0
  -32.5581  -23.4288   23.1042 H   0  0  0  0  0  0
  -27.1739  -24.7134   20.4434 H   0  0  0  0  0  0
  -27.8542  -24.8711   18.8348 H   0  0  0  0  0  0
  1 25  1  0  0  0
  1 30  2  0  0  0
  1 84  1  0  0  0
  2  3  1  0  0  0
  2 25  1  0  0  0
  2 87  1  0  0  0
  2 88  1  0  0  0
  3  4  1  0  0  0
  3 89  1  0  0  0
  3 90  1  0  0  0
  4  5  1  0  0  0
  4 91  1  0  0  0
  4 92  1  0  0  0
  5  6  1  0  0  0
  5 26  1  0  0  0
  5 93  1  0  0  0
  6 25  1  0  0  0
  6 94  1  0  0  0
  6 95  1  0  0  0
  7  8  2  0  0  0
  7 26  1  0  0  0
  7 29  1  0  0  0
  8  9  1  0  0  0
  8 22  1  0  0  0
  9 10  1  0  0  0
  9 27  2  0  0  0
 10 11  2  0  0  0
 10 15  1  0  0  0
 11 12  1  0  0  0
 11 96  1  0  0  0
 12 13  2  0  0  0
 12 97  1  0  0  0
 13 14  1  0  0  0
 13 31  1  0  0  0
 14 15  2  0  0  0
 14 98  1  0  0  0
 15 99  1  0  0  0
 16 17  2  0  0  0
 16 21  1  0  0  0
 16 31  1  0  0  0
 17 18  1  0  0  0
 17100  1  0  0  0
 18 19  2  0  0  0
 18101  1  0  0  0
 19 20  1  0  0  0
 19 24  1  0  0  0
 20 21  2  0  0  0
 20102  1  0  0  0
 21 23  1  0  0  0
 22 28  1  0  0  0
 22 32  2  0  0  0
 26 27  1  0  0  0
 28103  1  0  0  0
 28104  1  0  0  0
 29105  1  0  0  0
 29106  1  0  0  0
 33 34  1  0  0  0
 33 66  1  0  0  0
 33 70  2  0  0  0
 34 36  1  0  0  0
 34 59  1  0  0  0
 34107  1  0  0  0
 35 44  2  0  0  0
 35 45  1  0  0  0
 35 68  1  0  0  0
 36 56  1  0  0  0
 36108  1  0  0  0
 37 39  1  0  0  0
 37 47  1  0  0  0
 37 66  1  0  0  0
 37109  1  0  0  0
 38 43  2  0  0  0
 38 46  1  0  0  0
 38 47  1  0  0  0
 39 64  1  0  0  0
 39 67  2  0  0  0
 40 52  1  0  0  0
 40 53  2  0  0  0
 40 58  1  0  0  0
 41110  1  0  0  0
 41111  1  0  0  0
 41112  1  0  0  0
 41 48  1  0  0  0
 42 43  1  0  0  0
 42 66  1  0  0  0
 42113  1  0  0  0
 42114  1  0  0  0
 43 44  1  0  0  0
 44115  1  0  0  0
 45 46  2  0  0  0
 45116  1  0  0  0
 46117  1  0  0  0
 47118  1  0  0  0
 47119  1  0  0  0
 48 56  1  0  0  0
 48 65  1  0  0  0
 48120  1  0  0  0
 49 50  1  0  0  0
 49 53  1  0  0  0
 49 64  1  0  0  0
 49121  1  0  0  0
 50 51  1  0  0  0
 50122  1  0  0  0
 50123  1  0  0  0
 51 52  1  0  0  0
 51124  1  0  0  0
 51125  1  0  0  0
 52126  1  0  0  0
 52127  1  0  0  0
 53 54  1  0  0  0
 54 55  2  0  0  0
 54128  1  0  0  0
 55 57  1  0  0  0
 55129  1  0  0  0
 56 69  2  0  0  0
 57 58  2  0  0  0
 57130  1  0  0  0
 58131  1  0  0  0
 59 60  1  0  0  0
 59 61  1  0  0  0
 59 62  1  0  0  0
 60132  1  0  0  0
 60133  1  0  0  0
 60134  1  0  0  0
 61135  1  0  0  0
 61136  1  0  0  0
 61137  1  0  0  0
 62138  1  0  0  0
 62139  1  0  0  0
 62140  1  0  0  0
 63 65  1  0  0  0
 63141  1  0  0  0
 63142  1  0  0  0
 63143  1  0  0  0
 64144  1  0  0  0
 65145  1  0  0  0
 68 83  1  0  0  0
 71 73  2  0  0  0
 71 74  1  0  0  0
 71146  1  0  0  0
 72 73  1  0  0  0
 72 75  2  0  0  0
 72147  1  0  0  0
 73 83  1  0  0  0
 74 76  2  0  0  0
 74 82  1  0  0  0
 75 76  1  0  0  0
 75 85  1  0  0  0
 76 86  1  0  0  0
 77 79  1  0  0  0
 77 81  1  0  0  0
 77148  1  0  0  0
 77149  1  0  0  0
 78 80  1  0  0  0
 78 81  1  0  0  0
 78150  1  0  0  0
 78151  1  0  0  0
 79 84  1  0  0  0
 79152  1  0  0  0
 79153  1  0  0  0
 80 84  1  0  0  0
 80154  1  0  0  0
 80155  1  0  0  0
 81 85  1  0  0  0
 81156  1  0  0  0
 82157  1  0  0  0
 82158  1  0  0  0
 82159  1  0  0  0
 83160  1  0  0  0
 83161  1  0  0  0
M  ISO  4   1 100  68 101  83 101  84 100
M  END
> <chiral flag>
0

> <version>
0

> <s_m_source_file>
/data/baiqing/PycharmProjects/Reinvent-master-3.2/result/LINK_invent/BTK/process_docking_weight1_custom_sum_contain_oxygen_bond_distance_aromatic_linkinvent_7_9_3/rearranged_h_0151.sdf

> <i_m_source_file_index>
43

> <r_mmod_Potential_Energy-OPLS-2005>
382.555572509766

> <r_mmod_Stretch_Energy-OPLS-2005>
89.0713958740234

> <r_mmod_Bend_Energy-OPLS-2005>
164.133270263672

> <r_mmod_Torsional_Energy-OPLS-2005>
362.321319580078

> <r_mmod_Improper_Torsional_Energy-OPLS-2005>
6.04743719100952

> <r_mmod_Van_der_Waal_Energy-OPLS-2005>
156.730239868164

> <r_mmod_Electrostatic_Energy-OPLS-2005>
-266.705535888672

> <r_mmod_Solvation_Energy-OPLS-2005>
-201.803771972656

> <b_mmod_Minimization_Converged-OPLS-2005>
0

> <r_mmod_RMS_Derivative-OPLS-2005>
3.08061027526855

$$$$
43
                    3D
 Structure written by MMmdl.
167176  0  0  1  0            999 V2000
  -30.6951  -14.5108   20.5212 C   0  0  0  0  0  0
  -30.4263  -12.3174   19.4310 C   0  0  0  0  0  0
  -29.4980  -12.4893   18.2102 C   0  0  0  0  0  0
  -28.0182  -12.3618   18.6215 C   0  0  0  0  0  0
  -27.6617  -13.2037   19.8759 C   0  0  2  0  0  0
  -28.7096  -13.0224   20.9978 C   0  0  0  0  0  0
  -25.2610  -13.8151   20.5693 C   0  0  0  0  0  0
  -24.1853  -13.0434   20.9173 C   0  0  0  0  0  0
  -24.6404  -11.6900   20.8736 C   0  0  0  0  0  0
  -23.9063  -10.4291   21.0402 C   0  0  0  0  0  0
  -24.3618   -9.4213   21.9184 C   0  0  0  0  0  0
  -23.6298   -8.2241   22.0752 C   0  0  0  0  0  0
  -22.4277   -8.0281   21.3534 C   0  0  0  0  0  0
  -21.9912   -9.0260   20.4637 C   0  0  0  0  0  0
  -22.7240  -10.2137   20.3048 C   0  0  0  0  0  0
  -21.6850   -6.0732   22.5276 C   0  0  0  0  0  0
  -21.4009   -6.5636   23.8212 C   0  0  0  0  0  0
  -21.3658   -5.6786   24.9174 C   0  0  0  0  0  0
  -21.6048   -4.3047   24.7220 C   0  0  0  0  0  0
  -21.8824   -3.8140   23.4337 C   0  0  0  0  0  0
  -21.9201   -4.6962   22.3399 C   0  0  0  0  0  0
  -22.7875  -13.5242   21.1819 C   0  0  0  0  0  0
  -22.1670   -4.2153   21.0976 F   0  0  0  0  0  0
  -21.5636   -3.4528   25.7726 F   0  0  0  0  0  0
  -30.0330  -13.3235   20.4321 N   0  0  0  0  0  0
  -26.3041  -12.9308   20.3397 N   0  0  0  0  0  0
  -25.9338  -11.6476   20.5792 N   0  0  0  0  0  0
  -22.0487  -12.8248   22.0358 N   0  0  0  0  0  0
  -25.4323  -15.1871   20.4113 N   0  0  0  0  0  0
  -31.8499  -14.6540   20.1150 O   0  0  0  0  0  0
  -21.6638   -6.8876   21.4234 O   0  0  0  0  0  0
  -22.3587  -14.5558   20.6669 O   0  0  0  0  0  0
  -24.6168  -31.8653   23.2098 C   0  0  0  0  0  0
  -25.9057  -32.4797   23.8379 C   0  0  1  0  0  0
  -27.2250  -27.4027   20.0932 C   0  0  0  0  0  0
  -25.5910  -33.8595   24.2302 N   0  0  0  0  0  0
  -23.4048  -30.4927   21.5508 C   0  0  2  0  0  0
  -24.8494  -28.9654   20.1088 C   0  0  0  0  0  0
  -22.7420  -29.4642   22.4961 C   0  0  0  0  0  0
  -18.0267  -28.1384   22.8468 C   0  0  0  0  0  0
  -24.1489  -36.7312   23.2637 C   0  0  0  0  0  0
  -25.9387  -30.8227   21.3687 C   0  0  0  0  0  0
  -26.0140  -29.4579   20.7105 C   0  0  0  0  0  0
  -27.2038  -28.6846   20.7014 C   0  0  0  0  0  0
  -26.0395  -26.9551   19.4569 C   0  0  0  0  0  0
  -24.8587  -27.7141   19.4772 C   0  0  0  0  0  0
  -23.6130  -29.8332   20.1635 C   0  0  0  0  0  0
  -25.4109  -36.3088   24.0332 C   0  0  1  0  0  0
  -20.5861  -28.3657   23.1308 C   0  0  2  0  0  0
  -20.6742  -26.9384   22.5426 C   0  0  0  0  0  0
  -19.5742  -26.6385   21.5197 C   0  0  0  0  0  0
  -18.1911  -26.7938   22.1583 C   0  0  0  0  0  0
  -19.1519  -28.8835   23.2885 C   0  0  0  0  0  0
  -18.9449  -30.1444   23.8887 C   0  0  0  0  0  0
  -17.6451  -30.6573   24.0571 C   0  0  0  0  0  0
  -25.9043  -34.9462   23.5113 C   0  0  0  0  0  0
  -16.5339  -29.9078   23.6342 C   0  0  0  0  0  0
  -16.7258  -28.6514   23.0327 C   0  0  0  0  0  0
  -26.4475  -31.6577   25.0714 C   0  0  0  0  0  0
  -25.3740  -31.3675   26.1457 C   0  0  0  0  0  0
  -27.0318  -30.3014   24.6115 C   0  0  0  0  0  0
  -27.6027  -32.4305   25.7496 C   0  0  0  0  0  0
  -27.5581  -37.1813   24.8446 C   0  0  0  0  0  0
  -21.4142  -29.3024   22.3718 N   0  0  0  0  0  0
  -26.4281  -37.3785   23.9406 N   0  0  0  0  0  0
  -24.6717  -31.0743   22.1008 N   0  0  0  0  0  0
  -23.4189  -28.8171   23.2994 O   0  0  0  0  0  0
  -28.3683  -26.6104   20.1486 O   0  0  0  0  0  0
  -26.5607  -34.8919   22.4674 O   0  0  0  0  0  0
  -23.5359  -32.1400   23.7498 O   0  0  0  0  0  0
  -28.9059  -20.4931   20.0017 C   0  0  0  0  0  0
  -30.4137  -21.6869   21.5049 C   0  0  0  0  0  0
  -29.4615  -19.2702   20.4416 C   0  0  0  0  0  0
  -30.4475  -19.2471   21.4187 C   0  0  0  0  0  0
  -30.9490  -20.4514   21.9601 C   0  0  0  0  0  0
  -29.3815  -21.7218   20.5265 C   0  0  0  0  0  0
  -30.8656  -17.8219   21.7381 C   0  0  0  0  0  0
  -29.1345  -17.8662   19.9527 C   0  0  2  0  0  0
  -30.2949  -16.9960   20.5528 C   0  0  2  0  0  0
  -32.0595  -20.4279   22.9930 C   0  0  0  0  0  0
  -30.1433  -18.2359   17.5719 C   0  0  0  0  0  0
  -28.4265  -16.4139   17.9484 C   0  0  0  0  0  0
  -28.1837  -25.1943   19.8840 C   0  0  0  0  0  0
  -29.2212  -24.1889   20.4525 C   0  0  0  0  0  0
  -28.9322  -17.7836   18.4111 C   0  0  0  0  0  0
  -29.9473  -15.5839   20.8576 N   0  0  0  0  0  0
  -28.7973  -22.8786   20.0316 O   0  0  0  0  0  0
  -31.4696  -12.4173   19.1249 H   0  0  0  0  0  0
  -30.3350  -11.3128   19.8469 H   0  0  0  0  0  0
  -29.7394  -11.7480   17.4475 H   0  0  0  0  0  0
  -29.6710  -13.4600   17.7457 H   0  0  0  0  0  0
  -27.8194  -11.3071   18.8144 H   0  0  0  0  0  0
  -27.3719  -12.6421   17.7884 H   0  0  0  0  0  0
  -27.6924  -14.2439   19.5705 H   0  0  0  0  0  0
  -28.6944  -11.9988   21.3758 H   0  0  0  0  0  0
  -28.4805  -13.6599   21.8530 H   0  0  0  0  0  0
  -25.2759   -9.5697   22.4755 H   0  0  0  0  0  0
  -24.0011   -7.4633   22.7473 H   0  0  0  0  0  0
  -21.0839   -8.8779   19.8941 H   0  0  0  0  0  0
  -22.3709  -10.9675   19.6153 H   0  0  0  0  0  0
  -21.1986   -7.6141   23.9719 H   0  0  0  0  0  0
  -21.1477   -6.0505   25.9082 H   0  0  0  0  0  0
  -22.0605   -2.7602   23.2821 H   0  0  0  0  0  0
  -22.4064  -11.9896   22.4734 H   0  0  0  0  0  0
  -21.1106  -13.1295   22.2532 H   0  0  0  0  0  0
  -24.6571  -15.8338   20.5057 H   0  0  0  0  0  0
  -26.2823  -15.6285   20.0890 H   0  0  0  0  0  0
  -26.7126  -32.5497   23.1138 H   0  0  0  0  0  0
  -25.0046  -33.9742   25.0436 H   0  0  0  0  0  0
  -22.6940  -31.3107   21.4151 H   0  0  0  0  0  0
  -23.3747  -35.9647   23.3275 H   0  0  0  0  0  0
  -24.3591  -36.8956   22.2056 H   0  0  0  0  0  0
  -23.7246  -37.6508   23.6679 H   0  0  0  0  0  0
  -26.0591  -31.5921   20.6043 H   0  0  0  0  0  0
  -26.8234  -30.8684   21.9918 H   0  0  0  0  0  0
  -28.0978  -29.0591   21.1805 H   0  0  0  0  0  0
  -25.9932  -26.0128   18.9325 H   0  0  0  0  0  0
  -23.9684  -27.3334   18.9955 H   0  0  0  0  0  0
  -23.7210  -30.6104   19.4059 H   0  0  0  0  0  0
  -22.7360  -29.2547   19.8668 H   0  0  0  0  0  0
  -25.1294  -36.1934   25.0824 H   0  0  0  0  0  0
  -20.9946  -28.3218   24.1433 H   0  0  0  0  0  0
  -20.5595  -26.2265   23.3613 H   0  0  0  0  0  0
  -21.6621  -26.7392   22.1252 H   0  0  0  0  0  0
  -19.6897  -25.6296   21.1216 H   0  0  0  0  0  0
  -19.6726  -27.3200   20.6740 H   0  0  0  0  0  0
  -17.4205  -26.6719   21.3952 H   0  0  0  0  0  0
  -18.0274  -26.0066   22.8948 H   0  0  0  0  0  0
  -19.7929  -30.7265   24.2233 H   0  0  0  0  0  0
  -17.5011  -31.6252   24.5178 H   0  0  0  0  0  0
  -15.5341  -30.2978   23.7683 H   0  0  0  0  0  0
  -15.8658  -28.0861   22.7000 H   0  0  0  0  0  0
  -24.5995  -30.6911   25.7819 H   0  0  0  0  0  0
  -24.8842  -32.2817   26.4821 H   0  0  0  0  0  0
  -25.8123  -30.8950   27.0260 H   0  0  0  0  0  0
  -26.2878  -29.6760   24.1167 H   0  0  0  0  0  0
  -27.4062  -29.7255   25.4586 H   0  0  0  0  0  0
  -27.8724  -30.4299   23.9293 H   0  0  0  0  0  0
  -27.2610  -33.3575   26.2111 H   0  0  0  0  0  0
  -28.3843  -32.6907   25.0345 H   0  0  0  0  0  0
  -28.0700  -31.8414   26.5395 H   0  0  0  0  0  0
  -28.2574  -38.0132   24.7506 H   0  0  0  0  0  0
  -28.1105  -36.2668   24.6241 H   0  0  0  0  0  0
  -27.2320  -37.1412   25.8852 H   0  0  0  0  0  0
  -20.9281  -29.8788   21.6991 H   0  0  0  0  0  0
  -26.0161  -38.2854   24.1427 H   0  0  0  0  0  0
  -28.1275  -20.4970   19.2527 H   0  0  0  0  0  0
  -30.8075  -22.6059   21.9152 H   0  0  0  0  0  0
  -30.4140  -17.5219   22.6847 H   0  0  0  0  0  0
  -31.9478  -17.7203   21.8263 H   0  0  0  0  0  0
  -28.2002  -17.5959   20.4472 H   0  0  0  0  0  0
  -31.0943  -17.0057   19.8128 H   0  0  0  0  0  0
  -32.2203  -21.4130   23.4317 H   0  0  0  0  0  0
  -32.9940  -20.1056   22.5319 H   0  0  0  0  0  0
  -31.8195  -19.7346   23.8004 H   0  0  0  0  0  0
  -30.4689  -19.2416   17.8382 H   0  0  0  0  0  0
  -29.8899  -18.2517   16.5104 H   0  0  0  0  0  0
  -30.9977  -17.5681   17.6825 H   0  0  0  0  0  0
  -27.4952  -16.1564   18.4494 H   0  0  0  0  0  0
  -29.1589  -15.6343   18.1469 H   0  0  0  0  0  0
  -28.2257  -16.4104   16.8767 H   0  0  0  0  0  0
  -27.2325  -24.8635   20.3040 H   0  0  0  0  0  0
  -28.1218  -25.0592   18.8033 H   0  0  0  0  0  0
  -29.2432  -24.2609   21.5408 H   0  0  0  0  0  0
  -30.2215  -24.4019   20.0737 H   0  0  0  0  0  0
  -28.1249  -18.4759   18.1724 H   0  0  0  0  0  0
  -29.0048  -15.3994   21.1637 H   0  0  0  0  0  0
  1 25  1  0  0  0
  1 30  2  0  0  0
  1 86  1  0  0  0
  2  3  1  0  0  0
  2 25  1  0  0  0
  2 88  1  0  0  0
  2 89  1  0  0  0
  3  4  1  0  0  0
  3 90  1  0  0  0
  3 91  1  0  0  0
  4  5  1  0  0  0
  4 92  1  0  0  0
  4 93  1  0  0  0
  5  6  1  0  0  0
  5 26  1  0  0  0
  5 94  1  0  0  0
  6 25  1  0  0  0
  6 95  1  0  0  0
  6 96  1  0  0  0
  7  8  2  0  0  0
  7 26  1  0  0  0
  7 29  1  0  0  0
  8  9  1  0  0  0
  8 22  1  0  0  0
  9 10  1  0  0  0
  9 27  2  0  0  0
 10 11  2  0  0  0
 10 15  1  0  0  0
 11 12  1  0  0  0
 11 97  1  0  0  0
 12 13  2  0  0  0
 12 98  1  0  0  0
 13 14  1  0  0  0
 13 31  1  0  0  0
 14 15  2  0  0  0
 14 99  1  0  0  0
 15100  1  0  0  0
 16 17  2  0  0  0
 16 21  1  0  0  0
 16 31  1  0  0  0
 17 18  1  0  0  0
 17101  1  0  0  0
 18 19  2  0  0  0
 18102  1  0  0  0
 19 20  1  0  0  0
 19 24  1  0  0  0
 20 21  2  0  0  0
 20103  1  0  0  0
 21 23  1  0  0  0
 22 28  1  0  0  0
 22 32  2  0  0  0
 26 27  1  0  0  0
 28104  1  0  0  0
 28105  1  0  0  0
 29106  1  0  0  0
 29107  1  0  0  0
 33 34  1  0  0  0
 33 66  1  0  0  0
 33 70  2  0  0  0
 34 36  1  0  0  0
 34 59  1  0  0  0
 34108  1  0  0  0
 35 44  2  0  0  0
 35 45  1  0  0  0
 35 68  1  0  0  0
 36 56  1  0  0  0
 36109  1  0  0  0
 37 39  1  0  0  0
 37 47  1  0  0  0
 37 66  1  0  0  0
 37110  1  0  0  0
 38 43  2  0  0  0
 38 46  1  0  0  0
 38 47  1  0  0  0
 39 64  1  0  0  0
 39 67  2  0  0  0
 40 52  1  0  0  0
 40 53  2  0  0  0
 40 58  1  0  0  0
 41111  1  0  0  0
 41112  1  0  0  0
 41113  1  0  0  0
 41 48  1  0  0  0
 42 43  1  0  0  0
 42 66  1  0  0  0
 42114  1  0  0  0
 42115  1  0  0  0
 43 44  1  0  0  0
 44116  1  0  0  0
 45 46  2  0  0  0
 45117  1  0  0  0
 46118  1  0  0  0
 47119  1  0  0  0
 47120  1  0  0  0
 48 56  1  0  0  0
 48 65  1  0  0  0
 48121  1  0  0  0
 49 50  1  0  0  0
 49 53  1  0  0  0
 49 64  1  0  0  0
 49122  1  0  0  0
 50 51  1  0  0  0
 50123  1  0  0  0
 50124  1  0  0  0
 51 52  1  0  0  0
 51125  1  0  0  0
 51126  1  0  0  0
 52127  1  0  0  0
 52128  1  0  0  0
 53 54  1  0  0  0
 54 55  2  0  0  0
 54129  1  0  0  0
 55 57  1  0  0  0
 55130  1  0  0  0
 56 69  2  0  0  0
 57 58  2  0  0  0
 57131  1  0  0  0
 58132  1  0  0  0
 59 60  1  0  0  0
 59 61  1  0  0  0
 59 62  1  0  0  0
 60133  1  0  0  0
 60134  1  0  0  0
 60135  1  0  0  0
 61136  1  0  0  0
 61137  1  0  0  0
 61138  1  0  0  0
 62139  1  0  0  0
 62140  1  0  0  0
 62141  1  0  0  0
 63 65  1  0  0  0
 63142  1  0  0  0
 63143  1  0  0  0
 63144  1  0  0  0
 64145  1  0  0  0
 65146  1  0  0  0
 68 83  1  0  0  0
 71 73  2  0  0  0
 71 76  1  0  0  0
 71147  1  0  0  0
 72 75  1  0  0  0
 72 76  2  0  0  0
 72148  1  0  0  0
 73 74  1  0  0  0
 73 78  1  0  0  0
 74 75  2  0  0  0
 74 77  1  0  0  0
 75 80  1  0  0  0
 76 87  1  0  0  0
 77 79  1  0  0  0
 77149  1  0  0  0
 77150  1  0  0  0
 78 79  1  0  0  0
 78 85  1  0  0  0
 78151  1  0  0  0
 79 86  1  0  0  0
 79152  1  0  0  0
 80153  1  0  0  0
 80154  1  0  0  0
 80155  1  0  0  0
 81156  1  0  0  0
 81157  1  0  0  0
 81158  1  0  0  0
 81 85  1  0  0  0
 82 85  1  0  0  0
 82159  1  0  0  0
 82160  1  0  0  0
 82161  1  0  0  0
 83 84  1  0  0  0
 83162  1  0  0  0
 83163  1  0  0  0
 84 87  1  0  0  0
 84164  1  0  0  0
 84165  1  0  0  0
 85166  1  0  0  0
 86167  1  0  0  0
M  ISO  4   1 100  68 101  83 101  86 100
M  END
> <chiral flag>
0

> <version>
0

> <s_m_source_file>
/data/baiqing/PycharmProjects/Reinvent-master-3.2/result/LINK_invent/BTK/process_docking_weight1_custom_sum_contain_oxygen_bond_distance_aromatic_linkinvent_7_9_3/rearranged_h_0151.sdf

> <i_m_source_file_index>
44

> <r_mmod_Potential_Energy-OPLS-2005>
5.6702675819397

> <r_mmod_Stretch_Energy-OPLS-2005>
46.6949768066406

> <r_mmod_Bend_Energy-OPLS-2005>
164.10432434082

> <r_mmod_Torsional_Energy-OPLS-2005>
218.367767333984

> <r_mmod_Improper_Torsional_Energy-OPLS-2005>
5.74458456039429

> <r_mmod_Van_der_Waal_Energy-OPLS-2005>
145.39875793457

> <r_mmod_Electrostatic_Energy-OPLS-2005>
-390.286041259766

> <r_mmod_Solvation_Energy-OPLS-2005>
-205.483306884766

> <b_mmod_Minimization_Converged-OPLS-2005>
0

> <r_mmod_RMS_Derivative-OPLS-2005>
1.86570715904236

$$$$
44
                    3D
 Structure written by MMmdl.
170179  0  0  1  0            999 V2000
  -30.6599  -14.6058   20.5327 C   0  0  0  0  0  0
  -30.4223  -12.3815   19.4382 C   0  0  0  0  0  0
  -29.4874  -12.5032   18.2163 C   0  0  0  0  0  0
  -28.0149  -12.3465   18.6391 C   0  0  0  0  0  0
  -27.6498  -13.2183   19.8690 C   0  0  2  0  0  0
  -28.6998  -13.0762   20.9925 C   0  0  0  0  0  0
  -25.2539  -13.8173   20.5732 C   0  0  0  0  0  0
  -24.1812  -13.0441   20.9208 C   0  0  0  0  0  0
  -24.6393  -11.6911   20.8768 C   0  0  0  0  0  0
  -23.9053  -10.4308   21.0436 C   0  0  0  0  0  0
  -24.3606   -9.4226   21.9207 C   0  0  0  0  0  0
  -23.6295   -8.2256   22.0780 C   0  0  0  0  0  0
  -22.4279   -8.0291   21.3562 C   0  0  0  0  0  0
  -21.9919   -9.0263   20.4664 C   0  0  0  0  0  0
  -22.7234  -10.2143   20.3082 C   0  0  0  0  0  0
  -21.6847   -6.0743   22.5285 C   0  0  0  0  0  0
  -21.4026   -6.5633   23.8222 C   0  0  0  0  0  0
  -21.3665   -5.6789   24.9176 C   0  0  0  0  0  0
  -21.6042   -4.3055   24.7231 C   0  0  0  0  0  0
  -21.8807   -3.8154   23.4351 C   0  0  0  0  0  0
  -21.9190   -4.6973   22.3404 C   0  0  0  0  0  0
  -22.7833  -13.5236   21.1869 C   0  0  0  0  0  0
  -22.1659   -4.2175   21.0977 F   0  0  0  0  0  0
  -21.5620   -3.4522   25.7740 F   0  0  0  0  0  0
  -30.0083  -13.4076   20.4148 N   0  0  0  0  0  0
  -26.2984  -12.9380   20.3395 N   0  0  0  0  0  0
  -25.9332  -11.6525   20.5819 N   0  0  0  0  0  0
  -22.0505  -12.8229   22.0432 N   0  0  0  0  0  0
  -25.4223  -15.1900   20.4204 N   0  0  0  0  0  0
  -31.8269  -14.7436   20.1624 O   0  0  0  0  0  0
  -21.6635   -6.8893   21.4250 O   0  0  0  0  0  0
  -22.3545  -14.5577   20.6752 O   0  0  0  0  0  0
  -24.6274  -31.8587   23.2066 C   0  0  0  0  0  0
  -25.9100  -32.4787   23.8387 C   0  0  1  0  0  0
  -27.2083  -27.2765   20.0951 C   0  0  0  0  0  0
  -25.5940  -33.8593   24.2288 N   0  0  0  0  0  0
  -23.4223  -30.4881   21.5501 C   0  0  2  0  0  0
  -24.8685  -28.9547   20.1071 C   0  0  0  0  0  0
  -22.7488  -29.4609   22.4939 C   0  0  0  0  0  0
  -18.0293  -28.1347   22.8481 C   0  0  0  0  0  0
  -24.1497  -36.7294   23.2640 C   0  0  0  0  0  0
  -25.9757  -30.7691   21.3949 C   0  0  0  0  0  0
  -26.0448  -29.3998   20.7230 C   0  0  0  0  0  0
  -27.2173  -28.5718   20.7120 C   0  0  0  0  0  0
  -26.0064  -26.9209   19.4319 C   0  0  0  0  0  0
  -24.8574  -27.7215   19.4514 C   0  0  0  0  0  0
  -23.6372  -29.8350   20.1634 C   0  0  0  0  0  0
  -25.4127  -36.3088   24.0335 C   0  0  1  0  0  0
  -20.5901  -28.3652   23.1266 C   0  0  2  0  0  0
  -20.6780  -26.9366   22.5381 C   0  0  0  0  0  0
  -19.5745  -26.6324   21.5199 C   0  0  0  0  0  0
  -18.1908  -26.7899   22.1584 C   0  0  0  0  0  0
  -19.1554  -28.8818   23.2867 C   0  0  0  0  0  0
  -18.9490  -30.1431   23.8868 C   0  0  0  0  0  0
  -17.6487  -30.6570   24.0519 C   0  0  0  0  0  0
  -25.9063  -34.9455   23.5106 C   0  0  0  0  0  0
  -16.5387  -29.9053   23.6327 C   0  0  0  0  0  0
  -16.7284  -28.6454   23.0378 C   0  0  0  0  0  0
  -26.4494  -31.6646   25.0773 C   0  0  0  0  0  0
  -25.3732  -31.3750   26.1490 C   0  0  0  0  0  0
  -27.0378  -30.3067   24.6275 C   0  0  0  0  0  0
  -27.5998  -32.4463   25.7545 C   0  0  0  0  0  0
  -27.5610  -37.1782   24.8463 C   0  0  0  0  0  0
  -21.4202  -29.3055   22.3698 N   0  0  0  0  0  0
  -26.4303  -37.3784   23.9430 N   0  0  0  0  0  0
  -24.6927  -31.0580   22.1035 N   0  0  0  0  0  0
  -23.4227  -28.8077   23.2935 O   0  0  0  0  0  0
  -28.2775  -26.3428   20.1594 O   0  0  0  0  0  0
  -26.5593  -34.8916   22.4660 O   0  0  0  0  0  0
  -23.5422  -32.1438   23.7348 O   0  0  0  0  0  0
  -28.7730  -22.5925   19.0615 C   0  0  0  0  0  0
  -29.2850  -23.2511   21.3020 C   0  0  0  0  0  0
  -29.2469  -21.2545   19.2819 C   0  0  0  0  0  0
  -28.7589  -23.6247   20.0451 C   0  0  0  0  0  0
  -29.7834  -21.9293   21.5504 C   0  0  0  0  0  0
  -29.7488  -20.8812   20.5731 C   0  0  0  0  0  0
  -28.2872  -19.3433   16.3898 C   0  0  0  0  0  0
  -28.0719  -19.2619   17.9004 C   0  0  0  0  0  0
  -28.9788  -20.6891   16.6268 C   0  0  0  0  0  0
  -29.2317  -20.2668   18.0963 C   0  0  0  0  0  0
  -29.6986  -21.1881   25.3765 C   0  0  0  0  0  0
  -30.3283  -21.6382   22.9414 C   0  0  0  0  0  0
  -27.9312  -24.9439   19.7624 C   0  0  0  0  0  0
  -29.2180  -21.2269   23.9201 C   0  0  0  0  0  0
  -30.4150  -17.0630   21.2872 C   0  0  0  0  0  0
  -29.7590  -18.3147   20.5571 C   0  0  0  0  0  0
  -29.9233  -15.6839   20.9264 N   0  0  0  0  0  0
  -30.2858  -19.6242   20.9531 O   0  0  0  0  0  0
  -31.4626  -12.4941   19.1298 H   0  0  0  0  0  0
  -30.3477  -11.3877   19.8835 H   0  0  0  0  0  0
  -29.7404  -11.7520   17.4681 H   0  0  0  0  0  0
  -29.6276  -13.4731   17.7361 H   0  0  0  0  0  0
  -27.8505  -11.2941   18.8715 H   0  0  0  0  0  0
  -27.3518  -12.5804   17.8052 H   0  0  0  0  0  0
  -27.6686  -14.2527   19.5295 H   0  0  0  0  0  0
  -28.7107  -12.0591   21.3880 H   0  0  0  0  0  0
  -28.4596  -13.7226   21.8374 H   0  0  0  0  0  0
  -25.2746   -9.5710   22.4784 H   0  0  0  0  0  0
  -24.0003   -7.4672   22.7521 H   0  0  0  0  0  0
  -21.0841   -8.8789   19.8987 H   0  0  0  0  0  0
  -22.3686  -10.9698   19.6203 H   0  0  0  0  0  0
  -21.2024   -7.6136   23.9739 H   0  0  0  0  0  0
  -21.1483   -6.0505   25.9082 H   0  0  0  0  0  0
  -22.0571   -2.7630   23.2829 H   0  0  0  0  0  0
  -22.4094  -11.9816   22.4716 H   0  0  0  0  0  0
  -21.1189  -13.1345   22.2795 H   0  0  0  0  0  0
  -24.6535  -15.8380   20.5488 H   0  0  0  0  0  0
  -26.2643  -15.6420   20.0923 H   0  0  0  0  0  0
  -26.7138  -32.5428   23.1095 H   0  0  0  0  0  0
  -25.0248  -33.9788   25.0545 H   0  0  0  0  0  0
  -22.7118  -31.3065   21.4090 H   0  0  0  0  0  0
  -23.3800  -35.9585   23.3266 H   0  0  0  0  0  0
  -24.3580  -36.8961   22.2057 H   0  0  0  0  0  0
  -23.7233  -37.6464   23.6726 H   0  0  0  0  0  0
  -26.1339  -31.5366   20.6382 H   0  0  0  0  0  0
  -26.8462  -30.8018   22.0393 H   0  0  0  0  0  0
  -28.1123  -28.9028   21.2187 H   0  0  0  0  0  0
  -25.8878  -25.9964   18.8907 H   0  0  0  0  0  0
  -23.9610  -27.3791   18.9539 H   0  0  0  0  0  0
  -23.7524  -30.6168   19.4113 H   0  0  0  0  0  0
  -22.7556  -29.2680   19.8579 H   0  0  0  0  0  0
  -25.1298  -36.1916   25.0822 H   0  0  0  0  0  0
  -21.0000  -28.3224   24.1396 H   0  0  0  0  0  0
  -20.5677  -26.2259   23.3582 H   0  0  0  0  0  0
  -21.6649  -26.7345   22.1188 H   0  0  0  0  0  0
  -19.6901  -25.6207   21.1288 H   0  0  0  0  0  0
  -19.6717  -27.3075   20.6674 H   0  0  0  0  0  0
  -17.4186  -26.6682   21.3957 H   0  0  0  0  0  0
  -18.0265  -26.0021   22.8942 H   0  0  0  0  0  0
  -19.7972  -30.7245   24.2229 H   0  0  0  0  0  0
  -17.5056  -31.6277   24.5057 H   0  0  0  0  0  0
  -15.5391  -30.2945   23.7699 H   0  0  0  0  0  0
  -15.8665  -28.0769   22.7155 H   0  0  0  0  0  0
  -24.5967  -30.7015   25.7861 H   0  0  0  0  0  0
  -24.8827  -32.2872   26.4877 H   0  0  0  0  0  0
  -25.8064  -30.9005   27.0296 H   0  0  0  0  0  0
  -26.2959  -29.6802   24.1298 H   0  0  0  0  0  0
  -27.4083  -29.7346   25.4798 H   0  0  0  0  0  0
  -27.8827  -30.4381   23.9515 H   0  0  0  0  0  0
  -27.2567  -33.3831   26.1971 H   0  0  0  0  0  0
  -28.3848  -32.6964   25.0395 H   0  0  0  0  0  0
  -28.0627  -31.8725   26.5585 H   0  0  0  0  0  0
  -28.2543  -38.0157   24.7607 H   0  0  0  0  0  0
  -28.1205  -36.2690   24.6191 H   0  0  0  0  0  0
  -27.2326  -37.1284   25.8858 H   0  0  0  0  0  0
  -20.9369  -29.8889   21.7020 H   0  0  0  0  0  0
  -26.0190  -38.2855   24.1467 H   0  0  0  0  0  0
  -28.3579  -22.8434   18.0990 H   0  0  0  0  0  0
  -29.2587  -23.9710   22.1091 H   0  0  0  0  0  0
  -27.3669  -19.3832   15.8033 H   0  0  0  0  0  0
  -28.9652  -18.5726   16.0166 H   0  0  0  0  0  0
  -28.2037  -18.2541   18.2903 H   0  0  0  0  0  0
  -27.1030  -19.6621   18.2008 H   0  0  0  0  0  0
  -28.2652  -21.4995   16.4827 H   0  0  0  0  0  0
  -29.8758  -20.8490   16.0240 H   0  0  0  0  0  0
  -30.1947  -19.7503   18.0907 H   0  0  0  0  0  0
  -28.8806  -20.9354   26.0520 H   0  0  0  0  0  0
  -30.0932  -22.1546   25.6881 H   0  0  0  0  0  0
  -30.4870  -20.4497   25.5150 H   0  0  0  0  0  0
  -30.8400  -22.5292   23.3057 H   0  0  0  0  0  0
  -31.0958  -20.8641   22.9004 H   0  0  0  0  0  0
  -26.9770  -24.6966   20.2310 H   0  0  0  0  0  0
  -27.7548  -24.9632   18.6855 H   0  0  0  0  0  0
  -28.3916  -21.9334   23.8413 H   0  0  0  0  0  0
  -28.8191  -20.2529   23.6293 H   0  0  0  0  0  0
  -30.2722  -17.1685   22.3640 H   0  0  0  0  0  0
  -31.4953  -17.1049   21.1479 H   0  0  0  0  0  0
  -28.6801  -18.3149   20.7193 H   0  0  0  0  0  0
  -29.9470  -18.1521   19.5048 H   0  0  0  0  0  0
  -28.9392  -15.5050   21.0637 H   0  0  0  0  0  0
  1 25  1  0  0  0
  1 30  2  0  0  0
  1 87  1  0  0  0
  2  3  1  0  0  0
  2 25  1  0  0  0
  2 89  1  0  0  0
  2 90  1  0  0  0
  3  4  1  0  0  0
  3 91  1  0  0  0
  3 92  1  0  0  0
  4  5  1  0  0  0
  4 93  1  0  0  0
  4 94  1  0  0  0
  5  6  1  0  0  0
  5 26  1  0  0  0
  5 95  1  0  0  0
  6 25  1  0  0  0
  6 96  1  0  0  0
  6 97  1  0  0  0
  7  8  2  0  0  0
  7 26  1  0  0  0
  7 29  1  0  0  0
  8  9  1  0  0  0
  8 22  1  0  0  0
  9 10  1  0  0  0
  9 27  2  0  0  0
 10 11  2  0  0  0
 10 15  1  0  0  0
 11 12  1  0  0  0
 11 98  1  0  0  0
 12 13  2  0  0  0
 12 99  1  0  0  0
 13 14  1  0  0  0
 13 31  1  0  0  0
 14 15  2  0  0  0
 14100  1  0  0  0
 15101  1  0  0  0
 16 17  2  0  0  0
 16 21  1  0  0  0
 16 31  1  0  0  0
 17 18  1  0  0  0
 17102  1  0  0  0
 18 19  2  0  0  0
 18103  1  0  0  0
 19 20  1  0  0  0
 19 24  1  0  0  0
 20 21  2  0  0  0
 20104  1  0  0  0
 21 23  1  0  0  0
 22 28  1  0  0  0
 22 32  2  0  0  0
 26 27  1  0  0  0
 28105  1  0  0  0
 28106  1  0  0  0
 29107  1  0  0  0
 29108  1  0  0  0
 33 34  1  0  0  0
 33 66  1  0  0  0
 33 70  2  0  0  0
 34 36  1  0  0  0
 34 59  1  0  0  0
 34109  1  0  0  0
 35 44  2  0  0  0
 35 45  1  0  0  0
 35 68  1  0  0  0
 36 56  1  0  0  0
 36110  1  0  0  0
 37 39  1  0  0  0
 37 47  1  0  0  0
 37 66  1  0  0  0
 37111  1  0  0  0
 38 43  2  0  0  0
 38 46  1  0  0  0
 38 47  1  0  0  0
 39 64  1  0  0  0
 39 67  2  0  0  0
 40 52  1  0  0  0
 40 53  2  0  0  0
 40 58  1  0  0  0
 41112  1  0  0  0
 41113  1  0  0  0
 41114  1  0  0  0
 41 48  1  0  0  0
 42 43  1  0  0  0
 42 66  1  0  0  0
 42115  1  0  0  0
 42116  1  0  0  0
 43 44  1  0  0  0
 44117  1  0  0  0
 45 46  2  0  0  0
 45118  1  0  0  0
 46119  1  0  0  0
 47120  1  0  0  0
 47121  1  0  0  0
 48 56  1  0  0  0
 48 65  1  0  0  0
 48122  1  0  0  0
 49 50  1  0  0  0
 49 53  1  0  0  0
 49 64  1  0  0  0
 49123  1  0  0  0
 50 51  1  0  0  0
 50124  1  0  0  0
 50125  1  0  0  0
 51 52  1  0  0  0
 51126  1  0  0  0
 51127  1  0  0  0
 52128  1  0  0  0
 52129  1  0  0  0
 53 54  1  0  0  0
 54 55  2  0  0  0
 54130  1  0  0  0
 55 57  1  0  0  0
 55131  1  0  0  0
 56 69  2  0  0  0
 57 58  2  0  0  0
 57132  1  0  0  0
 58133  1  0  0  0
 59 60  1  0  0  0
 59 61  1  0  0  0
 59 62  1  0  0  0
 60134  1  0  0  0
 60135  1  0  0  0
 60136  1  0  0  0
 61137  1  0  0  0
 61138  1  0  0  0
 61139  1  0  0  0
 62140  1  0  0  0
 62141  1  0  0  0
 62142  1  0  0  0
 63 65  1  0  0  0
 63143  1  0  0  0
 63144  1  0  0  0
 63145  1  0  0  0
 64146  1  0  0  0
 65147  1  0  0  0
 68 83  1  0  0  0
 71 73  2  0  0  0
 71 74  1  0  0  0
 71148  1  0  0  0
 72 74  2  0  0  0
 72 75  1  0  0  0
 72149  1  0  0  0
 73 76  1  0  0  0
 73 80  1  0  0  0
 74 83  1  0  0  0
 75 76  2  0  0  0
 75 82  1  0  0  0
 76 88  1  0  0  0
 77 78  1  0  0  0
 77 79  1  0  0  0
 77150  1  0  0  0
 77151  1  0  0  0
 78 80  1  0  0  0
 78152  1  0  0  0
 78153  1  0  0  0
 79 80  1  0  0  0
 79154  1  0  0  0
 79155  1  0  0  0
 80156  1  0  0  0
 81 84  1  0  0  0
 81157  1  0  0  0
 81158  1  0  0  0
 81159  1  0  0  0
 82 84  1  0  0  0
 82160  1  0  0  0
 82161  1  0  0  0
 83162  1  0  0  0
 83163  1  0  0  0
 84164  1  0  0  0
 84165  1  0  0  0
 85 86  1  0  0  0
 85 87  1  0  0  0
 85166  1  0  0  0
 85167  1  0  0  0
 86 88  1  0  0  0
 86168  1  0  0  0
 86169  1  0  0  0
 87170  1  0  0  0
M  ISO  4   1 100  68 101  83 101  87 100
M  END
> <chiral flag>
0

> <version>
0

> <s_m_source_file>
/data/baiqing/PycharmProjects/Reinvent-master-3.2/result/LINK_invent/BTK/process_docking_weight1_custom_sum_contain_oxygen_bond_distance_aromatic_linkinvent_7_9_3/rearranged_h_0151.sdf

> <i_m_source_file_index>
45

> <r_mmod_Potential_Energy-OPLS-2005>
143.460525512695

> <r_mmod_Stretch_Energy-OPLS-2005>
93.0842208862305

> <r_mmod_Bend_Energy-OPLS-2005>
189.888626098633

> <r_mmod_Torsional_Energy-OPLS-2005>
246.457077026367

> <r_mmod_Improper_Torsional_Energy-OPLS-2005>
5.38998794555664

> <r_mmod_Van_der_Waal_Energy-OPLS-2005>
158.175155639648

> <r_mmod_Electrostatic_Energy-OPLS-2005>
-402.028625488281

> <r_mmod_Solvation_Energy-OPLS-2005>
-207.071487426758

> <b_mmod_Minimization_Converged-OPLS-2005>
0

> <r_mmod_RMS_Derivative-OPLS-2005>
5.07254695892334

$$$$
45
                    3D
 Structure written by MMmdl.
176185  0  0  1  0            999 V2000
  -30.7098  -14.4883   20.6327 C   0  0  0  0  0  0
  -30.4277  -12.3368   19.4262 C   0  0  0  0  0  0
  -29.4970  -12.5264   18.2106 C   0  0  0  0  0  0
  -28.0210  -12.3704   18.6232 C   0  0  0  0  0  0
  -27.6644  -13.2086   19.8789 C   0  0  2  0  0  0
  -28.7023  -12.9881   21.0010 C   0  0  0  0  0  0
  -25.2605  -13.8168   20.5683 C   0  0  0  0  0  0
  -24.1852  -13.0442   20.9172 C   0  0  0  0  0  0
  -24.6409  -11.6908   20.8734 C   0  0  0  0  0  0
  -23.9071  -10.4291   21.0413 C   0  0  0  0  0  0
  -24.3618   -9.4203   21.9193 C   0  0  0  0  0  0
  -23.6283   -8.2246   22.0760 C   0  0  0  0  0  0
  -22.4264   -8.0287   21.3556 C   0  0  0  0  0  0
  -21.9912   -9.0261   20.4652 C   0  0  0  0  0  0
  -22.7246  -10.2137   20.3058 C   0  0  0  0  0  0
  -21.6853   -6.0738   22.5275 C   0  0  0  0  0  0
  -21.4019   -6.5644   23.8211 C   0  0  0  0  0  0
  -21.3659   -5.6798   24.9173 C   0  0  0  0  0  0
  -21.6036   -4.3055   24.7224 C   0  0  0  0  0  0
  -21.8822   -3.8150   23.4348 C   0  0  0  0  0  0
  -21.9197   -4.6968   22.3403 C   0  0  0  0  0  0
  -22.7876  -13.5243   21.1844 C   0  0  0  0  0  0
  -22.1661   -4.2151   21.0980 F   0  0  0  0  0  0
  -21.5627   -3.4537   25.7740 F   0  0  0  0  0  0
  -30.0370  -13.3096   20.4627 N   0  0  0  0  0  0
  -26.3039  -12.9335   20.3373 N   0  0  0  0  0  0
  -25.9331  -11.6492   20.5756 N   0  0  0  0  0  0
  -22.0516  -12.8224   22.0395 N   0  0  0  0  0  0
  -25.4340  -15.1885   20.4105 N   0  0  0  0  0  0
  -31.7524  -14.7457   20.0216 O   0  0  0  0  0  0
  -21.6632   -6.8879   21.4239 O   0  0  0  0  0  0
  -22.3558  -14.5556   20.6712 O   0  0  0  0  0  0
  -24.6182  -31.8646   23.2070 C   0  0  0  0  0  0
  -25.9061  -32.4805   23.8378 C   0  0  1  0  0  0
  -27.2365  -27.3923   20.0898 C   0  0  0  0  0  0
  -25.5903  -33.8603   24.2308 N   0  0  0  0  0  0
  -23.4086  -30.4879   21.5480 C   0  0  2  0  0  0
  -24.8545  -28.9481   20.1126 C   0  0  0  0  0  0
  -22.7432  -29.4647   22.4965 C   0  0  0  0  0  0
  -18.0277  -28.1377   22.8496 C   0  0  0  0  0  0
  -24.1487  -36.7305   23.2639 C   0  0  0  0  0  0
  -25.9422  -30.8147   21.3681 C   0  0  0  0  0  0
  -26.0171  -29.4466   20.7122 C   0  0  0  0  0  0
  -27.2063  -28.6737   20.7015 C   0  0  0  0  0  0
  -26.0435  -26.9115   19.5020 C   0  0  0  0  0  0
  -24.8642  -27.6805   19.5071 C   0  0  0  0  0  0
  -23.6190  -29.8200   20.1628 C   0  0  0  0  0  0
  -25.4109  -36.3100   24.0338 C   0  0  1  0  0  0
  -20.5871  -28.3683   23.1302 C   0  0  2  0  0  0
  -20.6765  -26.9410   22.5414 C   0  0  0  0  0  0
  -19.5743  -26.6383   21.5210 C   0  0  0  0  0  0
  -18.1923  -26.7922   22.1625 C   0  0  0  0  0  0
  -19.1529  -28.8843   23.2892 C   0  0  0  0  0  0
  -18.9455  -30.1450   23.8905 C   0  0  0  0  0  0
  -17.6458  -30.6585   24.0572 C   0  0  0  0  0  0
  -25.9042  -34.9466   23.5122 C   0  0  0  0  0  0
  -16.5347  -29.9094   23.6323 C   0  0  0  0  0  0
  -16.7267  -28.6504   23.0349 C   0  0  0  0  0  0
  -26.4471  -31.6592   25.0722 C   0  0  0  0  0  0
  -25.3725  -31.3698   26.1461 C   0  0  0  0  0  0
  -27.0319  -30.3034   24.6130 C   0  0  0  0  0  0
  -27.6042  -32.4312   25.7486 C   0  0  0  0  0  0
  -27.5580  -37.1802   24.8462 C   0  0  0  0  0  0
  -21.4152  -29.3042   22.3694 N   0  0  0  0  0  0
  -26.4290  -37.3788   23.9409 N   0  0  0  0  0  0
  -24.6748  -31.0713   22.0989 N   0  0  0  0  0  0
  -23.4181  -28.8189   23.3025 O   0  0  0  0  0  0
  -28.4039  -26.6385   20.1248 O   0  0  0  0  0  0
  -26.5608  -34.8924   22.4685 O   0  0  0  0  0  0
  -23.5364  -32.1418   23.7436 O   0  0  0  0  0  0
  -28.0524  -23.1119   18.9803 C   0  0  0  0  0  0
  -29.9930  -22.3356   20.8263 C   0  0  0  0  0  0
  -28.7837  -24.1286   19.6373 C   0  0  0  0  0  0
  -28.3075  -21.7295   19.1917 C   0  0  0  0  0  0
  -29.7514  -23.7180   20.5910 C   0  0  0  0  0  0
  -29.3010  -21.3161   20.1186 C   0  0  0  0  0  0
  -31.3795  -16.3041   23.3599 C   0  0  0  0  0  0
  -30.8695  -17.7223   23.0863 C   0  0  0  0  0  0
  -30.3419  -15.2750   22.8976 C   0  0  0  0  0  0
  -29.6601  -16.7628   21.0381 C   0  0  0  0  0  0
  -30.4896  -17.9712   21.6070 C   0  0  1  0  0  0
  -30.5810  -24.7498   21.3353 C   0  0  0  0  0  0
  -28.9211  -20.9547   16.2660 C   0  0  0  0  0  0
  -26.0708  -20.5861   18.9452 C   0  0  0  0  0  0
  -28.6380  -25.5954   19.1463 C   0  0  0  0  0  0
  -29.8013  -19.3867   21.5355 C   0  0  0  0  0  0
  -27.5128  -20.9368   16.8784 C   0  0  0  0  0  0
  -27.5031  -20.6911   18.4034 C   0  0  1  0  0  0
  -30.1291  -15.4058   21.4539 N   0  0  0  0  0  0
  -29.6112  -19.9577   20.2301 O   0  0  0  0  0  0
  -31.4706  -12.4459   19.1251 H   0  0  0  0  0  0
  -30.3394  -11.3226   19.8195 H   0  0  0  0  0  0
  -29.7442  -11.8066   17.4285 H   0  0  0  0  0  0
  -29.6536  -13.5153   17.7764 H   0  0  0  0  0  0
  -27.8414  -11.3131   18.8219 H   0  0  0  0  0  0
  -27.3676  -12.6391   17.7923 H   0  0  0  0  0  0
  -27.7104  -14.2578   19.5863 H   0  0  0  0  0  0
  -28.6845  -11.9506   21.3381 H   0  0  0  0  0  0
  -28.4378  -13.5796   21.8767 H   0  0  0  0  0  0
  -25.2767   -9.5677   22.4762 H   0  0  0  0  0  0
  -23.9991   -7.4644   22.7481 H   0  0  0  0  0  0
  -21.0848   -8.8794   19.8946 H   0  0  0  0  0  0
  -22.3722  -10.9685   19.6161 H   0  0  0  0  0  0
  -21.2013   -7.6152   23.9712 H   0  0  0  0  0  0
  -21.1474   -6.0528   25.9078 H   0  0  0  0  0  0
  -22.0602   -2.7613   23.2844 H   0  0  0  0  0  0
  -22.4118  -11.9869   22.4761 H   0  0  0  0  0  0
  -21.1138  -13.1254   22.2601 H   0  0  0  0  0  0
  -24.6746  -15.8496   20.5290 H   0  0  0  0  0  0
  -26.2969  -15.6253   20.1122 H   0  0  0  0  0  0
  -26.7126  -32.5502   23.1132 H   0  0  0  0  0  0
  -25.0043  -33.9758   25.0448 H   0  0  0  0  0  0
  -22.6992  -31.3062   21.4063 H   0  0  0  0  0  0
  -23.3756  -35.9630   23.3291 H   0  0  0  0  0  0
  -24.3578  -36.8936   22.2055 H   0  0  0  0  0  0
  -23.7238  -37.6503   23.6667 H   0  0  0  0  0  0
  -26.0618  -31.5803   20.6003 H   0  0  0  0  0  0
  -26.8272  -30.8656   21.9903 H   0  0  0  0  0  0
  -28.1031  -29.0554   21.1693 H   0  0  0  0  0  0
  -25.9922  -25.9284   19.0589 H   0  0  0  0  0  0
  -23.9656  -27.2833   19.0545 H   0  0  0  0  0  0
  -23.7317  -30.5941   19.4030 H   0  0  0  0  0  0
  -22.7418  -29.2424   19.8665 H   0  0  0  0  0  0
  -25.1284  -36.1957   25.0833 H   0  0  0  0  0  0
  -20.9965  -28.3257   24.1423 H   0  0  0  0  0  0
  -20.5662  -26.2292   23.3610 H   0  0  0  0  0  0
  -21.6640  -26.7442   22.1216 H   0  0  0  0  0  0
  -19.6908  -25.6298   21.1235 H   0  0  0  0  0  0
  -19.6676  -27.3195   20.6741 H   0  0  0  0  0  0
  -17.4192  -26.6680   21.4025 H   0  0  0  0  0  0
  -18.0319  -26.0060   22.9015 H   0  0  0  0  0  0
  -19.7932  -30.7259   24.2278 H   0  0  0  0  0  0
  -17.5017  -31.6265   24.5179 H   0  0  0  0  0  0
  -15.5350  -30.3004   23.7630 H   0  0  0  0  0  0
  -15.8665  -28.0824   22.7063 H   0  0  0  0  0  0
  -24.5903  -30.7043   25.7780 H   0  0  0  0  0  0
  -24.8913  -32.2858   26.4906 H   0  0  0  0  0  0
  -25.8077  -30.8858   27.0219 H   0  0  0  0  0  0
  -26.2887  -29.6778   24.1177 H   0  0  0  0  0  0
  -27.4071  -29.7284   25.4604 H   0  0  0  0  0  0
  -27.8723  -30.4338   23.9309 H   0  0  0  0  0  0
  -27.2666  -33.3607   26.2078 H   0  0  0  0  0  0
  -28.3848  -32.6876   25.0312 H   0  0  0  0  0  0
  -28.0717  -31.8430   26.5391 H   0  0  0  0  0  0
  -28.2588  -38.0109   24.7530 H   0  0  0  0  0  0
  -28.1091  -36.2644   24.6269 H   0  0  0  0  0  0
  -27.2300  -37.1427   25.8865 H   0  0  0  0  0  0
  -20.9309  -29.8774   21.6921 H   0  0  0  0  0  0
  -26.0180  -38.2863   24.1423 H   0  0  0  0  0  0
  -27.3109  -23.4037   18.2513 H   0  0  0  0  0  0
  -30.7754  -22.0676   21.5202 H   0  0  0  0  0  0
  -31.5769  -16.1831   24.4261 H   0  0  0  0  0  0
  -32.3314  -16.1422   22.8510 H   0  0  0  0  0  0
  -31.6211  -18.4459   23.4048 H   0  0  0  0  0  0
  -29.9973  -17.8981   23.7174 H   0  0  0  0  0  0
  -29.3946  -15.4199   23.4192 H   0  0  0  0  0  0
  -30.6816  -14.2696   23.1604 H   0  0  0  0  0  0
  -29.6248  -16.8264   19.9490 H   0  0  0  0  0  0
  -28.6259  -16.8527   21.3709 H   0  0  0  0  0  0
  -31.4219  -18.0210   21.0422 H   0  0  0  0  0  0
  -31.3222  -24.2821   21.9847 H   0  0  0  0  0  0
  -29.9389  -25.3724   21.9590 H   0  0  0  0  0  0
  -31.1116  -25.3967   20.6364 H   0  0  0  0  0  0
  -28.8723  -21.1006   15.1867 H   0  0  0  0  0  0
  -29.4408  -20.0139   16.4504 H   0  0  0  0  0  0
  -29.5307  -21.7591   16.6792 H   0  0  0  0  0  0
  -26.0733  -20.3315   20.0056 H   0  0  0  0  0  0
  -25.5100  -19.8086   18.4264 H   0  0  0  0  0  0
  -25.5262  -21.5235   18.8287 H   0  0  0  0  0  0
  -27.9518  -25.6432   18.3011 H   0  0  0  0  0  0
  -29.5978  -25.8440   18.6921 H   0  0  0  0  0  0
  -30.3998  -20.0645   22.1414 H   0  0  0  0  0  0
  -28.8274  -19.3403   22.0256 H   0  0  0  0  0  0
  -26.9323  -20.1539   16.3886 H   0  0  0  0  0  0
  -27.0029  -21.8702   16.6362 H   0  0  0  0  0  0
  -27.9578  -19.7113   18.5491 H   0  0  0  0  0  0
  1 25  1  0  0  0
  1 30  2  0  0  0
  1 89  1  0  0  0
  2  3  1  0  0  0
  2 25  1  0  0  0
  2 91  1  0  0  0
  2 92  1  0  0  0
  3  4  1  0  0  0
  3 93  1  0  0  0
  3 94  1  0  0  0
  4  5  1  0  0  0
  4 95  1  0  0  0
  4 96  1  0  0  0
  5  6  1  0  0  0
  5 26  1  0  0  0
  5 97  1  0  0  0
  6 25  1  0  0  0
  6 98  1  0  0  0
  6 99  1  0  0  0
  7  8  2  0  0  0
  7 26  1  0  0  0
  7 29  1  0  0  0
  8  9  1  0  0  0
  8 22  1  0  0  0
  9 10  1  0  0  0
  9 27  2  0  0  0
 10 11  2  0  0  0
 10 15  1  0  0  0
 11 12  1  0  0  0
 11100  1  0  0  0
 12 13  2  0  0  0
 12101  1  0  0  0
 13 14  1  0  0  0
 13 31  1  0  0  0
 14 15  2  0  0  0
 14102  1  0  0  0
 15103  1  0  0  0
 16 17  2  0  0  0
 16 21  1  0  0  0
 16 31  1  0  0  0
 17 18  1  0  0  0
 17104  1  0  0  0
 18 19  2  0  0  0
 18105  1  0  0  0
 19 20  1  0  0  0
 19 24  1  0  0  0
 20 21  2  0  0  0
 20106  1  0  0  0
 21 23  1  0  0  0
 22 28  1  0  0  0
 22 32  2  0  0  0
 26 27  1  0  0  0
 28107  1  0  0  0
 28108  1  0  0  0
 29109  1  0  0  0
 29110  1  0  0  0
 33 34  1  0  0  0
 33 66  1  0  0  0
 33 70  2  0  0  0
 34 36  1  0  0  0
 34 59  1  0  0  0
 34111  1  0  0  0
 35 44  2  0  0  0
 35 45  1  0  0  0
 35 68  1  0  0  0
 36 56  1  0  0  0
 36112  1  0  0  0
 37 39  1  0  0  0
 37 47  1  0  0  0
 37 66  1  0  0  0
 37113  1  0  0  0
 38 43  2  0  0  0
 38 46  1  0  0  0
 38 47  1  0  0  0
 39 64  1  0  0  0
 39 67  2  0  0  0
 40 52  1  0  0  0
 40 53  2  0  0  0
 40 58  1  0  0  0
 41114  1  0  0  0
 41115  1  0  0  0
 41116  1  0  0  0
 41 48  1  0  0  0
 42 43  1  0  0  0
 42 66  1  0  0  0
 42117  1  0  0  0
 42118  1  0  0  0
 43 44  1  0  0  0
 44119  1  0  0  0
 45 46  2  0  0  0
 45120  1  0  0  0
 46121  1  0  0  0
 47122  1  0  0  0
 47123  1  0  0  0
 48 56  1  0  0  0
 48 65  1  0  0  0
 48124  1  0  0  0
 49 50  1  0  0  0
 49 53  1  0  0  0
 49 64  1  0  0  0
 49125  1  0  0  0
 50 51  1  0  0  0
 50126  1  0  0  0
 50127  1  0  0  0
 51 52  1  0  0  0
 51128  1  0  0  0
 51129  1  0  0  0
 52130  1  0  0  0
 52131  1  0  0  0
 53 54  1  0  0  0
 54 55  2  0  0  0
 54132  1  0  0  0
 55 57  1  0  0  0
 55133  1  0  0  0
 56 69  2  0  0  0
 57 58  2  0  0  0
 57134  1  0  0  0
 58135  1  0  0  0
 59 60  1  0  0  0
 59 61  1  0  0  0
 59 62  1  0  0  0
 60136  1  0  0  0
 60137  1  0  0  0
 60138  1  0  0  0
 61139  1  0  0  0
 61140  1  0  0  0
 61141  1  0  0  0
 62142  1  0  0  0
 62143  1  0  0  0
 62144  1  0  0  0
 63 65  1  0  0  0
 63145  1  0  0  0
 63146  1  0  0  0
 63147  1  0  0  0
 64148  1  0  0  0
 65149  1  0  0  0
 68 85  1  0  0  0
 71 73  2  0  0  0
 71 74  1  0  0  0
 71150  1  0  0  0
 72 75  2  0  0  0
 72 76  1  0  0  0
 72151  1  0  0  0
 73 75  1  0  0  0
 73 85  1  0  0  0
 74 76  2  0  0  0
 74 88  1  0  0  0
 75 82  1  0  0  0
 76 90  1  0  0  0
 77 78  1  0  0  0
 77 79  1  0  0  0
 77152  1  0  0  0
 77153  1  0  0  0
 78 81  1  0  0  0
 78154  1  0  0  0
 78155  1  0  0  0
 79 89  1  0  0  0
 79156  1  0  0  0
 79157  1  0  0  0
 80 81  1  0  0  0
 80 89  1  0  0  0
 80158  1  0  0  0
 80159  1  0  0  0
 81 86  1  0  0  0
 81160  1  0  0  0
 82161  1  0  0  0
 82162  1  0  0  0
 82163  1  0  0  0
 83 87  1  0  0  0
 83164  1  0  0  0
 83165  1  0  0  0
 83166  1  0  0  0
 84167  1  0  0  0
 84168  1  0  0  0
 84169  1  0  0  0
 84 88  1  0  0  0
 85170  1  0  0  0
 85171  1  0  0  0
 86 90  1  0  0  0
 86172  1  0  0  0
 86173  1  0  0  0
 87 88  1  0  0  0
 87174  1  0  0  0
 87175  1  0  0  0
 88176  1  0  0  0
M  ISO  4   1 100  68 101  85 101  89 100
M  END
> <chiral flag>
0

> <version>
0

> <s_m_source_file>
/data/baiqing/PycharmProjects/Reinvent-master-3.2/result/LINK_invent/BTK/process_docking_weight1_custom_sum_contain_oxygen_bond_distance_aromatic_linkinvent_7_9_3/rearranged_h_0151.sdf

> <i_m_source_file_index>
46

> <r_mmod_Potential_Energy-OPLS-2005>
253.452529907227

> <r_mmod_Stretch_Energy-OPLS-2005>
56.1415748596191

> <r_mmod_Bend_Energy-OPLS-2005>
127.966171264648

> <r_mmod_Torsional_Energy-OPLS-2005>
357.324371337891

> <r_mmod_Improper_Torsional_Energy-OPLS-2005>
4.37321805953979

> <r_mmod_Van_der_Waal_Energy-OPLS-2005>
150.745910644531

> <r_mmod_Electrostatic_Energy-OPLS-2005>
-274.615051269531

> <r_mmod_Solvation_Energy-OPLS-2005>
-185.262786865234

> <b_mmod_Minimization_Converged-OPLS-2005>
0

> <r_mmod_RMS_Derivative-OPLS-2005>
1.22854340076447

$$$$
46
                    3D
 Structure written by MMmdl.
173183  0  0  1  0            999 V2000
  -30.7379  -14.4930   20.6231 C   0  0  0  0  0  0
  -30.4187  -12.3399   19.4329 C   0  0  0  0  0  0
  -29.4920  -12.5113   18.2127 C   0  0  0  0  0  0
  -28.0191  -12.3373   18.6263 C   0  0  0  0  0  0
  -27.6583  -13.1861   19.8701 C   0  0  2  0  0  0
  -28.7028  -12.9761   20.9972 C   0  0  0  0  0  0
  -25.2599  -13.8125   20.5647 C   0  0  0  0  0  0
  -24.1830  -13.0426   20.9162 C   0  0  0  0  0  0
  -24.6359  -11.6893   20.8730 C   0  0  0  0  0  0
  -23.9024  -10.4287   21.0406 C   0  0  0  0  0  0
  -24.3583   -9.4214   21.9184 C   0  0  0  0  0  0
  -23.6267   -8.2244   22.0757 C   0  0  0  0  0  0
  -22.4255   -8.0276   21.3543 C   0  0  0  0  0  0
  -21.9883   -9.0246   20.4643 C   0  0  0  0  0  0
  -22.7203  -10.2130   20.3048 C   0  0  0  0  0  0
  -21.6840   -6.0732   22.5272 C   0  0  0  0  0  0
  -21.4012   -6.5635   23.8213 C   0  0  0  0  0  0
  -21.3659   -5.6799   24.9179 C   0  0  0  0  0  0
  -21.6040   -4.3055   24.7235 C   0  0  0  0  0  0
  -21.8816   -3.8152   23.4350 C   0  0  0  0  0  0
  -21.9187   -4.6957   22.3402 C   0  0  0  0  0  0
  -22.7865  -13.5248   21.1841 C   0  0  0  0  0  0
  -22.1656   -4.2143   21.0979 F   0  0  0  0  0  0
  -21.5630   -3.4544   25.7749 F   0  0  0  0  0  0
  -30.0262  -13.3306   20.4590 N   0  0  0  0  0  0
  -26.2998  -12.9241   20.3335 N   0  0  0  0  0  0
  -25.9270  -11.6428   20.5751 N   0  0  0  0  0  0
  -22.0510  -12.8232   22.0400 N   0  0  0  0  0  0
  -25.4343  -15.1835   20.4017 N   0  0  0  0  0  0
  -31.8179  -14.6445   20.0413 O   0  0  0  0  0  0
  -21.6623   -6.8870   21.4241 O   0  0  0  0  0  0
  -22.3553  -14.5567   20.6710 O   0  0  0  0  0  0
  -24.6130  -31.8681   23.2120 C   0  0  0  0  0  0
  -25.9032  -32.4816   23.8407 C   0  0  1  0  0  0
  -27.2251  -27.4331   20.0861 C   0  0  0  0  0  0
  -25.5892  -33.8619   24.2318 N   0  0  0  0  0  0
  -23.3990  -30.4945   21.5528 C   0  0  2  0  0  0
  -24.8428  -28.9678   20.1116 C   0  0  0  0  0  0
  -22.7378  -29.4670   22.5001 C   0  0  0  0  0  0
  -18.0260  -28.1353   22.8507 C   0  0  0  0  0  0
  -24.1480  -36.7327   23.2625 C   0  0  0  0  0  0
  -25.9305  -30.8318   21.3688 C   0  0  0  0  0  0
  -26.0046  -29.4680   20.7127 C   0  0  0  0  0  0
  -27.1956  -28.7060   20.7014 C   0  0  0  0  0  0
  -26.0423  -26.9589   19.4673 C   0  0  0  0  0  0
  -24.8579  -27.7128   19.4862 C   0  0  0  0  0  0
  -23.6034  -29.8291   20.1664 C   0  0  0  0  0  0
  -25.4090  -36.3103   24.0325 C   0  0  1  0  0  0
  -20.5849  -28.3650   23.1339 C   0  0  2  0  0  0
  -20.6745  -26.9381   22.5434 C   0  0  0  0  0  0
  -19.5724  -26.6374   21.5224 C   0  0  0  0  0  0
  -18.1900  -26.7917   22.1611 C   0  0  0  0  0  0
  -19.1507  -28.8814   23.2923 C   0  0  0  0  0  0
  -18.9436  -30.1422   23.8922 C   0  0  0  0  0  0
  -17.6442  -30.6575   24.0561 C   0  0  0  0  0  0
  -25.9039  -34.9475   23.5113 C   0  0  0  0  0  0
  -16.5335  -29.9078   23.6326 C   0  0  0  0  0  0
  -16.7250  -28.6488   23.0366 C   0  0  0  0  0  0
  -26.4453  -31.6608   25.0748 C   0  0  0  0  0  0
  -25.3714  -31.3725   26.1492 C   0  0  0  0  0  0
  -27.0287  -30.3037   24.6162 C   0  0  0  0  0  0
  -27.6015  -32.4341   25.7508 C   0  0  0  0  0  0
  -27.5612  -37.1752   24.8401 C   0  0  0  0  0  0
  -21.4107  -29.3031   22.3738 N   0  0  0  0  0  0
  -26.4245  -37.3821   23.9463 N   0  0  0  0  0  0
  -24.6655  -31.0788   22.1028 N   0  0  0  0  0  0
  -23.4154  -28.8194   23.3023 O   0  0  0  0  0  0
  -28.3955  -26.6962   20.1156 O   0  0  0  0  0  0
  -26.5614  -34.8928   22.4686 O   0  0  0  0  0  0
  -23.5320  -32.1449   23.7512 O   0  0  0  0  0  0
  -30.1399  -20.4849   20.8974 C   0  0  0  0  0  0
  -29.6965  -19.8437   22.0714 C   0  0  0  0  0  0
  -28.9336  -22.0510   22.8245 C   0  0  0  0  0  0
  -29.0781  -20.6538   23.0702 C   0  0  0  0  0  0
  -29.4260  -22.5747   21.6073 C   0  0  0  0  0  0
  -28.6323  -24.3777   24.1348 C   0  0  0  0  0  0
  -28.7513  -23.2874   25.1625 C   0  0  0  0  0  0
  -28.8797  -17.5042   21.3639 C   0  0  0  0  0  0
  -31.2712  -17.7705   21.8925 C   0  0  0  0  0  0
  -28.9755  -15.9967   21.6929 C   0  0  0  0  0  0
  -31.3495  -16.2615   22.2446 C   0  0  0  0  0  0
  -29.8687  -18.3157   22.2134 C   0  0  0  0  0  0
  -28.1971  -22.9610   23.7898 C   0  0  0  0  0  0
  -27.2838  -19.2297   24.2550 C   0  0  0  0  0  0
  -28.5751  -20.0483   24.3880 C   0  0  0  0  0  0
  -28.3273  -25.3313   19.6797 C   0  0  0  0  0  0
  -29.5624  -24.5113   20.0847 C   0  0  0  0  0  0
  -30.0228  -21.8091   20.6721 N   0  0  0  0  0  0
  -30.3386  -15.4371   21.5349 N   0  0  0  0  0  0
  -29.2961  -23.9311   21.3670 O   0  0  0  0  0  0
  -31.4612  -12.4320   19.1254 H   0  0  0  0  0  0
  -30.3310  -11.3301   19.8377 H   0  0  0  0  0  0
  -29.7507  -11.7885   17.4385 H   0  0  0  0  0  0
  -29.6369  -13.4976   17.7686 H   0  0  0  0  0  0
  -27.8537  -11.2808   18.8399 H   0  0  0  0  0  0
  -27.3599  -12.5849   17.7938 H   0  0  0  0  0  0
  -27.6905  -14.2166   19.5233 H   0  0  0  0  0  0
  -28.7037  -11.9289   21.3034 H   0  0  0  0  0  0
  -28.4513  -13.5118   21.9100 H   0  0  0  0  0  0
  -25.2724   -9.5698   22.4756 H   0  0  0  0  0  0
  -23.9978   -7.4644   22.7475 H   0  0  0  0  0  0
  -21.0821   -8.8753   19.8944 H   0  0  0  0  0  0
  -22.3658  -10.9664   19.6151 H   0  0  0  0  0  0
  -21.2009   -7.6148   23.9715 H   0  0  0  0  0  0
  -21.1484   -6.0528   25.9082 H   0  0  0  0  0  0
  -22.0594   -2.7606   23.2858 H   0  0  0  0  0  0
  -22.4108  -11.9855   22.4736 H   0  0  0  0  0  0
  -21.1135  -13.1259   22.2642 H   0  0  0  0  0  0
  -24.6700  -15.8418   20.5043 H   0  0  0  0  0  0
  -26.2905  -15.6177   20.0834 H   0  0  0  0  0  0
  -26.7107  -32.5519   23.1181 H   0  0  0  0  0  0
  -24.9984  -33.9792   25.0414 H   0  0  0  0  0  0
  -22.6874  -31.3103   21.4141 H   0  0  0  0  0  0
  -23.3781  -35.9608   23.3126 H   0  0  0  0  0  0
  -24.3620  -36.9130   22.2078 H   0  0  0  0  0  0
  -23.7163  -37.6443   23.6762 H   0  0  0  0  0  0
  -26.0442  -31.5975   20.6005 H   0  0  0  0  0  0
  -26.8188  -30.8826   21.9865 H   0  0  0  0  0  0
  -28.0917  -29.0845   21.1740 H   0  0  0  0  0  0
  -26.0022  -26.0081   18.9579 H   0  0  0  0  0  0
  -23.9677  -27.3278   19.0092 H   0  0  0  0  0  0
  -23.6985  -30.6023   19.4037 H   0  0  0  0  0  0
  -22.7294  -29.2397   19.8786 H   0  0  0  0  0  0
  -25.1233  -36.1943   25.0807 H   0  0  0  0  0  0
  -20.9933  -28.3224   24.1461 H   0  0  0  0  0  0
  -20.5641  -26.2240   23.3612 H   0  0  0  0  0  0
  -21.6615  -26.7412   22.1246 H   0  0  0  0  0  0
  -19.6882  -25.6283   21.1240 H   0  0  0  0  0  0
  -19.6683  -27.3187   20.6753 H   0  0  0  0  0  0
  -17.4178  -26.6704   21.3995 H   0  0  0  0  0  0
  -18.0261  -26.0035   22.8973 H   0  0  0  0  0  0
  -19.7904  -30.7232   24.2310 H   0  0  0  0  0  0
  -17.4991  -31.6265   24.5143 H   0  0  0  0  0  0
  -15.5336  -30.2987   23.7630 H   0  0  0  0  0  0
  -15.8653  -28.0809   22.7083 H   0  0  0  0  0  0
  -24.5936  -30.7000   25.7851 H   0  0  0  0  0  0
  -24.8840  -32.2873   26.4864 H   0  0  0  0  0  0
  -25.8079  -30.8981   27.0287 H   0  0  0  0  0  0
  -26.2849  -29.6808   24.1179 H   0  0  0  0  0  0
  -27.3981  -29.7278   25.4653 H   0  0  0  0  0  0
  -27.8708  -30.4329   23.9365 H   0  0  0  0  0  0
  -27.2628  -33.3654   26.2058 H   0  0  0  0  0  0
  -28.3840  -32.6883   25.0349 H   0  0  0  0  0  0
  -28.0656  -31.8484   26.5455 H   0  0  0  0  0  0
  -28.2419  -38.0252   24.7771 H   0  0  0  0  0  0
  -28.1324  -36.2819   24.5807 H   0  0  0  0  0  0
  -27.2391  -37.0895   25.8795 H   0  0  0  0  0  0
  -20.9230  -29.8797   21.7017 H   0  0  0  0  0  0
  -26.0115  -38.2837   24.1680 H   0  0  0  0  0  0
  -30.6014  -19.9214   20.1007 H   0  0  0  0  0  0
  -29.5655  -24.7703   23.7377 H   0  0  0  0  0  0
  -27.8557  -25.1220   24.3050 H   0  0  0  0  0  0
  -28.0500  -23.3040   25.9950 H   0  0  0  0  0  0
  -29.7537  -22.9392   25.4036 H   0  0  0  0  0  0
  -27.8583  -17.8427   21.5345 H   0  0  0  0  0  0
  -29.0690  -17.6660   20.3029 H   0  0  0  0  0  0
  -31.5121  -17.9134   20.8379 H   0  0  0  0  0  0
  -32.0270  -18.3166   22.4590 H   0  0  0  0  0  0
  -28.2505  -15.5170   21.0527 H   0  0  0  0  0  0
  -28.6444  -15.8192   22.7171 H   0  0  0  0  0  0
  -31.1977  -16.1348   23.3164 H   0  0  0  0  0  0
  -32.3677  -15.9125   22.0621 H   0  0  0  0  0  0
  -29.6930  -18.0521   23.2519 H   0  0  0  0  0  0
  -27.1247  -22.7919   23.7050 H   0  0  0  0  0  0
  -26.9509  -18.8928   25.2367 H   0  0  0  0  0  0
  -27.4230  -18.3389   23.6486 H   0  0  0  0  0  0
  -26.4800  -19.8194   23.8134 H   0  0  0  0  0  0
  -28.3856  -20.8121   25.1334 H   0  0  0  0  0  0
  -29.3669  -19.4525   24.8406 H   0  0  0  0  0  0
  -27.4495  -24.8201   20.0805 H   0  0  0  0  0  0
  -28.2323  -25.3310   18.5927 H   0  0  0  0  0  0
  -30.4488  -25.1439   20.1374 H   0  0  0  0  0  0
  -29.7474  -23.7819   19.2975 H   0  0  0  0  0  0
  1 25  1  0  0  0
  1 30  2  0  0  0
  1 89  1  0  0  0
  2  3  1  0  0  0
  2 25  1  0  0  0
  2 91  1  0  0  0
  2 92  1  0  0  0
  3  4  1  0  0  0
  3 93  1  0  0  0
  3 94  1  0  0  0
  4  5  1  0  0  0
  4 95  1  0  0  0
  4 96  1  0  0  0
  5  6  1  0  0  0
  5 26  1  0  0  0
  5 97  1  0  0  0
  6 25  1  0  0  0
  6 98  1  0  0  0
  6 99  1  0  0  0
  7  8  2  0  0  0
  7 26  1  0  0  0
  7 29  1  0  0  0
  8  9  1  0  0  0
  8 22  1  0  0  0
  9 10  1  0  0  0
  9 27  2  0  0  0
 10 11  2  0  0  0
 10 15  1  0  0  0
 11 12  1  0  0  0
 11100  1  0  0  0
 12 13  2  0  0  0
 12101  1  0  0  0
 13 14  1  0  0  0
 13 31  1  0  0  0
 14 15  2  0  0  0
 14102  1  0  0  0
 15103  1  0  0  0
 16 17  2  0  0  0
 16 21  1  0  0  0
 16 31  1  0  0  0
 17 18  1  0  0  0
 17104  1  0  0  0
 18 19  2  0  0  0
 18105  1  0  0  0
 19 20  1  0  0  0
 19 24  1  0  0  0
 20 21  2  0  0  0
 20106  1  0  0  0
 21 23  1  0  0  0
 22 28  1  0  0  0
 22 32  2  0  0  0
 26 27  1  0  0  0
 28107  1  0  0  0
 28108  1  0  0  0
 29109  1  0  0  0
 29110  1  0  0  0
 33 34  1  0  0  0
 33 66  1  0  0  0
 33 70  2  0  0  0
 34 36  1  0  0  0
 34 59  1  0  0  0
 34111  1  0  0  0
 35 44  2  0  0  0
 35 45  1  0  0  0
 35 68  1  0  0  0
 36 56  1  0  0  0
 36112  1  0  0  0
 37 39  1  0  0  0
 37 47  1  0  0  0
 37 66  1  0  0  0
 37113  1  0  0  0
 38 43  2  0  0  0
 38 46  1  0  0  0
 38 47  1  0  0  0
 39 64  1  0  0  0
 39 67  2  0  0  0
 40 52  1  0  0  0
 40 53  2  0  0  0
 40 58  1  0  0  0
 41114  1  0  0  0
 41115  1  0  0  0
 41116  1  0  0  0
 41 48  1  0  0  0
 42 43  1  0  0  0
 42 66  1  0  0  0
 42117  1  0  0  0
 42118  1  0  0  0
 43 44  1  0  0  0
 44119  1  0  0  0
 45 46  2  0  0  0
 45120  1  0  0  0
 46121  1  0  0  0
 47122  1  0  0  0
 47123  1  0  0  0
 48 56  1  0  0  0
 48 65  1  0  0  0
 48124  1  0  0  0
 49 50  1  0  0  0
 49 53  1  0  0  0
 49 64  1  0  0  0
 49125  1  0  0  0
 50 51  1  0  0  0
 50126  1  0  0  0
 50127  1  0  0  0
 51 52  1  0  0  0
 51128  1  0  0  0
 51129  1  0  0  0
 52130  1  0  0  0
 52131  1  0  0  0
 53 54  1  0  0  0
 54 55  2  0  0  0
 54132  1  0  0  0
 55 57  1  0  0  0
 55133  1  0  0  0
 56 69  2  0  0  0
 57 58  2  0  0  0
 57134  1  0  0  0
 58135  1  0  0  0
 59 60  1  0  0  0
 59 61  1  0  0  0
 59 62  1  0  0  0
 60136  1  0  0  0
 60137  1  0  0  0
 60138  1  0  0  0
 61139  1  0  0  0
 61140  1  0  0  0
 61141  1  0  0  0
 62142  1  0  0  0
 62143  1  0  0  0
 62144  1  0  0  0
 63 65  1  0  0  0
 63145  1  0  0  0
 63146  1  0  0  0
 63147  1  0  0  0
 64148  1  0  0  0
 65149  1  0  0  0
 68 86  1  0  0  0
 71 72  2  0  0  0
 71 88  1  0  0  0
 71150  1  0  0  0
 72 74  1  0  0  0
 72 82  1  0  0  0
 73 74  2  0  0  0
 73 75  1  0  0  0
 73 83  1  0  0  0
 74 85  1  0  0  0
 75 88  2  0  0  0
 75 90  1  0  0  0
 76 77  1  0  0  0
 76 83  1  0  0  0
 76151  1  0  0  0
 76152  1  0  0  0
 77 83  1  0  0  0
 77153  1  0  0  0
 77154  1  0  0  0
 78 80  1  0  0  0
 78 82  1  0  0  0
 78155  1  0  0  0
 78156  1  0  0  0
 79 81  1  0  0  0
 79 82  1  0  0  0
 79157  1  0  0  0
 79158  1  0  0  0
 80 89  1  0  0  0
 80159  1  0  0  0
 80160  1  0  0  0
 81 89  1  0  0  0
 81161  1  0  0  0
 81162  1  0  0  0
 82163  1  0  0  0
 83164  1  0  0  0
 84 85  1  0  0  0
 84165  1  0  0  0
 84166  1  0  0  0
 84167  1  0  0  0
 85168  1  0  0  0
 85169  1  0  0  0
 86 87  1  0  0  0
 86170  1  0  0  0
 86171  1  0  0  0
 87 90  1  0  0  0
 87172  1  0  0  0
 87173  1  0  0  0
M  ISO  4   1 100  68 101  86 101  89 100
M  END
> <chiral flag>
0

> <version>
0

> <s_m_source_file>
/data/baiqing/PycharmProjects/Reinvent-master-3.2/result/LINK_invent/BTK/process_docking_weight1_custom_sum_contain_oxygen_bond_distance_aromatic_linkinvent_7_9_3/rearranged_h_0151.sdf

> <i_m_source_file_index>
47

> <r_mmod_Potential_Energy-OPLS-2005>
50.7244453430176

> <r_mmod_Stretch_Energy-OPLS-2005>
48.6838645935059

> <r_mmod_Bend_Energy-OPLS-2005>
138.077926635742

> <r_mmod_Torsional_Energy-OPLS-2005>
308.787384033203

> <r_mmod_Improper_Torsional_Energy-OPLS-2005>
3.69370055198669

> <r_mmod_Van_der_Waal_Energy-OPLS-2005>
186.925018310547

> <r_mmod_Electrostatic_Energy-OPLS-2005>
-442.646118164062

> <r_mmod_Solvation_Energy-OPLS-2005>
-207.479248046875

> <b_mmod_Minimization_Converged-OPLS-2005>
0

> <r_mmod_RMS_Derivative-OPLS-2005>
2.15134572982788

$$$$
47
                    3D
 Structure written by MMmdl.
171181  0  0  1  0            999 V2000
  -30.6922  -14.5048   20.4968 C   0  0  0  0  0  0
  -30.4266  -12.3089   19.4307 C   0  0  0  0  0  0
  -29.4992  -12.4943   18.2097 C   0  0  0  0  0  0
  -28.0225  -12.3535   18.6245 C   0  0  0  0  0  0
  -27.6619  -13.2083   19.8673 C   0  0  2  0  0  0
  -28.7070  -13.0261   20.9931 C   0  0  0  0  0  0
  -25.2592  -13.8169   20.5554 C   0  0  0  0  0  0
  -24.1871  -13.0443   20.9141 C   0  0  0  0  0  0
  -24.6448  -11.6911   20.8750 C   0  0  0  0  0  0
  -23.9128  -10.4280   21.0421 C   0  0  0  0  0  0
  -24.3639   -9.4168   21.9172 C   0  0  0  0  0  0
  -23.6290   -8.2233   22.0725 C   0  0  0  0  0  0
  -22.4277   -8.0300   21.3523 C   0  0  0  0  0  0
  -21.9932   -9.0299   20.4643 C   0  0  0  0  0  0
  -22.7300  -10.2145   20.3060 C   0  0  0  0  0  0
  -21.6858   -6.0732   22.5256 C   0  0  0  0  0  0
  -21.4023   -6.5629   23.8200 C   0  0  0  0  0  0
  -21.3667   -5.6746   24.9162 C   0  0  0  0  0  0
  -21.6041   -4.3007   24.7200 C   0  0  0  0  0  0
  -21.8826   -3.8132   23.4301 C   0  0  0  0  0  0
  -21.9181   -4.6972   22.3355 C   0  0  0  0  0  0
  -22.7887  -13.5231   21.1816 C   0  0  0  0  0  0
  -22.1651   -4.2178   21.0936 F   0  0  0  0  0  0
  -21.5660   -3.4465   25.7683 F   0  0  0  0  0  0
  -30.0350  -13.3125   20.4304 N   0  0  0  0  0  0
  -26.3057  -12.9326   20.3323 N   0  0  0  0  0  0
  -25.9371  -11.6497   20.5795 N   0  0  0  0  0  0
  -22.0481  -12.8266   22.0374 N   0  0  0  0  0  0
  -25.4335  -15.1832   20.3750 N   0  0  0  0  0  0
  -31.8648  -14.6449   20.1420 O   0  0  0  0  0  0
  -21.6629   -6.8899   21.4216 O   0  0  0  0  0  0
  -22.3559  -14.5533   20.6650 O   0  0  0  0  0  0
  -24.6125  -31.8709   23.2126 C   0  0  0  0  0  0
  -25.9053  -32.4850   23.8386 C   0  0  1  0  0  0
  -27.2263  -27.4418   20.1054 C   0  0  0  0  0  0
  -25.5924  -33.8646   24.2343 N   0  0  0  0  0  0
  -23.3967  -30.4934   21.5551 C   0  0  2  0  0  0
  -24.8454  -28.9586   20.1196 C   0  0  0  0  0  0
  -22.7379  -29.4671   22.5047 C   0  0  0  0  0  0
  -18.0272  -28.1383   22.8503 C   0  0  0  0  0  0
  -24.1482  -36.7304   23.2616 C   0  0  0  0  0  0
  -25.9240  -30.8379   21.3637 C   0  0  0  0  0  0
  -26.0038  -29.4694   20.7209 C   0  0  0  0  0  0
  -27.1982  -28.7114   20.7252 C   0  0  0  0  0  0
  -26.0565  -26.9420   19.4990 C   0  0  0  0  0  0
  -24.8633  -27.6898   19.5114 C   0  0  0  0  0  0
  -23.6039  -29.8248   20.1693 C   0  0  0  0  0  0
  -25.4095  -36.3117   24.0331 C   0  0  1  0  0  0
  -20.5848  -28.3648   23.1345 C   0  0  2  0  0  0
  -20.6769  -26.9394   22.5436 C   0  0  0  0  0  0
  -19.5745  -26.6381   21.5226 C   0  0  0  0  0  0
  -18.1914  -26.7940   22.1621 C   0  0  0  0  0  0
  -19.1522  -28.8836   23.2926 C   0  0  0  0  0  0
  -18.9463  -30.1439   23.8942 C   0  0  0  0  0  0
  -17.6471  -30.6584   24.0577 C   0  0  0  0  0  0
  -25.9043  -34.9498   23.5127 C   0  0  0  0  0  0
  -16.5360  -29.9095   23.6337 C   0  0  0  0  0  0
  -16.7267  -28.6514   23.0365 C   0  0  0  0  0  0
  -26.4474  -31.6612   25.0699 C   0  0  0  0  0  0
  -25.3747  -31.3782   26.1470 C   0  0  0  0  0  0
  -27.0249  -30.3022   24.6070 C   0  0  0  0  0  0
  -27.6116  -32.4260   25.7452 C   0  0  0  0  0  0
  -27.5595  -37.1784   24.8431 C   0  0  0  0  0  0
  -21.4121  -29.3015   22.3769 N   0  0  0  0  0  0
  -26.4268  -37.3815   23.9435 N   0  0  0  0  0  0
  -24.6641  -31.0806   22.1038 N   0  0  0  0  0  0
  -23.4165  -28.8214   23.3084 O   0  0  0  0  0  0
  -28.3628  -26.6723   20.0682 O   0  0  0  0  0  0
  -26.5599  -34.8950   22.4683 O   0  0  0  0  0  0
  -23.5343  -32.1517   23.7504 O   0  0  0  0  0  0
  -29.8625  -20.2113   20.7660 C   0  0  0  0  0  0
  -29.7022  -21.6102   20.9395 C   0  0  0  0  0  0
  -27.3107  -21.3579   20.6999 C   0  0  0  0  0  0
  -28.7521  -19.3704   20.5123 C   0  0  0  0  0  0
  -27.4598  -19.9734   20.4719 C   0  0  0  0  0  0
  -28.4156  -22.2048   20.8983 C   0  0  0  0  0  0
  -32.3476  -16.7918   17.0172 C   0  0  0  0  0  0
  -31.3079  -17.6830   16.3674 C   0  0  0  0  0  0
  -28.8984  -17.6989   18.6220 C   0  0  0  0  0  0
  -28.9320  -17.8809   20.1411 C   0  0  1  0  0  0
  -31.4003  -17.6183   17.8732 C   0  0  0  0  0  0
  -30.2458  -16.9771   18.6252 C   0  0  1  0  0  0
  -30.2002  -16.9576   20.1818 C   0  0  2  0  0  0
  -25.7621  -19.4583   18.6557 C   0  0  0  0  0  0
  -26.1920  -19.2063   20.1082 C   0  0  0  0  0  0
  -28.6209  -25.9411   21.2740 C   0  0  0  0  0  0
  -29.1885  -24.5205   21.0096 C   0  0  0  0  0  0
  -29.9007  -15.5823   20.6712 N   0  0  0  0  0  0
  -28.1340  -23.5564   21.0157 O   0  0  0  0  0  0
  -31.4727  -12.3986   19.1318 H   0  0  0  0  0  0
  -30.3171  -11.3062   19.8492 H   0  0  0  0  0  0
  -29.7390  -11.7660   17.4340 H   0  0  0  0  0  0
  -29.6671  -13.4723   17.7593 H   0  0  0  0  0  0
  -27.8359  -11.2992   18.8347 H   0  0  0  0  0  0
  -27.3739  -12.6208   17.7887 H   0  0  0  0  0  0
  -27.6981  -14.2492   19.5467 H   0  0  0  0  0  0
  -28.6768  -12.0017   21.3689 H   0  0  0  0  0  0
  -28.4863  -13.6627   21.8508 H   0  0  0  0  0  0
  -25.2804   -9.5581   22.4755 H   0  0  0  0  0  0
  -23.9974   -7.4574   22.7439 H   0  0  0  0  0  0
  -21.0846   -8.8878   19.8938 H   0  0  0  0  0  0
  -22.3816  -10.9690   19.6170 H   0  0  0  0  0  0
  -21.2042   -7.6120   23.9718 H   0  0  0  0  0  0
  -21.1495   -6.0478   25.9061 H   0  0  0  0  0  0
  -22.0619   -2.7601   23.2801 H   0  0  0  0  0  0
  -22.4019  -11.9898   22.4780 H   0  0  0  0  0  0
  -21.1143  -13.1382   22.2585 H   0  0  0  0  0  0
  -24.6499  -15.8279   20.4093 H   0  0  0  0  0  0
  -26.2589  -15.5837   19.9478 H   0  0  0  0  0  0
  -26.7120  -32.5594   23.1167 H   0  0  0  0  0  0
  -25.0089  -33.9797   25.0483 H   0  0  0  0  0  0
  -22.6821  -31.3082   21.4191 H   0  0  0  0  0  0
  -23.3775  -35.9596   23.3216 H   0  0  0  0  0  0
  -24.3604  -36.8979   22.2041 H   0  0  0  0  0  0
  -23.7196  -37.6469   23.6675 H   0  0  0  0  0  0
  -26.0218  -31.5991   20.5880 H   0  0  0  0  0  0
  -26.8184  -30.9068   21.9726 H   0  0  0  0  0  0
  -28.0903  -29.0987   21.1984 H   0  0  0  0  0  0
  -26.0681  -25.9708   19.0264 H   0  0  0  0  0  0
  -23.9705  -27.2846   19.0579 H   0  0  0  0  0  0
  -23.7044  -30.6017   19.4105 H   0  0  0  0  0  0
  -22.7245  -29.2481   19.8762 H   0  0  0  0  0  0
  -25.1262  -36.1983   25.0823 H   0  0  0  0  0  0
  -20.9934  -28.3239   24.1464 H   0  0  0  0  0  0
  -20.5652  -26.2269   23.3621 H   0  0  0  0  0  0
  -21.6650  -26.7448   22.1246 H   0  0  0  0  0  0
  -19.6895  -25.6300   21.1232 H   0  0  0  0  0  0
  -19.6662  -27.3209   20.6768 H   0  0  0  0  0  0
  -17.4186  -26.6714   21.4018 H   0  0  0  0  0  0
  -18.0268  -26.0072   22.8994 H   0  0  0  0  0  0
  -19.7949  -30.7238   24.2320 H   0  0  0  0  0  0
  -17.5038  -31.6272   24.5167 H   0  0  0  0  0  0
  -15.5359  -30.3007   23.7620 H   0  0  0  0  0  0
  -15.8670  -28.0825   22.7074 H   0  0  0  0  0  0
  -24.5831  -30.7227   25.7836 H   0  0  0  0  0  0
  -24.9042  -32.2984   26.4936 H   0  0  0  0  0  0
  -25.8050  -30.8906   27.0221 H   0  0  0  0  0  0
  -26.2770  -29.6823   24.1109 H   0  0  0  0  0  0
  -27.3998  -29.7220   25.4517 H   0  0  0  0  0  0
  -27.8629  -30.4309   23.9213 H   0  0  0  0  0  0
  -27.2846  -33.3592   26.2050 H   0  0  0  0  0  0
  -28.3920  -32.6749   25.0249 H   0  0  0  0  0  0
  -28.0779  -31.8343   26.5345 H   0  0  0  0  0  0
  -28.2556  -38.0141   24.7604 H   0  0  0  0  0  0
  -28.1146  -36.2696   24.6071 H   0  0  0  0  0  0
  -27.2358  -37.1225   25.8837 H   0  0  0  0  0  0
  -20.9265  -29.8758   21.7030 H   0  0  0  0  0  0
  -26.0159  -38.2871   24.1529 H   0  0  0  0  0  0
  -30.8599  -19.7955   20.7799 H   0  0  0  0  0  0
  -30.5865  -22.2113   21.0894 H   0  0  0  0  0  0
  -26.3209  -21.7964   20.6676 H   0  0  0  0  0  0
  -33.3945  -17.0984   16.9566 H   0  0  0  0  0  0
  -32.1870  -15.7145   16.9482 H   0  0  0  0  0  0
  -30.4327  -17.2148   15.9102 H   0  0  0  0  0  0
  -31.6095  -18.6288   15.9201 H   0  0  0  0  0  0
  -28.9450  -18.6467   18.0780 H   0  0  0  0  0  0
  -28.0546  -17.0935   18.2862 H   0  0  0  0  0  0
  -28.1383  -17.3256   20.6359 H   0  0  0  0  0  0
  -31.8388  -18.4910   18.3600 H   0  0  0  0  0  0
  -30.0654  -15.9833   18.2129 H   0  0  0  0  0  0
  -31.0555  -17.4240   20.6668 H   0  0  0  0  0  0
  -24.8387  -18.9307   18.4208 H   0  0  0  0  0  0
  -26.5181  -19.1193   17.9477 H   0  0  0  0  0  0
  -25.5932  -20.5203   18.4727 H   0  0  0  0  0  0
  -25.3956  -19.5277   20.7823 H   0  0  0  0  0  0
  -26.2812  -18.1393   20.2809 H   0  0  0  0  0  0
  -29.3488  -26.5214   21.8405 H   0  0  0  0  0  0
  -27.7362  -25.8664   21.9090 H   0  0  0  0  0  0
  -29.8911  -24.2736   21.8062 H   0  0  0  0  0  0
  -29.7347  -24.4927   20.0661 H   0  0  0  0  0  0
  -28.9483  -15.3787   20.9370 H   0  0  0  0  0  0
  1 25  1  0  0  0
  1 30  2  0  0  0
  1 88  1  0  0  0
  2  3  1  0  0  0
  2 25  1  0  0  0
  2 90  1  0  0  0
  2 91  1  0  0  0
  3  4  1  0  0  0
  3 92  1  0  0  0
  3 93  1  0  0  0
  4  5  1  0  0  0
  4 94  1  0  0  0
  4 95  1  0  0  0
  5  6  1  0  0  0
  5 26  1  0  0  0
  5 96  1  0  0  0
  6 25  1  0  0  0
  6 97  1  0  0  0
  6 98  1  0  0  0
  7  8  2  0  0  0
  7 26  1  0  0  0
  7 29  1  0  0  0
  8  9  1  0  0  0
  8 22  1  0  0  0
  9 10  1  0  0  0
  9 27  2  0  0  0
 10 11  2  0  0  0
 10 15  1  0  0  0
 11 12  1  0  0  0
 11 99  1  0  0  0
 12 13  2  0  0  0
 12100  1  0  0  0
 13 14  1  0  0  0
 13 31  1  0  0  0
 14 15  2  0  0  0
 14101  1  0  0  0
 15102  1  0  0  0
 16 17  2  0  0  0
 16 21  1  0  0  0
 16 31  1  0  0  0
 17 18  1  0  0  0
 17103  1  0  0  0
 18 19  2  0  0  0
 18104  1  0  0  0
 19 20  1  0  0  0
 19 24  1  0  0  0
 20 21  2  0  0  0
 20105  1  0  0  0
 21 23  1  0  0  0
 22 28  1  0  0  0
 22 32  2  0  0  0
 26 27  1  0  0  0
 28106  1  0  0  0
 28107  1  0  0  0
 29108  1  0  0  0
 29109  1  0  0  0
 33 34  1  0  0  0
 33 66  1  0  0  0
 33 70  2  0  0  0
 34 36  1  0  0  0
 34 59  1  0  0  0
 34110  1  0  0  0
 35 44  2  0  0  0
 35 45  1  0  0  0
 35 68  1  0  0  0
 36 56  1  0  0  0
 36111  1  0  0  0
 37 39  1  0  0  0
 37 47  1  0  0  0
 37 66  1  0  0  0
 37112  1  0  0  0
 38 43  2  0  0  0
 38 46  1  0  0  0
 38 47  1  0  0  0
 39 64  1  0  0  0
 39 67  2  0  0  0
 40 52  1  0  0  0
 40 53  2  0  0  0
 40 58  1  0  0  0
 41113  1  0  0  0
 41114  1  0  0  0
 41115  1  0  0  0
 41 48  1  0  0  0
 42 43  1  0  0  0
 42 66  1  0  0  0
 42116  1  0  0  0
 42117  1  0  0  0
 43 44  1  0  0  0
 44118  1  0  0  0
 45 46  2  0  0  0
 45119  1  0  0  0
 46120  1  0  0  0
 47121  1  0  0  0
 47122  1  0  0  0
 48 56  1  0  0  0
 48 65  1  0  0  0
 48123  1  0  0  0
 49 50  1  0  0  0
 49 53  1  0  0  0
 49 64  1  0  0  0
 49124  1  0  0  0
 50 51  1  0  0  0
 50125  1  0  0  0
 50126  1  0  0  0
 51 52  1  0  0  0
 51127  1  0  0  0
 51128  1  0  0  0
 52129  1  0  0  0
 52130  1  0  0  0
 53 54  1  0  0  0
 54 55  2  0  0  0
 54131  1  0  0  0
 55 57  1  0  0  0
 55132  1  0  0  0
 56 69  2  0  0  0
 57 58  2  0  0  0
 57133  1  0  0  0
 58134  1  0  0  0
 59 60  1  0  0  0
 59 61  1  0  0  0
 59 62  1  0  0  0
 60135  1  0  0  0
 60136  1  0  0  0
 60137  1  0  0  0
 61138  1  0  0  0
 61139  1  0  0  0
 61140  1  0  0  0
 62141  1  0  0  0
 62142  1  0  0  0
 62143  1  0  0  0
 63 65  1  0  0  0
 63144  1  0  0  0
 63145  1  0  0  0
 63146  1  0  0  0
 64147  1  0  0  0
 65148  1  0  0  0
 68 86  1  0  0  0
 71 72  2  0  0  0
 71 74  1  0  0  0
 71149  1  0  0  0
 72 76  1  0  0  0
 72150  1  0  0  0
 73 75  1  0  0  0
 73 76  2  0  0  0
 73151  1  0  0  0
 74 75  2  0  0  0
 74 80  1  0  0  0
 75 85  1  0  0  0
 76 89  1  0  0  0
 77 78  1  0  0  0
 77152  1  0  0  0
 77153  1  0  0  0
 77 81  1  0  0  0
 78 81  1  0  0  0
 78154  1  0  0  0
 78155  1  0  0  0
 79 80  1  0  0  0
 79156  1  0  0  0
 79157  1  0  0  0
 79 82  1  0  0  0
 80 83  1  0  0  0
 80158  1  0  0  0
 81 82  1  0  0  0
 81159  1  0  0  0
 82 83  1  0  0  0
 82160  1  0  0  0
 83 88  1  0  0  0
 83161  1  0  0  0
 84 85  1  0  0  0
 84162  1  0  0  0
 84163  1  0  0  0
 84164  1  0  0  0
 85165  1  0  0  0
 85166  1  0  0  0
 86 87  1  0  0  0
 86167  1  0  0  0
 86168  1  0  0  0
 87 89  1  0  0  0
 87169  1  0  0  0
 87170  1  0  0  0
 88171  1  0  0  0
M  ISO  4   1 100  68 101  86 101  88 100
M  END
> <chiral flag>
0

> <version>
0

> <s_m_source_file>
/data/baiqing/PycharmProjects/Reinvent-master-3.2/result/LINK_invent/BTK/process_docking_weight1_custom_sum_contain_oxygen_bond_distance_aromatic_linkinvent_7_9_3/rearranged_h_0151.sdf

> <i_m_source_file_index>
48

> <r_mmod_Potential_Energy-OPLS-2005>
53.266471862793

> <r_mmod_Stretch_Energy-OPLS-2005>
43.4413681030273

> <r_mmod_Bend_Energy-OPLS-2005>
124.77613067627

> <r_mmod_Torsional_Energy-OPLS-2005>
317.389221191406

> <r_mmod_Improper_Torsional_Energy-OPLS-2005>
9.79860973358154

> <r_mmod_Van_der_Waal_Energy-OPLS-2005>
134.503112792969

> <r_mmod_Electrostatic_Energy-OPLS-2005>
-386.160614013672

> <r_mmod_Solvation_Energy-OPLS-2005>
-207.988479614258

> <b_mmod_Minimization_Converged-OPLS-2005>
0

> <r_mmod_RMS_Derivative-OPLS-2005>
6.41451644897461

$$$$
48
                    3D
 Structure written by MMmdl.
168177  0  0  1  0            999 V2000
  -30.3653  -13.7607   21.4733 C   0  0  0  0  0  0
  -30.4768  -12.5232   19.2532 C   0  0  0  0  0  0
  -29.6195  -12.7934   17.9737 C   0  0  0  0  0  0
  -28.0689  -12.8890   18.0887 C   0  0  0  0  0  0
  -27.6581  -13.8290   19.2701 C   0  0  2  0  0  0
  -28.4247  -12.9324   20.4321 C   0  0  0  0  0  0
  -24.6493  -15.3456   20.3322 C   0  0  0  0  0  0
  -24.0673  -14.3369   21.5769 C   0  0  0  0  0  0
  -25.3264  -12.3077   21.0434 C   0  0  0  0  0  0
  -24.7198  -10.5762   20.9535 C   0  0  0  0  0  0
  -24.6967   -9.6181   22.0445 C   0  0  0  0  0  0
  -23.8199   -8.4790   22.2324 C   0  0  0  0  0  0
  -22.7404   -8.1642   21.3644 C   0  0  0  0  0  0
  -22.6832   -9.0228   20.2517 C   0  0  0  0  0  0
  -23.6661  -10.0579   20.0257 C   0  0  0  0  0  0
  -21.7738   -6.1911   22.5241 C   0  0  0  0  0  0
  -21.4576   -6.6398   23.8235 C   0  0  0  0  0  0
  -21.3843   -5.7310   24.9049 C   0  0  0  0  0  0
  -21.5865   -4.3548   24.6935 C   0  0  0  0  0  0
  -21.8738   -3.8867   23.3995 C   0  0  0  0  0  0
  -21.9430   -4.7957   22.3164 C   0  0  0  0  0  0
  -22.5175  -14.6561   21.8300 C   0  0  0  0  0  0
  -22.1851   -4.3109   21.0740 F   0  0  0  0  0  0
  -21.5426   -3.4805   25.7331 F   0  0  0  0  0  0
  -29.8456  -13.1100   20.4354 N   0  0  0  0  0  0
  -26.0757  -14.1469   19.2724 N   0  0  0  0  0  0
  -26.1414  -12.5737   19.8241 N   0  0  0  0  0  0
  -21.7242  -13.9642   22.6765 N   0  0  0  0  0  0
  -24.2858  -16.6104   20.4747 N   0  0  0  0  0  0
  -31.3250  -14.5483   21.2314 O   0  0  0  0  0  0
  -21.8298   -7.0937   21.4647 O   0  0  0  0  0  0
  -21.9005  -15.1733   20.9026 O   0  0  0  0  0  0
  -24.7620  -31.6663   23.0802 C   0  0  0  0  0  0
  -25.9782  -32.3775   23.7587 C   0  0  1  0  0  0
  -26.5807  -25.4804   20.2843 C   0  0  0  0  0  0
  -25.6025  -33.7695   24.1352 N   0  0  0  0  0  0
  -23.5919  -30.2671   21.4681 C   0  0  2  0  0  0
  -24.9122  -28.3837   20.1149 C   0  0  0  0  0  0
  -22.7900  -29.3731   22.4562 C   0  0  0  0  0  0
  -18.0342  -28.1412   22.8454 C   0  0  0  0  0  0
  -24.1499  -36.6767   23.2683 C   0  0  0  0  0  0
  -26.1641  -29.9509   21.5263 C   0  0  0  0  0  0
  -26.0749  -28.4083   20.8732 C   0  0  0  0  0  0
  -26.8834  -27.0159   20.9023 C   0  0  0  0  0  0
  -25.5523  -25.9873   19.4057 C   0  0  0  0  0  0
  -24.7782  -27.2208   19.3367 C   0  0  0  0  0  0
  -23.8490  -29.5217   20.1176 C   0  0  0  0  0  0
  -25.4214  -36.2485   24.0214 C   0  0  1  0  0  0
  -20.5975  -28.3780   23.1061 C   0  0  2  0  0  0
  -20.6727  -26.9394   22.5447 C   0  0  0  0  0  0
  -19.5729  -26.6324   21.5205 C   0  0  0  0  0  0
  -18.1931  -26.7938   22.1617 C   0  0  0  0  0  0
  -19.1631  -28.8924   23.2702 C   0  0  0  0  0  0
  -18.9564  -30.1508   23.8747 C   0  0  0  0  0  0
  -17.6549  -30.6601   24.0539 C   0  0  0  0  0  0
  -25.9273  -34.8905   23.4713 C   0  0  0  0  0  0
  -16.5423  -29.9083   23.6375 C   0  0  0  0  0  0
  -16.7330  -28.6503   23.0400 C   0  0  0  0  0  0
  -26.4735  -31.6305   25.0605 C   0  0  0  0  0  0
  -25.3582  -31.3788   26.1038 C   0  0  0  0  0  0
  -27.0837  -30.2585   24.7247 C   0  0  0  0  0  0
  -27.6029  -32.4406   25.7432 C   0  0  0  0  0  0
  -27.5545  -37.1507   24.8476 C   0  0  0  0  0  0
  -21.4520  -29.2847   22.3256 N   0  0  0  0  0  0
  -26.4224  -37.3408   23.9437 N   0  0  0  0  0  0
  -24.8897  -30.6958   22.0713 N   0  0  0  0  0  0
  -23.3928  -28.7520   23.3357 O   0  0  0  0  0  0
  -26.9925  -23.6609   20.2630 O   0  0  0  0  0  0
  -26.6073  -34.8719   22.4439 O   0  0  0  0  0  0
  -23.6528  -32.0379   23.5205 O   0  0  0  0  0  0
  -22.9807  -12.3877   20.8180 C   0  0  0  0  0  0
  -23.5587  -12.1762   22.5605 C   0  0  0  0  0  0
  -26.1100  -13.8822   22.8627 C   0  0  0  0  0  0
  -23.9886  -13.3539   19.6664 C   0  0  0  0  0  0
  -26.2168  -14.3997   21.4423 C   0  0  0  0  0  0
  -25.0609  -12.7633   23.3638 C   0  0  0  0  0  0
  -23.7345  -14.4632   18.2466 C   0  0  0  0  0  0
  -26.7792  -16.5851   21.0899 C   0  0  0  0  0  0
  -24.5731  -16.2001   17.9177 C   0  0  0  0  0  0
  -26.2762  -18.7093   20.1416 C   0  0  2  0  0  0
  -25.6898  -17.6985   18.5623 C   0  0  2  0  0  0
  -26.4245  -21.3734   20.3346 C   0  0  0  0  0  0
  -27.6120  -12.3521   24.5568 C   0  0  0  0  0  0
  -28.9807  -13.3096   24.0027 C   0  0  0  0  0  0
  -26.1902  -11.9559   23.9026 N   0  0  0  0  0  0
  -29.7295  -13.1607   22.6354 N   0  0  0  0  0  0
  -25.5535  -18.6596   17.4294 N   0  3  0  0  0  0
  -31.4866  -12.9218   19.0762 H   0  0  0  0  0  0
  -30.5620  -11.4562   19.4517 H   0  0  0  0  0  0
  -29.9377  -12.1604   17.1417 H   0  0  0  0  0  0
  -29.8356  -13.7941   17.6241 H   0  0  0  0  0  0
  -27.6601  -11.8769   18.1142 H   0  0  0  0  0  0
  -27.6587  -13.3559   17.1867 H   0  0  0  0  0  0
  -28.1593  -14.7966   19.1820 H   0  0  0  0  0  0
  -28.3970  -11.8674   20.1557 H   0  0  0  0  0  0
  -27.8984  -12.7830   21.3905 H   0  0  0  0  0  0
  -25.3224   -9.8494   22.8896 H   0  0  0  0  0  0
  -23.9277   -7.9096   23.1471 H   0  0  0  0  0  0
  -21.9464   -8.8230   19.4745 H   0  0  0  0  0  0
  -23.5074  -10.6194   19.1159 H   0  0  0  0  0  0
  -21.2896   -7.6856   24.0175 H   0  0  0  0  0  0
  -21.1573   -6.0839   25.9007 H   0  0  0  0  0  0
  -22.0142   -2.8396   23.2058 H   0  0  0  0  0  0
  -22.0810  -13.1458   23.1533 H   0  0  0  0  0  0
  -20.7615  -14.2301   22.8263 H   0  0  0  0  0  0
  -23.6024  -16.8314   21.1753 H   0  0  0  0  0  0
  -24.0648  -17.0777   19.6118 H   0  0  0  0  0  0
  -26.7866  -32.3999   23.0278 H   0  0  0  0  0  0
  -24.9814  -33.8585   24.9254 H   0  0  0  0  0  0
  -22.9818  -31.1443   21.2413 H   0  0  0  0  0  0
  -23.3919  -35.8925   23.3141 H   0  0  0  0  0  0
  -24.3564  -36.8694   22.2142 H   0  0  0  0  0  0
  -23.7103  -37.5770   23.6995 H   0  0  0  0  0  0
  -26.5602  -30.5919   20.7374 H   0  0  0  0  0  0
  -26.9569  -29.9072   22.2508 H   0  0  0  0  0  0
  -27.7326  -27.0740   21.5661 H   0  0  0  0  0  0
  -25.1551  -25.2277   18.7549 H   0  0  0  0  0  0
  -23.9473  -27.2114   18.6399 H   0  0  0  0  0  0
  -24.1750  -30.2457   19.3720 H   0  0  0  0  0  0
  -22.9099  -29.1147   19.7395 H   0  0  0  0  0  0
  -25.1479  -36.1079   25.0708 H   0  0  0  0  0  0
  -20.9996  -28.3444   24.1195 H   0  0  0  0  0  0
  -20.5464  -26.2418   23.3746 H   0  0  0  0  0  0
  -21.6586  -26.7171   22.1319 H   0  0  0  0  0  0
  -19.6842  -25.6191   21.1297 H   0  0  0  0  0  0
  -19.6678  -27.3085   20.6690 H   0  0  0  0  0  0
  -17.4189  -26.6729   21.4036 H   0  0  0  0  0  0
  -18.0319  -26.0086   22.9020 H   0  0  0  0  0  0
  -19.8066  -30.7362   24.2046 H   0  0  0  0  0  0
  -17.5128  -31.6288   24.5162 H   0  0  0  0  0  0
  -15.5433  -30.2934   23.7758 H   0  0  0  0  0  0
  -15.8759  -28.0737   22.7192 H   0  0  0  0  0  0
  -24.5920  -30.7025   25.7225 H   0  0  0  0  0  0
  -24.8621  -32.3032   26.3999 H   0  0  0  0  0  0
  -25.7560  -30.9186   27.0095 H   0  0  0  0  0  0
  -26.3489  -29.5688   24.3098 H   0  0  0  0  0  0
  -27.4625  -29.7735   25.6253 H   0  0  0  0  0  0
  -27.9380  -30.3480   24.0540 H   0  0  0  0  0  0
  -27.2482  -33.3902   26.1471 H   0  0  0  0  0  0
  -28.4099  -32.6625   25.0424 H   0  0  0  0  0  0
  -28.0429  -31.8900   26.5770 H   0  0  0  0  0  0
  -28.2397  -37.9960   24.7737 H   0  0  0  0  0  0
  -28.1205  -36.2489   24.6083 H   0  0  0  0  0  0
  -27.2264  -37.0836   25.8867 H   0  0  0  0  0  0
  -20.9995  -29.8301   21.6059 H   0  0  0  0  0  0
  -25.9925  -38.2359   24.1631 H   0  0  0  0  0  0
  -22.0000  -12.0680   20.5007 H   0  0  0  0  0  0
  -22.9623  -11.4493   23.1039 H   0  0  0  0  0  0
  -27.0043  -14.3944   23.2537 H   0  0  0  0  0  0
  -22.6575  -14.6188   18.1724 H   0  0  0  0  0  0
  -23.9531  -13.8079   17.3941 H   0  0  0  0  0  0
  -27.7687  -16.4429   20.6866 H   0  0  0  0  0  0
  -27.0061  -16.8948   22.1142 H   0  0  0  0  0  0
  -23.7209  -16.7393   17.4977 H   0  0  0  0  0  0
  -25.1487  -15.9095   17.0501 H   0  0  0  0  0  0
  -25.3848  -18.7924   20.7574 H   0  0  0  0  0  0
  -26.6557  -17.2342   18.3581 H   0  0  0  0  0  0
  -26.9215  -21.3312   21.3053 H   0  0  0  0  0  0
  -25.3413  -21.5495   20.4493 H   0  0  0  0  0  0
  -27.3658  -12.7564   25.5697 H   0  0  0  0  0  0
  -28.0208  -11.3813   24.8842 H   0  0  0  0  0  0
  -29.7998  -13.1549   24.7398 H   0  0  0  0  0  0
  -28.8006  -14.3790   24.1665 H   0  0  0  0  0  0
  -26.0961  -10.9330   23.7893 H   0  0  0  0  0  0
  -29.2632  -12.3442   22.2756 H   0  0  0  0  0  0
  -24.6242  -19.0398   17.3819 H   0  0  0  0  0  0
  -25.7141  -18.2313   16.5324 H   0  0  0  0  0  0
  -26.2153  -19.4128   17.4636 H   0  0  0  0  0  0
  1 25  1  0  0  0
  1 30  2  0  0  0
  1 86  1  0  0  0
  2  3  1  0  0  0
  2 25  1  0  0  0
  2 88  1  0  0  0
  2 89  1  0  0  0
  3  4  1  0  0  0
  3 90  1  0  0  0
  3 91  1  0  0  0
  4  5  1  0  0  0
  4 92  1  0  0  0
  4 93  1  0  0  0
  5  6  1  0  0  0
  5 26  1  0  0  0
  5 94  1  0  0  0
  6 25  1  0  0  0
  6 95  1  0  0  0
  6 96  1  0  0  0
  7  8  2  0  0  0
  7 26  1  0  0  0
  7 29  1  0  0  0
  8  9  1  0  0  0
  8 22  1  0  0  0
  9 10  1  0  0  0
  9 27  2  0  0  0
 10 11  2  0  0  0
 10 15  1  0  0  0
 11 12  1  0  0  0
 11 97  1  0  0  0
 12 13  2  0  0  0
 12 98  1  0  0  0
 13 14  1  0  0  0
 13 31  1  0  0  0
 14 15  2  0  0  0
 14 99  1  0  0  0
 15100  1  0  0  0
 16 17  2  0  0  0
 16 21  1  0  0  0
 16 31  1  0  0  0
 17 18  1  0  0  0
 17101  1  0  0  0
 18 19  2  0  0  0
 18102  1  0  0  0
 19 20  1  0  0  0
 19 24  1  0  0  0
 20 21  2  0  0  0
 20103  1  0  0  0
 21 23  1  0  0  0
 22 28  1  0  0  0
 22 32  2  0  0  0
 26 27  1  0  0  0
 28104  1  0  0  0
 28105  1  0  0  0
 29106  1  0  0  0
 29107  1  0  0  0
 33 34  1  0  0  0
 33 66  1  0  0  0
 33 70  2  0  0  0
 34 36  1  0  0  0
 34 59  1  0  0  0
 34108  1  0  0  0
 35 44  2  0  0  0
 35 45  1  0  0  0
 35 68  1  0  0  0
 36 56  1  0  0  0
 36109  1  0  0  0
 37 39  1  0  0  0
 37 47  1  0  0  0
 37 66  1  0  0  0
 37110  1  0  0  0
 38 43  2  0  0  0
 38 46  1  0  0  0
 38 47  1  0  0  0
 39 64  1  0  0  0
 39 67  2  0  0  0
 40 52  1  0  0  0
 40 53  2  0  0  0
 40 58  1  0  0  0
 41111  1  0  0  0
 41112  1  0  0  0
 41113  1  0  0  0
 41 48  1  0  0  0
 42 43  1  0  0  0
 42 66  1  0  0  0
 42114  1  0  0  0
 42115  1  0  0  0
 43 44  1  0  0  0
 44116  1  0  0  0
 45 46  2  0  0  0
 45117  1  0  0  0
 46118  1  0  0  0
 47119  1  0  0  0
 47120  1  0  0  0
 48 56  1  0  0  0
 48 65  1  0  0  0
 48121  1  0  0  0
 49 50  1  0  0  0
 49 53  1  0  0  0
 49 64  1  0  0  0
 49122  1  0  0  0
 50 51  1  0  0  0
 50123  1  0  0  0
 50124  1  0  0  0
 51 52  1  0  0  0
 51125  1  0  0  0
 51126  1  0  0  0
 52127  1  0  0  0
 52128  1  0  0  0
 53 54  1  0  0  0
 54 55  2  0  0  0
 54129  1  0  0  0
 55 57  1  0  0  0
 55130  1  0  0  0
 56 69  2  0  0  0
 57 58  2  0  0  0
 57131  1  0  0  0
 58132  1  0  0  0
 59 60  1  0  0  0
 59 61  1  0  0  0
 59 62  1  0  0  0
 60133  1  0  0  0
 60134  1  0  0  0
 60135  1  0  0  0
 61136  1  0  0  0
 61137  1  0  0  0
 61138  1  0  0  0
 62139  1  0  0  0
 62140  1  0  0  0
 62141  1  0  0  0
 63 65  1  0  0  0
 63142  1  0  0  0
 63143  1  0  0  0
 63144  1  0  0  0
 64145  1  0  0  0
 65146  1  0  0  0
 68 82  1  0  0  0
 71 72  2  0  0  0
 71 74  1  0  0  0
 71147  1  0  0  0
 72 76  1  0  0  0
 72148  1  0  0  0
 73 75  1  0  0  0
 73 76  2  0  0  0
 73149  1  0  0  0
 74 75  2  0  0  0
 74 77  1  0  0  0
 75 78  1  0  0  0
 76 85  1  0  0  0
 77 79  1  0  0  0
 77150  1  0  0  0
 77151  1  0  0  0
 78 80  1  0  0  0
 78152  1  0  0  0
 78153  1  0  0  0
 79 81  1  0  0  0
 79154  1  0  0  0
 79155  1  0  0  0
 80 81  1  0  0  0
 80 82  1  0  0  0
 80156  1  0  0  0
 81 87  1  0  0  0
 81157  1  0  0  0
 82158  1  0  0  0
 82159  1  0  0  0
 83 84  1  0  0  0
 83 85  1  0  0  0
 83160  1  0  0  0
 83161  1  0  0  0
 84 86  1  0  0  0
 84162  1  0  0  0
 84163  1  0  0  0
 85164  1  0  0  0
 86165  1  0  0  0
 87166  1  0  0  0
 87167  1  0  0  0
 87168  1  0  0  0
M  CHG  1  87   1
M  ISO  4   1 100  68 101  82 101  86 100
M  END
> <chiral flag>
0

> <version>
0

> <s_m_source_file>
/data/baiqing/PycharmProjects/Reinvent-master-3.2/result/LINK_invent/BTK/process_docking_weight1_custom_sum_contain_oxygen_bond_distance_aromatic_linkinvent_7_9_3/rearranged_h_0151.sdf

> <i_m_source_file_index>
49

> <r_mmod_Potential_Energy-OPLS-2005>
28511.2734375

> <r_mmod_Stretch_Energy-OPLS-2005>
16377.458984375

> <r_mmod_Bend_Energy-OPLS-2005>
2307.22290039062

> <r_mmod_Torsional_Energy-OPLS-2005>
704.825927734375

> <r_mmod_Improper_Torsional_Energy-OPLS-2005>
130.729675292969

> <r_mmod_Van_der_Waal_Energy-OPLS-2005>
4992.9560546875

> <r_mmod_Electrostatic_Energy-OPLS-2005>
-382.568481445312

> <r_mmod_Solvation_Energy-OPLS-2005>
-531.533996582031

> <b_mmod_Minimization_Converged-OPLS-2005>
0

> <r_mmod_RMS_Derivative-OPLS-2005>
55.1538581848145

$$$$
49
                    3D
 Structure written by MMmdl.
172181  0  0  1  0            999 V2000
  -30.7220  -14.4546   20.5914 C   0  0  0  0  0  0
  -30.4129  -12.3003   19.4294 C   0  0  0  0  0  0
  -29.4923  -12.5055   18.2096 C   0  0  0  0  0  0
  -28.0144  -12.3655   18.6217 C   0  0  0  0  0  0
  -27.6604  -13.2089   19.8765 C   0  0  2  0  0  0
  -28.6989  -12.9983   21.0021 C   0  0  0  0  0  0
  -25.2580  -13.8169   20.5671 C   0  0  0  0  0  0
  -24.1833  -13.0443   20.9168 C   0  0  0  0  0  0
  -24.6386  -11.6911   20.8732 C   0  0  0  0  0  0
  -23.9058  -10.4294   21.0403 C   0  0  0  0  0  0
  -24.3610   -9.4214   21.9182 C   0  0  0  0  0  0
  -23.6287   -8.2249   22.0759 C   0  0  0  0  0  0
  -22.4271   -8.0282   21.3546 C   0  0  0  0  0  0
  -21.9906   -9.0257   20.4647 C   0  0  0  0  0  0
  -22.7234  -10.2134   20.3053 C   0  0  0  0  0  0
  -21.6852   -6.0735   22.5278 C   0  0  0  0  0  0
  -21.4013   -6.5638   23.8211 C   0  0  0  0  0  0
  -21.3659   -5.6790   24.9174 C   0  0  0  0  0  0
  -21.6043   -4.3056   24.7226 C   0  0  0  0  0  0
  -21.8820   -3.8146   23.4349 C   0  0  0  0  0  0
  -21.9190   -4.6960   22.3405 C   0  0  0  0  0  0
  -22.7858  -13.5241   21.1835 C   0  0  0  0  0  0
  -22.1659   -4.2147   21.0982 F   0  0  0  0  0  0
  -21.5634   -3.4541   25.7742 F   0  0  0  0  0  0
  -30.0314  -13.2908   20.4513 N   0  0  0  0  0  0
  -26.3015  -12.9342   20.3367 N   0  0  0  0  0  0
  -25.9312  -11.6499   20.5767 N   0  0  0  0  0  0
  -22.0495  -12.8231   22.0387 N   0  0  0  0  0  0
  -25.4311  -15.1882   20.4072 N   0  0  0  0  0  0
  -31.8297  -14.6271   20.0754 O   0  0  0  0  0  0
  -21.6637   -6.8879   21.4242 O   0  0  0  0  0  0
  -22.3543  -14.5548   20.6684 O   0  0  0  0  0  0
  -24.6139  -31.8679   23.2110 C   0  0  0  0  0  0
  -25.9033  -32.4823   23.8406 C   0  0  1  0  0  0
  -27.2324  -27.4355   20.1113 C   0  0  0  0  0  0
  -25.5899  -33.8622   24.2336 N   0  0  0  0  0  0
  -23.4026  -30.4900   21.5502 C   0  0  2  0  0  0
  -24.8529  -28.9546   20.1169 C   0  0  0  0  0  0
  -22.7413  -29.4654   22.4998 C   0  0  0  0  0  0
  -18.0267  -28.1367   22.8480 C   0  0  0  0  0  0
  -24.1484  -36.7317   23.2641 C   0  0  0  0  0  0
  -25.9301  -30.8332   21.3660 C   0  0  0  0  0  0
  -26.0094  -29.4646   20.7214 C   0  0  0  0  0  0
  -27.2044  -28.7087   20.7242 C   0  0  0  0  0  0
  -26.0683  -26.9407   19.4940 C   0  0  0  0  0  0
  -24.8757  -27.6895   19.5018 C   0  0  0  0  0  0
  -23.6136  -29.8207   20.1649 C   0  0  0  0  0  0
  -25.4104  -36.3112   24.0342 C   0  0  1  0  0  0
  -20.5858  -28.3658   23.1314 C   0  0  2  0  0  0
  -20.6761  -26.9394   22.5413 C   0  0  0  0  0  0
  -19.5739  -26.6375   21.5207 C   0  0  0  0  0  0
  -18.1913  -26.7910   22.1612 C   0  0  0  0  0  0
  -19.1518  -28.8827   23.2891 C   0  0  0  0  0  0
  -18.9451  -30.1428   23.8908 C   0  0  0  0  0  0
  -17.6460  -30.6575   24.0559 C   0  0  0  0  0  0
  -25.9036  -34.9478   23.5138 C   0  0  0  0  0  0
  -16.5350  -29.9078   23.6324 C   0  0  0  0  0  0
  -16.7259  -28.6496   23.0345 C   0  0  0  0  0  0
  -26.4472  -31.6597   25.0725 C   0  0  0  0  0  0
  -25.3748  -31.3686   26.1482 C   0  0  0  0  0  0
  -27.0310  -30.3048   24.6082 C   0  0  0  0  0  0
  -27.6052  -32.4318   25.7480 C   0  0  0  0  0  0
  -27.5580  -37.1809   24.8463 C   0  0  0  0  0  0
  -21.4146  -29.3025   22.3731 N   0  0  0  0  0  0
  -26.4293  -37.3795   23.9411 N   0  0  0  0  0  0
  -24.6667  -31.0781   22.1013 N   0  0  0  0  0  0
  -23.4181  -28.8207   23.3053 O   0  0  0  0  0  0
  -28.3704  -26.6662   20.0682 O   0  0  0  0  0  0
  -26.5599  -34.8929   22.4698 O   0  0  0  0  0  0
  -23.5330  -32.1437   23.7501 O   0  0  0  0  0  0
  -27.3635  -20.2839   23.5871 C   0  0  0  0  0  0
  -26.6676  -22.5909   23.2424 C   0  0  0  0  0  0
  -28.3518  -21.5973   21.7876 C   0  0  0  0  0  0
  -26.5738  -21.3882   23.9696 C   0  0  0  0  0  0
  -28.2591  -20.3659   22.4940 C   0  0  0  0  0  0
  -27.5603  -22.7169   22.1623 C   0  0  0  0  0  0
  -29.9413  -17.8298   20.2977 C   0  0  0  0  0  0
  -30.5979  -17.4246   22.7612 C   0  0  0  0  0  0
  -28.7449  -18.6512   20.8264 C   0  0  0  0  0  0
  -29.3529  -18.2460   23.1403 C   0  0  0  0  0  0
  -30.5862  -16.8552   21.3222 C   0  0  0  0  0  0
  -26.4117  -21.0743   26.4734 C   0  0  0  0  0  0
  -24.5555  -20.2212   24.9639 C   0  0  0  0  0  0
  -28.7599  -26.0731   21.3131 C   0  0  0  0  0  0
  -28.8496  -24.5252   21.2377 C   0  0  0  0  0  0
  -25.6348  -21.2946   25.1662 C   0  0  0  0  0  0
  -29.0548  -19.2545   22.1210 N   0  0  0  0  0  0
  -30.0866  -15.4642   21.2260 N   0  0  0  0  0  0
  -27.5781  -23.9368   21.5145 O   0  0  0  0  0  0
  -31.4598  -12.3818   19.1320 H   0  0  0  0  0  0
  -30.2988  -11.2909   19.8281 H   0  0  0  0  0  0
  -29.7322  -11.7820   17.4294 H   0  0  0  0  0  0
  -29.6640  -13.4919   17.7761 H   0  0  0  0  0  0
  -27.8263  -11.3102   18.8222 H   0  0  0  0  0  0
  -27.3632  -12.6358   17.7898 H   0  0  0  0  0  0
  -27.7046  -14.2557   19.5762 H   0  0  0  0  0  0
  -28.6707  -11.9671   21.3563 H   0  0  0  0  0  0
  -28.4600  -13.6114   21.8721 H   0  0  0  0  0  0
  -25.2755   -9.5689   22.4760 H   0  0  0  0  0  0
  -23.9997   -7.4643   22.7481 H   0  0  0  0  0  0
  -21.0839   -8.8773   19.8953 H   0  0  0  0  0  0
  -22.3693  -10.9674   19.6163 H   0  0  0  0  0  0
  -21.2004   -7.6143   23.9712 H   0  0  0  0  0  0
  -21.1480   -6.0521   25.9074 H   0  0  0  0  0  0
  -22.0599   -2.7607   23.2850 H   0  0  0  0  0  0
  -22.4105  -11.9880   22.4761 H   0  0  0  0  0  0
  -21.1119  -13.1271   22.2603 H   0  0  0  0  0  0
  -24.6658  -15.8451   20.5112 H   0  0  0  0  0  0
  -26.2857  -15.6240   20.0851 H   0  0  0  0  0  0
  -26.7105  -32.5552   23.1177 H   0  0  0  0  0  0
  -25.0058  -33.9785   25.0487 H   0  0  0  0  0  0
  -22.6906  -31.3058   21.4094 H   0  0  0  0  0  0
  -23.3746  -35.9650   23.3302 H   0  0  0  0  0  0
  -24.3583  -36.8931   22.2055 H   0  0  0  0  0  0
  -23.7231  -37.6520   23.6663 H   0  0  0  0  0  0
  -26.0374  -31.5951   20.5931 H   0  0  0  0  0  0
  -26.8197  -30.8931   21.9811 H   0  0  0  0  0  0
  -28.0992  -29.0987   21.1894 H   0  0  0  0  0  0
  -26.0839  -25.9700   19.0192 H   0  0  0  0  0  0
  -23.9886  -27.2883   19.0318 H   0  0  0  0  0  0
  -23.7225  -30.5953   19.4048 H   0  0  0  0  0  0
  -22.7385  -29.2407   19.8677 H   0  0  0  0  0  0
  -25.1271  -36.1992   25.0836 H   0  0  0  0  0  0
  -20.9934  -28.3219   24.1443 H   0  0  0  0  0  0
  -20.5658  -26.2269   23.3601 H   0  0  0  0  0  0
  -21.6636  -26.7431   22.1214 H   0  0  0  0  0  0
  -19.6913  -25.6293   21.1225 H   0  0  0  0  0  0
  -19.6684  -27.3195   20.6747 H   0  0  0  0  0  0
  -17.4188  -26.6661   21.4003 H   0  0  0  0  0  0
  -18.0303  -26.0039   22.8994 H   0  0  0  0  0  0
  -19.7933  -30.7224   24.2300 H   0  0  0  0  0  0
  -17.5019  -31.6260   24.5146 H   0  0  0  0  0  0
  -15.5352  -30.2985   23.7648 H   0  0  0  0  0  0
  -15.8655  -28.0825   22.7061 H   0  0  0  0  0  0
  -24.5901  -30.7061   25.7812 H   0  0  0  0  0  0
  -24.8972  -32.2839   26.4992 H   0  0  0  0  0  0
  -25.8101  -30.8802   27.0207 H   0  0  0  0  0  0
  -26.2843  -29.6795   24.1175 H   0  0  0  0  0  0
  -27.4136  -29.7297   25.4524 H   0  0  0  0  0  0
  -27.8650  -30.4384   23.9186 H   0  0  0  0  0  0
  -27.2679  -33.3612   26.2080 H   0  0  0  0  0  0
  -28.3844  -32.6884   25.0289 H   0  0  0  0  0  0
  -28.0739  -31.8430   26.5374 H   0  0  0  0  0  0
  -28.2592  -38.0110   24.7524 H   0  0  0  0  0  0
  -28.1078  -36.2644   24.6273 H   0  0  0  0  0  0
  -27.2302  -37.1446   25.8866 H   0  0  0  0  0  0
  -20.9325  -29.8767   21.6960 H   0  0  0  0  0  0
  -26.0185  -38.2872   24.1422 H   0  0  0  0  0  0
  -27.2614  -19.3671   24.1479 H   0  0  0  0  0  0
  -26.0632  -23.4408   23.5261 H   0  0  0  0  0  0
  -29.0317  -21.6821   20.9528 H   0  0  0  0  0  0
  -30.7077  -18.5433   19.9900 H   0  0  0  0  0  0
  -29.6602  -17.3007   19.3860 H   0  0  0  0  0  0
  -30.7682  -16.6316   23.4909 H   0  0  0  0  0  0
  -31.4601  -18.0881   22.8516 H   0  0  0  0  0  0
  -27.8756  -18.0003   20.9393 H   0  0  0  0  0  0
  -28.4655  -19.4111   20.0952 H   0  0  0  0  0  0
  -29.5212  -18.7199   24.1091 H   0  0  0  0  0  0
  -28.4969  -17.5779   23.2564 H   0  0  0  0  0  0
  -31.6422  -16.8221   21.0496 H   0  0  0  0  0  0
  -27.1338  -21.8745   26.6405 H   0  0  0  0  0  0
  -26.9578  -20.1306   26.4672 H   0  0  0  0  0  0
  -25.7392  -21.0580   27.3324 H   0  0  0  0  0  0
  -23.9840  -20.4079   24.0546 H   0  0  0  0  0  0
  -23.8509  -20.2147   25.7964 H   0  0  0  0  0  0
  -24.9839  -19.2216   24.8894 H   0  0  0  0  0  0
  -29.7496  -26.4696   21.5429 H   0  0  0  0  0  0
  -28.1193  -26.3728   22.1453 H   0  0  0  0  0  0
  -29.5731  -24.1917   21.9843 H   0  0  0  0  0  0
  -29.2215  -24.1998   20.2666 H   0  0  0  0  0  0
  -25.1184  -22.2517   25.2599 H   0  0  0  0  0  0
  -29.1760  -15.2601   21.6091 H   0  0  0  0  0  0
  1 25  1  0  0  0
  1 30  2  0  0  0
  1 88  1  0  0  0
  2  3  1  0  0  0
  2 25  1  0  0  0
  2 90  1  0  0  0
  2 91  1  0  0  0
  3  4  1  0  0  0
  3 92  1  0  0  0
  3 93  1  0  0  0
  4  5  1  0  0  0
  4 94  1  0  0  0
  4 95  1  0  0  0
  5  6  1  0  0  0
  5 26  1  0  0  0
  5 96  1  0  0  0
  6 25  1  0  0  0
  6 97  1  0  0  0
  6 98  1  0  0  0
  7  8  2  0  0  0
  7 26  1  0  0  0
  7 29  1  0  0  0
  8  9  1  0  0  0
  8 22  1  0  0  0
  9 10  1  0  0  0
  9 27  2  0  0  0
 10 11  2  0  0  0
 10 15  1  0  0  0
 11 12  1  0  0  0
 11 99  1  0  0  0
 12 13  2  0  0  0
 12100  1  0  0  0
 13 14  1  0  0  0
 13 31  1  0  0  0
 14 15  2  0  0  0
 14101  1  0  0  0
 15102  1  0  0  0
 16 17  2  0  0  0
 16 21  1  0  0  0
 16 31  1  0  0  0
 17 18  1  0  0  0
 17103  1  0  0  0
 18 19  2  0  0  0
 18104  1  0  0  0
 19 20  1  0  0  0
 19 24  1  0  0  0
 20 21  2  0  0  0
 20105  1  0  0  0
 21 23  1  0  0  0
 22 28  1  0  0  0
 22 32  2  0  0  0
 26 27  1  0  0  0
 28106  1  0  0  0
 28107  1  0  0  0
 29108  1  0  0  0
 29109  1  0  0  0
 33 34  1  0  0  0
 33 66  1  0  0  0
 33 70  2  0  0  0
 34 36  1  0  0  0
 34 59  1  0  0  0
 34110  1  0  0  0
 35 44  2  0  0  0
 35 45  1  0  0  0
 35 68  1  0  0  0
 36 56  1  0  0  0
 36111  1  0  0  0
 37 39  1  0  0  0
 37 47  1  0  0  0
 37 66  1  0  0  0
 37112  1  0  0  0
 38 43  2  0  0  0
 38 46  1  0  0  0
 38 47  1  0  0  0
 39 64  1  0  0  0
 39 67  2  0  0  0
 40 52  1  0  0  0
 40 53  2  0  0  0
 40 58  1  0  0  0
 41113  1  0  0  0
 41114  1  0  0  0
 41115  1  0  0  0
 41 48  1  0  0  0
 42 43  1  0  0  0
 42 66  1  0  0  0
 42116  1  0  0  0
 42117  1  0  0  0
 43 44  1  0  0  0
 44118  1  0  0  0
 45 46  2  0  0  0
 45119  1  0  0  0
 46120  1  0  0  0
 47121  1  0  0  0
 47122  1  0  0  0
 48 56  1  0  0  0
 48 65  1  0  0  0
 48123  1  0  0  0
 49 50  1  0  0  0
 49 53  1  0  0  0
 49 64  1  0  0  0
 49124  1  0  0  0
 50 51  1  0  0  0
 50125  1  0  0  0
 50126  1  0  0  0
 51 52  1  0  0  0
 51127  1  0  0  0
 51128  1  0  0  0
 52129  1  0  0  0
 52130  1  0  0  0
 53 54  1  0  0  0
 54 55  2  0  0  0
 54131  1  0  0  0
 55 57  1  0  0  0
 55132  1  0  0  0
 56 69  2  0  0  0
 57 58  2  0  0  0
 57133  1  0  0  0
 58134  1  0  0  0
 59 60  1  0  0  0
 59 61  1  0  0  0
 59 62  1  0  0  0
 60135  1  0  0  0
 60136  1  0  0  0
 60137  1  0  0  0
 61138  1  0  0  0
 61139  1  0  0  0
 61140  1  0  0  0
 62141  1  0  0  0
 62142  1  0  0  0
 62143  1  0  0  0
 63 65  1  0  0  0
 63144  1  0  0  0
 63145  1  0  0  0
 63146  1  0  0  0
 64147  1  0  0  0
 65148  1  0  0  0
 68 84  1  0  0  0
 71 74  2  0  0  0
 71 75  1  0  0  0
 71149  1  0  0  0
 72 74  1  0  0  0
 72 76  2  0  0  0
 72150  1  0  0  0
 73 75  2  0  0  0
 73 76  1  0  0  0
 73151  1  0  0  0
 74 86  1  0  0  0
 75 87  1  0  0  0
 76 89  1  0  0  0
 77 79  1  0  0  0
 77 81  1  0  0  0
 77152  1  0  0  0
 77153  1  0  0  0
 78 80  1  0  0  0
 78 81  1  0  0  0
 78154  1  0  0  0
 78155  1  0  0  0
 79 87  1  0  0  0
 79156  1  0  0  0
 79157  1  0  0  0
 80 87  1  0  0  0
 80158  1  0  0  0
 80159  1  0  0  0
 81 88  1  0  0  0
 81160  1  0  0  0
 82161  1  0  0  0
 82162  1  0  0  0
 82163  1  0  0  0
 82 86  1  0  0  0
 83 86  1  0  0  0
 83164  1  0  0  0
 83165  1  0  0  0
 83166  1  0  0  0
 84 85  1  0  0  0
 84167  1  0  0  0
 84168  1  0  0  0
 85 89  1  0  0  0
 85169  1  0  0  0
 85170  1  0  0  0
 86171  1  0  0  0
 88172  1  0  0  0
M  ISO  4   1 100  68 101  84 101  88 100
M  END
> <chiral flag>
0

> <version>
0

> <s_m_source_file>
/data/baiqing/PycharmProjects/Reinvent-master-3.2/result/LINK_invent/BTK/process_docking_weight1_custom_sum_contain_oxygen_bond_distance_aromatic_linkinvent_7_9_3/rearranged_h_0151.sdf

> <i_m_source_file_index>
50

> <r_mmod_Potential_Energy-OPLS-2005>
1.1442186832428

> <r_mmod_Stretch_Energy-OPLS-2005>
39.905403137207

> <r_mmod_Bend_Energy-OPLS-2005>
111.20287322998

> <r_mmod_Torsional_Energy-OPLS-2005>
271.603759765625

> <r_mmod_Improper_Torsional_Energy-OPLS-2005>
6.61075639724731

> <r_mmod_Van_der_Waal_Energy-OPLS-2005>
155.229598999023

> <r_mmod_Electrostatic_Energy-OPLS-2005>
-376.103912353516

> <r_mmod_Solvation_Energy-OPLS-2005>
-218.44660949707

> <b_mmod_Minimization_Converged-OPLS-2005>
0

> <r_mmod_RMS_Derivative-OPLS-2005>
1.26115524768829

$$$$
50
                    3D
 Structure written by MMmdl.
173182  0  0  1  0            999 V2000
  -30.6178  -14.8273   20.4487 C   0  0  0  0  0  0
  -30.4194  -12.5133   19.4841 C   0  0  0  0  0  0
  -29.5036  -12.5099   18.2422 C   0  0  0  0  0  0
  -28.0362  -12.3169   18.6648 C   0  0  0  0  0  0
  -27.6292  -13.2434   19.8419 C   0  0  2  0  0  0
  -28.6730  -13.2370   20.9771 C   0  0  0  0  0  0
  -25.2469  -13.8234   20.5723 C   0  0  0  0  0  0
  -24.1774  -13.0457   20.9222 C   0  0  0  0  0  0
  -24.6380  -11.6935   20.8763 C   0  0  0  0  0  0
  -23.9072  -10.4305   21.0414 C   0  0  0  0  0  0
  -24.3621   -9.4217   21.9193 C   0  0  0  0  0  0
  -23.6294   -8.2251   22.0756 C   0  0  0  0  0  0
  -22.4279   -8.0289   21.3542 C   0  0  0  0  0  0
  -21.9917   -9.0265   20.4647 C   0  0  0  0  0  0
  -22.7244  -10.2145   20.3061 C   0  0  0  0  0  0
  -21.6852   -6.0741   22.5273 C   0  0  0  0  0  0
  -21.4017   -6.5645   23.8210 C   0  0  0  0  0  0
  -21.3659   -5.6796   24.9173 C   0  0  0  0  0  0
  -21.6039   -4.3058   24.7222 C   0  0  0  0  0  0
  -21.8823   -3.8151   23.4343 C   0  0  0  0  0  0
  -21.9195   -4.6968   22.3396 C   0  0  0  0  0  0
  -22.7795  -13.5228   21.1877 C   0  0  0  0  0  0
  -22.1662   -4.2151   21.0974 F   0  0  0  0  0  0
  -21.5626   -3.4542   25.7736 F   0  0  0  0  0  0
  -29.9545  -13.6126   20.3724 N   0  0  0  0  0  0
  -26.2883  -12.9450   20.3284 N   0  0  0  0  0  0
  -25.9310  -11.6585   20.5769 N   0  0  0  0  0  0
  -22.0450  -12.8205   22.0430 N   0  0  0  0  0  0
  -25.4203  -15.1955   20.4175 N   0  0  0  0  0  0
  -31.8237  -14.8238   20.1742 O   0  0  0  0  0  0
  -21.6645   -6.8884   21.4237 O   0  0  0  0  0  0
  -22.3480  -14.5540   20.6732 O   0  0  0  0  0  0
  -24.6356  -31.8506   23.1904 C   0  0  0  0  0  0
  -25.9160  -32.4725   23.8276 C   0  0  1  0  0  0
  -27.2151  -27.2066   20.1299 C   0  0  0  0  0  0
  -25.5932  -33.8525   24.2196 N   0  0  0  0  0  0
  -23.4336  -30.4700   21.5366 C   0  0  2  0  0  0
  -24.8785  -28.9035   20.1072 C   0  0  0  0  0  0
  -22.7530  -29.4574   22.4896 C   0  0  0  0  0  0
  -18.0295  -28.1380   22.8476 C   0  0  0  0  0  0
  -24.1492  -36.7269   23.2641 C   0  0  0  0  0  0
  -25.9838  -30.7451   21.3775 C   0  0  0  0  0  0
  -26.0532  -29.3628   20.7169 C   0  0  0  0  0  0
  -27.2204  -28.5259   20.7148 C   0  0  0  0  0  0
  -26.0134  -26.8217   19.4975 C   0  0  0  0  0  0
  -24.8670  -27.6439   19.4859 C   0  0  0  0  0  0
  -23.6525  -29.7978   20.1552 C   0  0  0  0  0  0
  -25.4126  -36.3048   24.0310 C   0  0  1  0  0  0
  -20.5902  -28.3701   23.1251 C   0  0  2  0  0  0
  -20.6782  -26.9410   22.5406 C   0  0  0  0  0  0
  -19.5759  -26.6375   21.5207 C   0  0  0  0  0  0
  -18.1939  -26.7920   22.1617 C   0  0  0  0  0  0
  -19.1553  -28.8857   23.2849 C   0  0  0  0  0  0
  -18.9474  -30.1457   23.8869 C   0  0  0  0  0  0
  -17.6473  -30.6578   24.0564 C   0  0  0  0  0  0
  -25.9071  -34.9423   23.5066 C   0  0  0  0  0  0
  -16.5364  -29.9071   23.6336 C   0  0  0  0  0  0
  -16.7284  -28.6497   23.0349 C   0  0  0  0  0  0
  -26.4490  -31.6584   25.0708 C   0  0  0  0  0  0
  -25.3679  -31.3728   26.1407 C   0  0  0  0  0  0
  -27.0373  -30.2998   24.6254 C   0  0  0  0  0  0
  -27.6028  -32.4352   25.7495 C   0  0  0  0  0  0
  -27.5575  -37.1786   24.8464 C   0  0  0  0  0  0
  -21.4235  -29.3036   22.3640 N   0  0  0  0  0  0
  -26.4296  -37.3756   23.9397 N   0  0  0  0  0  0
  -24.7037  -31.0422   22.0906 N   0  0  0  0  0  0
  -23.4220  -28.8121   23.3011 O   0  0  0  0  0  0
  -28.3102  -26.3013   20.2276 O   0  0  0  0  0  0
  -26.5677  -34.8910   22.4654 O   0  0  0  0  0  0
  -23.5495  -32.1360   23.7175 O   0  0  0  0  0  0
  -29.6590  -18.5318   19.3291 C   0  0  0  0  0  0
  -28.6926  -18.1878   21.4814 C   0  0  0  0  0  0
  -27.4760  -21.0453   19.6539 C   0  0  0  0  0  0
  -30.4443  -17.1453   19.4911 C   0  0  0  0  0  0
  -29.4469  -16.7796   21.6392 C   0  0  0  0  0  0
  -29.3871  -19.3299   20.6446 C   0  0  0  0  0  0
  -28.6333  -20.8213   20.6335 C   0  0  1  0  0  0
  -28.1854  -23.4315   20.3660 C   0  0  2  0  0  0
  -29.3314  -22.2765   20.4624 C   0  0  1  0  0  0
  -27.0518  -22.5612   19.7259 C   0  0  2  0  0  0
  -31.1177  -23.8118   21.2779 C   0  0  0  0  0  0
  -29.9337  -22.4083   22.9076 C   0  0  0  0  0  0
  -24.6740  -22.4232   19.8694 C   0  0  0  0  0  0
  -28.3811  -24.9031   19.6208 C   0  0  0  0  0  0
  -29.9231  -16.0660   20.4101 N   0  0  0  0  0  0
  -30.3767  -22.5473   21.4973 N   0  3  0  0  0  0
  -25.8930  -22.7147   20.5396 O   0  0  0  0  0  0
  -31.4594  -12.6306   19.1755 H   0  0  0  0  0  0
  -30.3729  -11.5547   20.0035 H   0  0  0  0  0  0
  -29.8019  -11.7200   17.5516 H   0  0  0  0  0  0
  -29.6108  -13.4508   17.6996 H   0  0  0  0  0  0
  -27.9196  -11.2738   18.9623 H   0  0  0  0  0  0
  -27.3699  -12.4657   17.8143 H   0  0  0  0  0  0
  -27.6062  -14.2534   19.4308 H   0  0  0  0  0  0
  -28.7356  -12.2552   21.4489 H   0  0  0  0  0  0
  -28.3909  -13.9379   21.7622 H   0  0  0  0  0  0
  -25.2757   -9.5700   22.4778 H   0  0  0  0  0  0
  -24.0002   -7.4648   22.7481 H   0  0  0  0  0  0
  -21.0850   -8.8788   19.8956 H   0  0  0  0  0  0
  -22.3700  -10.9688   19.6181 H   0  0  0  0  0  0
  -21.2014   -7.6155   23.9710 H   0  0  0  0  0  0
  -21.1472   -6.0529   25.9071 H   0  0  0  0  0  0
  -22.0604   -2.7613   23.2843 H   0  0  0  0  0  0
  -22.4063  -11.9846   22.4781 H   0  0  0  0  0  0
  -21.1080  -13.1235   22.2662 H   0  0  0  0  0  0
  -24.6636  -15.8588   20.5411 H   0  0  0  0  0  0
  -26.2866  -15.6316   20.1269 H   0  0  0  0  0  0
  -26.7229  -32.5343   23.1009 H   0  0  0  0  0  0
  -25.0007  -33.9632   25.0294 H   0  0  0  0  0  0
  -22.7324  -31.2928   21.3852 H   0  0  0  0  0  0
  -23.3755  -35.9600   23.3302 H   0  0  0  0  0  0
  -24.3564  -36.8915   22.2054 H   0  0  0  0  0  0
  -23.7256  -37.6458   23.6697 H   0  0  0  0  0  0
  -26.1330  -31.5047   20.6092 H   0  0  0  0  0  0
  -26.8576  -30.7923   22.0163 H   0  0  0  0  0  0
  -28.1185  -28.8717   21.2069 H   0  0  0  0  0  0
  -25.9167  -25.8492   19.0415 H   0  0  0  0  0  0
  -23.9653  -27.2821   19.0093 H   0  0  0  0  0  0
  -23.7776  -30.5708   19.3962 H   0  0  0  0  0  0
  -22.7701  -29.2304   19.8523 H   0  0  0  0  0  0
  -25.1311  -36.1881   25.0805 H   0  0  0  0  0  0
  -20.9984  -28.3304   24.1373 H   0  0  0  0  0  0
  -20.5676  -26.2309   23.3615 H   0  0  0  0  0  0
  -21.6644  -26.7428   22.1189 H   0  0  0  0  0  0
  -19.6916  -25.6281   21.1239 H   0  0  0  0  0  0
  -19.6688  -27.3184   20.6731 H   0  0  0  0  0  0
  -17.4198  -26.6654   21.4028 H   0  0  0  0  0  0
  -18.0329  -26.0074   22.9022 H   0  0  0  0  0  0
  -19.7962  -30.7274   24.2222 H   0  0  0  0  0  0
  -17.5036  -31.6259   24.5171 H   0  0  0  0  0  0
  -15.5360  -30.2966   23.7683 H   0  0  0  0  0  0
  -15.8682  -28.0820   22.7059 H   0  0  0  0  0  0
  -24.5864  -30.7090   25.7685 H   0  0  0  0  0  0
  -24.8843  -32.2884   26.4826 H   0  0  0  0  0  0
  -25.7950  -30.8882   27.0200 H   0  0  0  0  0  0
  -26.2987  -29.6698   24.1282 H   0  0  0  0  0  0
  -27.4031  -29.7318   25.4817 H   0  0  0  0  0  0
  -27.8865  -30.4242   23.9532 H   0  0  0  0  0  0
  -27.2630  -33.3671   26.2027 H   0  0  0  0  0  0
  -28.3852  -32.6891   25.0332 H   0  0  0  0  0  0
  -28.0689  -31.8517   26.5444 H   0  0  0  0  0  0
  -28.2582  -38.0093   24.7526 H   0  0  0  0  0  0
  -28.1082  -36.2618   24.6292 H   0  0  0  0  0  0
  -27.2279  -37.1442   25.8863 H   0  0  0  0  0  0
  -20.9438  -29.8758   21.6836 H   0  0  0  0  0  0
  -26.0165  -38.2823   24.1412 H   0  0  0  0  0  0
  -28.7111  -18.3360   18.8254 H   0  0  0  0  0  0
  -30.2206  -19.1697   18.6458 H   0  0  0  0  0  0
  -28.4926  -18.5709   22.4827 H   0  0  0  0  0  0
  -27.7062  -17.9965   21.0549 H   0  0  0  0  0  0
  -26.6514  -20.3599   19.8488 H   0  0  0  0  0  0
  -27.8270  -20.8247   18.6447 H   0  0  0  0  0  0
  -31.4609  -17.3837   19.8102 H   0  0  0  0  0  0
  -30.5508  -16.7034   18.4985 H   0  0  0  0  0  0
  -28.7970  -16.1078   22.1991 H   0  0  0  0  0  0
  -30.3183  -16.9359   22.2781 H   0  0  0  0  0  0
  -30.3551  -19.4947   21.1180 H   0  0  0  0  0  0
  -28.1447  -20.8601   21.6071 H   0  0  0  0  0  0
  -27.8709  -23.6581   21.3838 H   0  0  0  0  0  0
  -29.8436  -22.2595   19.4980 H   0  0  0  0  0  0
  -26.8428  -22.9097   18.7128 H   0  0  0  0  0  0
  -31.4660  -23.9005   20.2478 H   0  0  0  0  0  0
  -31.9974  -23.8589   21.9208 H   0  0  0  0  0  0
  -30.4978  -24.6789   21.5081 H   0  0  0  0  0  0
  -29.6284  -21.3893   23.1392 H   0  0  0  0  0  0
  -29.1077  -23.0765   23.1448 H   0  0  0  0  0  0
  -30.7493  -22.6437   23.5908 H   0  0  0  0  0  0
  -23.8375  -22.5691   20.5533 H   0  0  0  0  0  0
  -24.6375  -21.3923   19.5175 H   0  0  0  0  0  0
  -24.5229  -23.0868   19.0167 H   0  0  0  0  0  0
  -27.7960  -24.9081   18.7036 H   0  0  0  0  0  0
  -29.3948  -24.8744   19.2236 H   0  0  0  0  0  0
  -31.0694  -21.8234   21.3677 H   0  0  0  0  0  0
  1 25  1  0  0  0
  1 30  2  0  0  0
  1 85  1  0  0  0
  2  3  1  0  0  0
  2 25  1  0  0  0
  2 88  1  0  0  0
  2 89  1  0  0  0
  3  4  1  0  0  0
  3 90  1  0  0  0
  3 91  1  0  0  0
  4  5  1  0  0  0
  4 92  1  0  0  0
  4 93  1  0  0  0
  5  6  1  0  0  0
  5 26  1  0  0  0
  5 94  1  0  0  0
  6 25  1  0  0  0
  6 95  1  0  0  0
  6 96  1  0  0  0
  7  8  2  0  0  0
  7 26  1  0  0  0
  7 29  1  0  0  0
  8  9  1  0  0  0
  8 22  1  0  0  0
  9 10  1  0  0  0
  9 27  2  0  0  0
 10 11  2  0  0  0
 10 15  1  0  0  0
 11 12  1  0  0  0
 11 97  1  0  0  0
 12 13  2  0  0  0
 12 98  1  0  0  0
 13 14  1  0  0  0
 13 31  1  0  0  0
 14 15  2  0  0  0
 14 99  1  0  0  0
 15100  1  0  0  0
 16 17  2  0  0  0
 16 21  1  0  0  0
 16 31  1  0  0  0
 17 18  1  0  0  0
 17101  1  0  0  0
 18 19  2  0  0  0
 18102  1  0  0  0
 19 20  1  0  0  0
 19 24  1  0  0  0
 20 21  2  0  0  0
 20103  1  0  0  0
 21 23  1  0  0  0
 22 28  1  0  0  0
 22 32  2  0  0  0
 26 27  1  0  0  0
 28104  1  0  0  0
 28105  1  0  0  0
 29106  1  0  0  0
 29107  1  0  0  0
 33 34  1  0  0  0
 33 66  1  0  0  0
 33 70  2  0  0  0
 34 36  1  0  0  0
 34 59  1  0  0  0
 34108  1  0  0  0
 35 44  2  0  0  0
 35 45  1  0  0  0
 35 68  1  0  0  0
 36 56  1  0  0  0
 36109  1  0  0  0
 37 39  1  0  0  0
 37 47  1  0  0  0
 37 66  1  0  0  0
 37110  1  0  0  0
 38 43  2  0  0  0
 38 46  1  0  0  0
 38 47  1  0  0  0
 39 64  1  0  0  0
 39 67  2  0  0  0
 40 52  1  0  0  0
 40 53  2  0  0  0
 40 58  1  0  0  0
 41111  1  0  0  0
 41112  1  0  0  0
 41113  1  0  0  0
 41 48  1  0  0  0
 42 43  1  0  0  0
 42 66  1  0  0  0
 42114  1  0  0  0
 42115  1  0  0  0
 43 44  1  0  0  0
 44116  1  0  0  0
 45 46  2  0  0  0
 45117  1  0  0  0
 46118  1  0  0  0
 47119  1  0  0  0
 47120  1  0  0  0
 48 56  1  0  0  0
 48 65  1  0  0  0
 48121  1  0  0  0
 49 50  1  0  0  0
 49 53  1  0  0  0
 49 64  1  0  0  0
 49122  1  0  0  0
 50 51  1  0  0  0
 50123  1  0  0  0
 50124  1  0  0  0
 51 52  1  0  0  0
 51125  1  0  0  0
 51126  1  0  0  0
 52127  1  0  0  0
 52128  1  0  0  0
 53 54  1  0  0  0
 54 55  2  0  0  0
 54129  1  0  0  0
 55 57  1  0  0  0
 55130  1  0  0  0
 56 69  2  0  0  0
 57 58  2  0  0  0
 57131  1  0  0  0
 58132  1  0  0  0
 59 60  1  0  0  0
 59 61  1  0  0  0
 59 62  1  0  0  0
 60133  1  0  0  0
 60134  1  0  0  0
 60135  1  0  0  0
 61136  1  0  0  0
 61137  1  0  0  0
 61138  1  0  0  0
 62139  1  0  0  0
 62140  1  0  0  0
 62141  1  0  0  0
 63 65  1  0  0  0
 63142  1  0  0  0
 63143  1  0  0  0
 63144  1  0  0  0
 64145  1  0  0  0
 65146  1  0  0  0
 68 84  1  0  0  0
 71 74  1  0  0  0
 71147  1  0  0  0
 71148  1  0  0  0
 71 76  1  0  0  0
 72 75  1  0  0  0
 72 76  1  0  0  0
 72149  1  0  0  0
 72150  1  0  0  0
 73 80  1  0  0  0
 73151  1  0  0  0
 73152  1  0  0  0
 73 77  1  0  0  0
 74 85  1  0  0  0
 74153  1  0  0  0
 74154  1  0  0  0
 75 85  1  0  0  0
 75155  1  0  0  0
 75156  1  0  0  0
 76 77  1  0  0  0
 76157  1  0  0  0
 77 79  1  0  0  0
 77158  1  0  0  0
 78 79  1  0  0  0
 78 80  1  0  0  0
 78 84  1  0  0  0
 78159  1  0  0  0
 79 86  1  0  0  0
 79160  1  0  0  0
 80 87  1  0  0  0
 80161  1  0  0  0
 81162  1  0  0  0
 81163  1  0  0  0
 81164  1  0  0  0
 81 86  1  0  0  0
 82 86  1  0  0  0
 82165  1  0  0  0
 82166  1  0  0  0
 82167  1  0  0  0
 83 87  1  0  0  0
 83168  1  0  0  0
 83169  1  0  0  0
 83170  1  0  0  0
 84171  1  0  0  0
 84172  1  0  0  0
 86173  1  0  0  0
M  CHG  1  86   1
M  ISO  4   1 100  68 101  84 101  85 100
M  END
> <chiral flag>
0

> <version>
0

> <s_m_source_file>
/data/baiqing/PycharmProjects/Reinvent-master-3.2/result/LINK_invent/BTK/process_docking_weight1_custom_sum_contain_oxygen_bond_distance_aromatic_linkinvent_7_9_3/rearranged_h_0151.sdf

> <i_m_source_file_index>
51

> <r_mmod_Potential_Energy-OPLS-2005>
541.872192382812

> <r_mmod_Stretch_Energy-OPLS-2005>
176.996002197266

> <r_mmod_Bend_Energy-OPLS-2005>
301.081695556641

> <r_mmod_Torsional_Energy-OPLS-2005>
406.197509765625

> <r_mmod_Improper_Torsional_Energy-OPLS-2005>
15.9782915115356

> <r_mmod_Van_der_Waal_Energy-OPLS-2005>
117.068809509277

> <r_mmod_Electrostatic_Energy-OPLS-2005>
-174.014617919922

> <r_mmod_Solvation_Energy-OPLS-2005>
-425.143402099609

> <b_mmod_Minimization_Converged-OPLS-2005>
0

> <r_mmod_RMS_Derivative-OPLS-2005>
1.46848285198212

$$$$
51
                    3D
 Structure written by MMmdl.
174184  0  0  1  0            999 V2000
  -30.5314  -14.9005   20.4527 C   0  0  0  0  0  0
  -30.4436  -12.5615   19.4869 C   0  0  0  0  0  0
  -29.5169  -12.5339   18.2484 C   0  0  0  0  0  0
  -28.0472  -12.3312   18.6638 C   0  0  0  0  0  0
  -27.6353  -13.2428   19.8488 C   0  0  2  0  0  0
  -28.6799  -13.2181   20.9846 C   0  0  0  0  0  0
  -25.2494  -13.8207   20.5721 C   0  0  0  0  0  0
  -24.1799  -13.0434   20.9233 C   0  0  0  0  0  0
  -24.6404  -11.6920   20.8755 C   0  0  0  0  0  0
  -23.9080  -10.4297   21.0406 C   0  0  0  0  0  0
  -24.3625   -9.4209   21.9184 C   0  0  0  0  0  0
  -23.6301   -8.2245   22.0744 C   0  0  0  0  0  0
  -22.4290   -8.0282   21.3529 C   0  0  0  0  0  0
  -21.9922   -9.0262   20.4639 C   0  0  0  0  0  0
  -22.7250  -10.2142   20.3058 C   0  0  0  0  0  0
  -21.6858   -6.0737   22.5271 C   0  0  0  0  0  0
  -21.4018   -6.5637   23.8205 C   0  0  0  0  0  0
  -21.3663   -5.6791   24.9169 C   0  0  0  0  0  0
  -21.6040   -4.3053   24.7217 C   0  0  0  0  0  0
  -21.8822   -3.8146   23.4343 C   0  0  0  0  0  0
  -21.9194   -4.6965   22.3399 C   0  0  0  0  0  0
  -22.7823  -13.5207   21.1889 C   0  0  0  0  0  0
  -22.1663   -4.2153   21.0977 F   0  0  0  0  0  0
  -21.5630   -3.4531   25.7727 F   0  0  0  0  0  0
  -29.9585  -13.6356   20.3972 N   0  0  0  0  0  0
  -26.2916  -12.9430   20.3281 N   0  0  0  0  0  0
  -25.9336  -11.6558   20.5751 N   0  0  0  0  0  0
  -22.0484  -12.8184   22.0450 N   0  0  0  0  0  0
  -25.4156  -15.1935   20.4133 N   0  0  0  0  0  0
  -31.7263  -15.0090   20.1538 O   0  0  0  0  0  0
  -21.6643   -6.8887   21.4238 O   0  0  0  0  0  0
  -22.3497  -14.5513   20.6744 O   0  0  0  0  0  0
  -24.6404  -31.8461   23.1876 C   0  0  0  0  0  0
  -25.9188  -32.4700   23.8267 C   0  0  1  0  0  0
  -27.2189  -27.1619   20.1614 C   0  0  0  0  0  0
  -25.5945  -33.8504   24.2188 N   0  0  0  0  0  0
  -23.4425  -30.4653   21.5324 C   0  0  2  0  0  0
  -24.8905  -28.8879   20.1156 C   0  0  0  0  0  0
  -22.7546  -29.4574   22.4869 C   0  0  0  0  0  0
  -18.0308  -28.1393   22.8482 C   0  0  0  0  0  0
  -24.1497  -36.7256   23.2643 C   0  0  0  0  0  0
  -25.9952  -30.7305   21.3801 C   0  0  0  0  0  0
  -26.0665  -29.3419   20.7269 C   0  0  0  0  0  0
  -27.2341  -28.4965   20.7255 C   0  0  0  0  0  0
  -26.0159  -26.7934   19.5266 C   0  0  0  0  0  0
  -24.8759  -27.6263   19.5002 C   0  0  0  0  0  0
  -23.6671  -29.7889   20.1540 C   0  0  0  0  0  0
  -25.4127  -36.3031   24.0316 C   0  0  1  0  0  0
  -20.5916  -28.3735   23.1233 C   0  0  2  0  0  0
  -20.6803  -26.9438   22.5404 C   0  0  0  0  0  0
  -19.5774  -26.6389   21.5217 C   0  0  0  0  0  0
  -18.1964  -26.7925   22.1640 C   0  0  0  0  0  0
  -19.1562  -28.8882   23.2847 C   0  0  0  0  0  0
  -18.9479  -30.1483   23.8868 C   0  0  0  0  0  0
  -17.6476  -30.6599   24.0537 C   0  0  0  0  0  0
  -25.9073  -34.9410   23.5062 C   0  0  0  0  0  0
  -16.5370  -29.9082   23.6325 C   0  0  0  0  0  0
  -16.7296  -28.6492   23.0365 C   0  0  0  0  0  0
  -26.4521  -31.6558   25.0701 C   0  0  0  0  0  0
  -25.3709  -31.3746   26.1395 C   0  0  0  0  0  0
  -27.0388  -30.2956   24.6264 C   0  0  0  0  0  0
  -27.6055  -32.4322   25.7487 C   0  0  0  0  0  0
  -27.5577  -37.1784   24.8465 C   0  0  0  0  0  0
  -21.4241  -29.3067   22.3605 N   0  0  0  0  0  0
  -26.4291  -37.3741   23.9403 N   0  0  0  0  0  0
  -24.7122  -31.0346   22.0894 N   0  0  0  0  0  0
  -23.4191  -28.8138   23.3028 O   0  0  0  0  0  0
  -28.3120  -26.2349   20.1795 O   0  0  0  0  0  0
  -26.5659  -34.8906   22.4642 O   0  0  0  0  0  0
  -23.5536  -32.1330   23.7115 O   0  0  0  0  0  0
  -27.4289  -19.0539   23.1078 C   0  0  0  0  0  0
  -28.2466  -18.0623   22.5213 C   0  0  0  0  0  0
  -27.6538  -20.2279   22.4677 C   0  0  0  0  0  0
  -28.9187  -18.5921   21.4312 C   0  0  0  0  0  0
  -26.4749  -18.8719   24.2788 C   0  0  0  0  0  0
  -27.0019  -21.5004   22.9649 C   0  0  0  0  0  0
  -25.6658  -21.2238   23.6644 C   0  0  0  0  0  0
  -27.7807  -22.0722   19.7616 C   0  0  0  0  0  0
  -29.5985  -22.5376   21.4495 C   0  0  0  0  0  0
  -27.8470  -23.6420   19.3646 C   0  0  0  0  0  0
  -29.5430  -24.0773   20.9902 C   0  0  0  0  0  0
  -25.8386  -20.1866   24.7892 C   0  0  1  0  0  0
  -28.9560  -21.3564   20.5844 C   0  0  1  0  0  0
  -28.1922  -24.7180   20.4796 C   0  0  1  0  0  0
  -28.3056  -16.6582   23.0915 C   0  0  0  0  0  0
  -24.5137  -19.9367   25.5231 C   0  0  0  0  0  0
  -29.8706  -17.6005   20.5668 C   0  0  0  0  0  0
  -28.5719  -20.0609   21.4044 N   0  0  0  0  0  0
  -29.7062  -16.0318   20.6456 N   0  0  0  0  0  0
  -31.4750  -12.7312   19.1743 H   0  0  0  0  0  0
  -30.4418  -11.5964   19.9964 H   0  0  0  0  0  0
  -29.8249  -11.7443   17.5610 H   0  0  0  0  0  0
  -29.6137  -13.4718   17.6986 H   0  0  0  0  0  0
  -27.9279  -11.2850   18.9464 H   0  0  0  0  0  0
  -27.3863  -12.4966   17.8116 H   0  0  0  0  0  0
  -27.6137  -14.2567   19.4479 H   0  0  0  0  0  0
  -28.7570  -12.2231   21.4249 H   0  0  0  0  0  0
  -28.3881  -13.8855   21.7948 H   0  0  0  0  0  0
  -25.2771   -9.5684   22.4761 H   0  0  0  0  0  0
  -24.0002   -7.4637   22.7464 H   0  0  0  0  0  0
  -21.0849   -8.8780   19.8950 H   0  0  0  0  0  0
  -22.3699  -10.9680   19.6167 H   0  0  0  0  0  0
  -21.2012   -7.6144   23.9707 H   0  0  0  0  0  0
  -21.1482   -6.0521   25.9067 H   0  0  0  0  0  0
  -22.0602   -2.7610   23.2832 H   0  0  0  0  0  0
  -22.4089  -11.9827   22.4820 H   0  0  0  0  0  0
  -21.1101  -13.1185   22.2666 H   0  0  0  0  0  0
  -24.6472  -15.8429   20.5433 H   0  0  0  0  0  0
  -26.2525  -15.6409   20.0640 H   0  0  0  0  0  0
  -26.7257  -32.5322   23.1005 H   0  0  0  0  0  0
  -25.0065  -33.9621   25.0314 H   0  0  0  0  0  0
  -22.7451  -31.2907   21.3765 H   0  0  0  0  0  0
  -23.3759  -35.9589   23.3298 H   0  0  0  0  0  0
  -24.3579  -36.8891   22.2058 H   0  0  0  0  0  0
  -23.7257  -37.6454   23.6685 H   0  0  0  0  0  0
  -26.1460  -31.4861   20.6079 H   0  0  0  0  0  0
  -26.8672  -30.7801   22.0210 H   0  0  0  0  0  0
  -28.1382  -28.8433   21.2062 H   0  0  0  0  0  0
  -25.9397  -25.8292   19.0501 H   0  0  0  0  0  0
  -23.9766  -27.2716   19.0141 H   0  0  0  0  0  0
  -23.8014  -30.5611   19.3950 H   0  0  0  0  0  0
  -22.7827  -29.2279   19.8459 H   0  0  0  0  0  0
  -25.1317  -36.1857   25.0808 H   0  0  0  0  0  0
  -21.0011  -28.3342   24.1350 H   0  0  0  0  0  0
  -20.5706  -26.2355   23.3625 H   0  0  0  0  0  0
  -21.6671  -26.7466   22.1194 H   0  0  0  0  0  0
  -19.6945  -25.6292   21.1265 H   0  0  0  0  0  0
  -19.6697  -27.3181   20.6728 H   0  0  0  0  0  0
  -17.4216  -26.6634   21.4069 H   0  0  0  0  0  0
  -18.0393  -26.0084   22.9070 H   0  0  0  0  0  0
  -19.7957  -30.7301   24.2227 H   0  0  0  0  0  0
  -17.5037  -31.6280   24.5136 H   0  0  0  0  0  0
  -15.5370  -30.2981   23.7656 H   0  0  0  0  0  0
  -15.8696  -28.0793   22.7105 H   0  0  0  0  0  0
  -24.5895  -30.7088   25.7711 H   0  0  0  0  0  0
  -24.8896  -32.2932   26.4759 H   0  0  0  0  0  0
  -25.7988  -30.8957   27.0207 H   0  0  0  0  0  0
  -26.3003  -29.6674   24.1274 H   0  0  0  0  0  0
  -27.4011  -29.7255   25.4828 H   0  0  0  0  0  0
  -27.8900  -30.4194   23.9568 H   0  0  0  0  0  0
  -27.2644  -33.3634   26.2016 H   0  0  0  0  0  0
  -28.3888  -32.6854   25.0333 H   0  0  0  0  0  0
  -28.0696  -31.8478   26.5437 H   0  0  0  0  0  0
  -28.2586  -38.0088   24.7501 H   0  0  0  0  0  0
  -28.1079  -36.2613   24.6304 H   0  0  0  0  0  0
  -27.2290  -37.1443   25.8867 H   0  0  0  0  0  0
  -20.9445  -29.8764   21.6777 H   0  0  0  0  0  0
  -26.0156  -38.2809   24.1398 H   0  0  0  0  0  0
  -26.9865  -18.3785   25.1056 H   0  0  0  0  0  0
  -25.6924  -18.1887   23.9457 H   0  0  0  0  0  0
  -26.8563  -22.2671   22.2156 H   0  0  0  0  0  0
  -27.6441  -21.9493   23.7223 H   0  0  0  0  0  0
  -24.9386  -20.8630   22.9347 H   0  0  0  0  0  0
  -25.2665  -22.1552   24.0683 H   0  0  0  0  0  0
  -27.6814  -21.5159   18.8294 H   0  0  0  0  0  0
  -26.8169  -21.8899   20.2270 H   0  0  0  0  0  0
  -29.2284  -22.5188   22.4646 H   0  0  0  0  0  0
  -30.6494  -22.2812   21.5841 H   0  0  0  0  0  0
  -26.8951  -23.8995   18.9039 H   0  0  0  0  0  0
  -28.5782  -23.7484   18.5622 H   0  0  0  0  0  0
  -30.2912  -24.2120   20.2089 H   0  0  0  0  0  0
  -29.9044  -24.6817   21.8221 H   0  0  0  0  0  0
  -26.5373  -20.6224   25.5058 H   0  0  0  0  0  0
  -29.7108  -21.0515   19.8581 H   0  0  0  0  0  0
  -27.4538  -24.6264   21.2774 H   0  0  0  0  0  0
  -27.8763  -16.5981   24.0898 H   0  0  0  0  0  0
  -29.3350  -16.3146   23.1888 H   0  0  0  0  0  0
  -27.7409  -15.9678   22.4667 H   0  0  0  0  0  0
  -23.7624  -19.5184   24.8526 H   0  0  0  0  0  0
  -24.1121  -20.8633   25.9349 H   0  0  0  0  0  0
  -24.6454  -19.2416   26.3529 H   0  0  0  0  0  0
  -30.9057  -17.8250   20.8242 H   0  0  0  0  0  0
  -29.7762  -17.8726   19.5155 H   0  0  0  0  0  0
  -28.7540  -15.7688   20.8403 H   0  0  0  0  0  0
  1 25  1  0  0  0
  1 30  2  0  0  0
  1 89  1  0  0  0
  2  3  1  0  0  0
  2 25  1  0  0  0
  2 90  1  0  0  0
  2 91  1  0  0  0
  3  4  1  0  0  0
  3 92  1  0  0  0
  3 93  1  0  0  0
  4  5  1  0  0  0
  4 94  1  0  0  0
  4 95  1  0  0  0
  5  6  1  0  0  0
  5 26  1  0  0  0
  5 96  1  0  0  0
  6 25  1  0  0  0
  6 97  1  0  0  0
  6 98  1  0  0  0
  7  8  2  0  0  0
  7 26  1  0  0  0
  7 29  1  0  0  0
  8  9  1  0  0  0
  8 22  1  0  0  0
  9 10  1  0  0  0
  9 27  2  0  0  0
 10 11  2  0  0  0
 10 15  1  0  0  0
 11 12  1  0  0  0
 11 99  1  0  0  0
 12 13  2  0  0  0
 12100  1  0  0  0
 13 14  1  0  0  0
 13 31  1  0  0  0
 14 15  2  0  0  0
 14101  1  0  0  0
 15102  1  0  0  0
 16 17  2  0  0  0
 16 21  1  0  0  0
 16 31  1  0  0  0
 17 18  1  0  0  0
 17103  1  0  0  0
 18 19  2  0  0  0
 18104  1  0  0  0
 19 20  1  0  0  0
 19 24  1  0  0  0
 20 21  2  0  0  0
 20105  1  0  0  0
 21 23  1  0  0  0
 22 28  1  0  0  0
 22 32  2  0  0  0
 26 27  1  0  0  0
 28106  1  0  0  0
 28107  1  0  0  0
 29108  1  0  0  0
 29109  1  0  0  0
 33 34  1  0  0  0
 33 66  1  0  0  0
 33 70  2  0  0  0
 34 36  1  0  0  0
 34 59  1  0  0  0
 34110  1  0  0  0
 35 44  2  0  0  0
 35 45  1  0  0  0
 35 68  1  0  0  0
 36 56  1  0  0  0
 36111  1  0  0  0
 37 39  1  0  0  0
 37 47  1  0  0  0
 37 66  1  0  0  0
 37112  1  0  0  0
 38 43  2  0  0  0
 38 46  1  0  0  0
 38 47  1  0  0  0
 39 64  1  0  0  0
 39 67  2  0  0  0
 40 52  1  0  0  0
 40 53  2  0  0  0
 40 58  1  0  0  0
 41113  1  0  0  0
 41114  1  0  0  0
 41115  1  0  0  0
 41 48  1  0  0  0
 42 43  1  0  0  0
 42 66  1  0  0  0
 42116  1  0  0  0
 42117  1  0  0  0
 43 44  1  0  0  0
 44118  1  0  0  0
 45 46  2  0  0  0
 45119  1  0  0  0
 46120  1  0  0  0
 47121  1  0  0  0
 47122  1  0  0  0
 48 56  1  0  0  0
 48 65  1  0  0  0
 48123  1  0  0  0
 49 50  1  0  0  0
 49 53  1  0  0  0
 49 64  1  0  0  0
 49124  1  0  0  0
 50 51  1  0  0  0
 50125  1  0  0  0
 50126  1  0  0  0
 51 52  1  0  0  0
 51127  1  0  0  0
 51128  1  0  0  0
 52129  1  0  0  0
 52130  1  0  0  0
 53 54  1  0  0  0
 54 55  2  0  0  0
 54131  1  0  0  0
 55 57  1  0  0  0
 55132  1  0  0  0
 56 69  2  0  0  0
 57 58  2  0  0  0
 57133  1  0  0  0
 58134  1  0  0  0
 59 60  1  0  0  0
 59 61  1  0  0  0
 59 62  1  0  0  0
 60135  1  0  0  0
 60136  1  0  0  0
 60137  1  0  0  0
 61138  1  0  0  0
 61139  1  0  0  0
 61140  1  0  0  0
 62141  1  0  0  0
 62142  1  0  0  0
 62143  1  0  0  0
 63 65  1  0  0  0
 63144  1  0  0  0
 63145  1  0  0  0
 63146  1  0  0  0
 64147  1  0  0  0
 65148  1  0  0  0
 68 84  1  0  0  0
 71 72  1  0  0  0
 71 73  2  0  0  0
 71 75  1  0  0  0
 72 74  2  0  0  0
 72 85  1  0  0  0
 73 76  1  0  0  0
 73 88  1  0  0  0
 74 87  1  0  0  0
 74 88  1  0  0  0
 75 82  1  0  0  0
 75149  1  0  0  0
 75150  1  0  0  0
 76 77  1  0  0  0
 76151  1  0  0  0
 76152  1  0  0  0
 77 82  1  0  0  0
 77153  1  0  0  0
 77154  1  0  0  0
 78 80  1  0  0  0
 78 83  1  0  0  0
 78155  1  0  0  0
 78156  1  0  0  0
 79 81  1  0  0  0
 79 83  1  0  0  0
 79157  1  0  0  0
 79158  1  0  0  0
 80 84  1  0  0  0
 80159  1  0  0  0
 80160  1  0  0  0
 81 84  1  0  0  0
 81161  1  0  0  0
 81162  1  0  0  0
 82 86  1  0  0  0
 82163  1  0  0  0
 83 88  1  0  0  0
 83164  1  0  0  0
 84165  1  0  0  0
 85166  1  0  0  0
 85167  1  0  0  0
 85168  1  0  0  0
 86169  1  0  0  0
 86170  1  0  0  0
 86171  1  0  0  0
 87 89  1  0  0  0
 87172  1  0  0  0
 87173  1  0  0  0
 89174  1  0  0  0
M  ISO  4   1 100  68 101  84 101  89 100
M  END
> <chiral flag>
0

> <version>
0

> <s_m_source_file>
/data/baiqing/PycharmProjects/Reinvent-master-3.2/result/LINK_invent/BTK/process_docking_weight1_custom_sum_contain_oxygen_bond_distance_aromatic_linkinvent_7_9_3/rearranged_h_0151.sdf

> <i_m_source_file_index>
52

> <r_mmod_Potential_Energy-OPLS-2005>
450.823699951172

> <r_mmod_Stretch_Energy-OPLS-2005>
235.998031616211

> <r_mmod_Bend_Energy-OPLS-2005>
305.349182128906

> <r_mmod_Torsional_Energy-OPLS-2005>
276.695343017578

> <r_mmod_Improper_Torsional_Energy-OPLS-2005>
4.48849678039551

> <r_mmod_Van_der_Waal_Energy-OPLS-2005>
130.120346069336

> <r_mmod_Electrostatic_Energy-OPLS-2005>
-456.367309570312

> <r_mmod_Solvation_Energy-OPLS-2005>
-203.828552246094

> <b_mmod_Minimization_Converged-OPLS-2005>
0

> <r_mmod_RMS_Derivative-OPLS-2005>
1.7702888250351

$$$$
52
                    3D
 Structure written by MMmdl.
165174  0  0  1  0            999 V2000
  -30.5435  -14.8467   20.4457 C   0  0  0  0  0  0
  -30.4515  -12.5150   19.4907 C   0  0  0  0  0  0
  -29.5268  -12.5179   18.2504 C   0  0  0  0  0  0
  -28.0551  -12.3172   18.6638 C   0  0  0  0  0  0
  -27.6455  -13.2302   19.8494 C   0  0  2  0  0  0
  -28.6866  -13.1920   20.9895 C   0  0  0  0  0  0
  -25.2558  -13.8190   20.5688 C   0  0  0  0  0  0
  -24.1845  -13.0450   20.9182 C   0  0  0  0  0  0
  -24.6426  -11.6912   20.8751 C   0  0  0  0  0  0
  -23.9091  -10.4298   21.0413 C   0  0  0  0  0  0
  -24.3628   -9.4199   21.9190 C   0  0  0  0  0  0
  -23.6288   -8.2251   22.0773 C   0  0  0  0  0  0
  -22.4273   -8.0292   21.3558 C   0  0  0  0  0  0
  -21.9907   -9.0270   20.4665 C   0  0  0  0  0  0
  -22.7261  -10.2136   20.3070 C   0  0  0  0  0  0
  -21.6856   -6.0742   22.5281 C   0  0  0  0  0  0
  -21.4017   -6.5643   23.8210 C   0  0  0  0  0  0
  -21.3647   -5.6792   24.9170 C   0  0  0  0  0  0
  -21.6048   -4.3057   24.7217 C   0  0  0  0  0  0
  -21.8816   -3.8145   23.4340 C   0  0  0  0  0  0
  -21.9193   -4.6972   22.3395 C   0  0  0  0  0  0
  -22.7866  -13.5237   21.1829 C   0  0  0  0  0  0
  -22.1666   -4.2146   21.0979 F   0  0  0  0  0  0
  -21.5612   -3.4541   25.7734 F   0  0  0  0  0  0
  -29.9815  -13.5806   20.4123 N   0  0  0  0  0  0
  -26.2973  -12.9386   20.3261 N   0  0  0  0  0  0
  -25.9357  -11.6530   20.5745 N   0  0  0  0  0  0
  -22.0510  -12.8261   22.0384 N   0  0  0  0  0  0
  -25.4266  -15.1925   20.4126 N   0  0  0  0  0  0
  -31.7204  -14.9911   20.0960 O   0  0  0  0  0  0
  -21.6647   -6.8893   21.4245 O   0  0  0  0  0  0
  -22.3542  -14.5555   20.6702 O   0  0  0  0  0  0
  -24.6399  -31.8479   23.1885 C   0  0  0  0  0  0
  -25.9201  -32.4691   23.8258 C   0  0  1  0  0  0
  -27.2133  -27.1879   20.1396 C   0  0  0  0  0  0
  -25.5979  -33.8497   24.2187 N   0  0  0  0  0  0
  -23.4366  -30.4708   21.5337 C   0  0  2  0  0  0
  -24.8819  -28.8985   20.1112 C   0  0  0  0  0  0
  -22.7487  -29.4622   22.4872 C   0  0  0  0  0  0
  -18.0281  -28.1367   22.8468 C   0  0  0  0  0  0
  -24.1504  -36.7268   23.2638 C   0  0  0  0  0  0
  -25.9874  -30.7368   21.3768 C   0  0  0  0  0  0
  -26.0583  -29.3505   20.7234 C   0  0  0  0  0  0
  -27.2289  -28.5103   20.7213 C   0  0  0  0  0  0
  -26.0125  -26.8186   19.4963 C   0  0  0  0  0  0
  -24.8675  -27.6414   19.4879 C   0  0  0  0  0  0
  -23.6570  -29.7961   20.1539 C   0  0  0  0  0  0
  -25.4127  -36.3012   24.0308 C   0  0  1  0  0  0
  -20.5881  -28.3722   23.1229 C   0  0  2  0  0  0
  -20.6793  -26.9457   22.5352 C   0  0  0  0  0  0
  -19.5766  -26.6365   21.5177 C   0  0  0  0  0  0
  -18.1942  -26.7915   22.1584 C   0  0  0  0  0  0
  -19.1535  -28.8860   23.2839 C   0  0  0  0  0  0
  -18.9437  -30.1452   23.8867 C   0  0  0  0  0  0
  -17.6440  -30.6557   24.0556 C   0  0  0  0  0  0
  -25.9087  -34.9396   23.5047 C   0  0  0  0  0  0
  -16.5330  -29.9066   23.6315 C   0  0  0  0  0  0
  -16.7261  -28.6484   23.0339 C   0  0  0  0  0  0
  -26.4533  -31.6515   25.0677 C   0  0  0  0  0  0
  -25.3779  -31.3718   26.1428 C   0  0  0  0  0  0
  -27.0420  -30.2927   24.6212 C   0  0  0  0  0  0
  -27.6050  -32.4282   25.7470 C   0  0  0  0  0  0
  -27.5564  -37.1799   24.8469 C   0  0  0  0  0  0
  -21.4188  -29.3119   22.3659 N   0  0  0  0  0  0
  -26.4275  -37.3731   23.9409 N   0  0  0  0  0  0
  -24.7075  -31.0401   22.0880 N   0  0  0  0  0  0
  -23.4161  -28.8185   23.3019 O   0  0  0  0  0  0
  -28.2727  -26.2307   20.1737 O   0  0  0  0  0  0
  -26.5656  -34.8889   22.4615 O   0  0  0  0  0  0
  -23.5533  -32.1337   23.7126 O   0  0  0  0  0  0
  -28.9366  -17.9558   19.3905 C   0  0  0  0  0  0
  -30.0564  -18.4395   21.4201 C   0  0  0  0  0  0
  -28.5790  -19.3490   19.2439 C   0  0  0  0  0  0
  -28.9073  -20.3649   20.2150 C   0  0  0  0  0  0
  -29.6661  -17.4166   20.4914 C   0  0  0  0  0  0
  -29.7117  -19.8530   21.2872 C   0  0  0  0  0  0
  -29.0688  -24.2170   21.2942 C   0  0  0  0  0  0
  -28.7239  -23.3294   20.1234 C   0  0  2  0  0  0
  -27.9397  -24.7523   20.4280 C   0  0  2  0  0  0
  -27.7312  -19.6998   18.0312 C   0  0  0  0  0  0
  -30.6255  -21.6896   24.3284 C   0  0  0  0  0  0
  -30.5160  -20.4113   23.4933 C   0  0  0  0  0  0
  -27.1796  -21.6990   21.5361 C   0  0  0  0  0  0
  -28.1210  -21.8063   20.3067 C   0  0  2  0  0  0
  -29.7056  -15.9264   20.7612 N   0  0  0  0  0  0
  -25.9653  -22.4122   21.3740 O   0  0  0  0  0  0
  -30.0738  -20.8106   22.2080 O   0  0  0  0  0  0
  -31.4885  -12.6638   19.1885 H   0  0  0  0  0  0
  -30.4212  -11.5447   19.9891 H   0  0  0  0  0  0
  -29.8276  -11.7372   17.5512 H   0  0  0  0  0  0
  -29.6295  -13.4613   17.7132 H   0  0  0  0  0  0
  -27.9368  -11.2726   18.9535 H   0  0  0  0  0  0
  -27.3899  -12.4772   17.8149 H   0  0  0  0  0  0
  -27.6298  -14.2443   19.4482 H   0  0  0  0  0  0
  -28.7449  -12.1999   21.4387 H   0  0  0  0  0  0
  -28.3970  -13.8672   21.7953 H   0  0  0  0  0  0
  -25.2774   -9.5664   22.4747 H   0  0  0  0  0  0
  -23.9986   -7.4653   22.7504 H   0  0  0  0  0  0
  -21.0820   -8.8813   19.8977 H   0  0  0  0  0  0
  -22.3738  -10.9677   19.6166 H   0  0  0  0  0  0
  -21.2035   -7.6149   23.9712 H   0  0  0  0  0  0
  -21.1456   -6.0525   25.9071 H   0  0  0  0  0  0
  -22.0610   -2.7603   23.2852 H   0  0  0  0  0  0
  -22.4117  -11.9917   22.4755 H   0  0  0  0  0  0
  -21.1152  -13.1317   22.2622 H   0  0  0  0  0  0
  -24.6585  -15.8447   20.5305 H   0  0  0  0  0  0
  -26.2727  -15.6328   20.0781 H   0  0  0  0  0  0
  -26.7251  -32.5318   23.0969 H   0  0  0  0  0  0
  -25.0136  -33.9621   25.0335 H   0  0  0  0  0  0
  -22.7388  -31.2966   21.3796 H   0  0  0  0  0  0
  -23.3740  -35.9635   23.3286 H   0  0  0  0  0  0
  -24.3580  -36.8899   22.2048 H   0  0  0  0  0  0
  -23.7296  -37.6481   23.6680 H   0  0  0  0  0  0
  -26.1359  -31.4879   20.6004 H   0  0  0  0  0  0
  -26.8603  -30.7874   22.0150 H   0  0  0  0  0  0
  -28.1267  -28.8488   21.2210 H   0  0  0  0  0  0
  -25.9390  -25.8535   19.0137 H   0  0  0  0  0  0
  -23.9656  -27.2820   19.0119 H   0  0  0  0  0  0
  -23.7937  -30.5668   19.3952 H   0  0  0  0  0  0
  -22.7694  -29.2388   19.8471 H   0  0  0  0  0  0
  -25.1301  -36.1811   25.0788 H   0  0  0  0  0  0
  -20.9929  -28.3296   24.1380 H   0  0  0  0  0  0
  -20.5765  -26.2313   23.3548 H   0  0  0  0  0  0
  -21.6648  -26.7530   22.1110 H   0  0  0  0  0  0
  -19.6963  -25.6246   21.1303 H   0  0  0  0  0  0
  -19.6739  -27.3103   20.6652 H   0  0  0  0  0  0
  -17.4222  -26.6713   21.3950 H   0  0  0  0  0  0
  -18.0329  -26.0049   22.8958 H   0  0  0  0  0  0
  -19.7903  -30.7275   24.2225 H   0  0  0  0  0  0
  -17.4981  -31.6234   24.5169 H   0  0  0  0  0  0
  -15.5324  -30.2953   23.7644 H   0  0  0  0  0  0
  -15.8678  -28.0778   22.7081 H   0  0  0  0  0  0
  -24.5917  -30.7065   25.7841 H   0  0  0  0  0  0
  -24.9004  -32.2902   26.4818 H   0  0  0  0  0  0
  -25.8101  -30.8960   27.0227 H   0  0  0  0  0  0
  -26.3098  -29.6683   24.1060 H   0  0  0  0  0  0
  -27.3948  -29.7152   25.4777 H   0  0  0  0  0  0
  -27.8979  -30.4225   23.9584 H   0  0  0  0  0  0
  -27.2647  -33.3641   26.1926 H   0  0  0  0  0  0
  -28.3934  -32.6704   25.0334 H   0  0  0  0  0  0
  -28.0610  -31.8463   26.5487 H   0  0  0  0  0  0
  -28.2570  -38.0103   24.7464 H   0  0  0  0  0  0
  -28.1047  -36.2617   24.6322 H   0  0  0  0  0  0
  -27.2270  -37.1464   25.8871 H   0  0  0  0  0  0
  -20.9378  -29.8868   21.6884 H   0  0  0  0  0  0
  -26.0120  -38.2777   24.1439 H   0  0  0  0  0  0
  -28.5680  -17.2543   18.6525 H   0  0  0  0  0  0
  -30.5861  -18.1118   22.3011 H   0  0  0  0  0  0
  -30.0345  -24.7137   21.2387 H   0  0  0  0  0  0
  -28.8044  -23.8861   22.2935 H   0  0  0  0  0  0
  -29.3838  -23.3900   19.2586 H   0  0  0  0  0  0
  -26.9442  -24.6774   20.8587 H   0  0  0  0  0  0
  -27.8031  -18.9340   17.2585 H   0  0  0  0  0  0
  -26.6820  -19.7954   18.3164 H   0  0  0  0  0  0
  -28.0535  -20.6373   17.5759 H   0  0  0  0  0  0
  -30.8455  -21.4599   25.3711 H   0  0  0  0  0  0
  -29.6983  -22.2647   24.3000 H   0  0  0  0  0  0
  -31.4223  -22.3297   23.9482 H   0  0  0  0  0  0
  -29.7934  -19.7286   23.9425 H   0  0  0  0  0  0
  -31.4843  -19.9124   23.4393 H   0  0  0  0  0  0
  -27.6825  -21.9839   22.4611 H   0  0  0  0  0  0
  -26.8849  -20.6572   21.6783 H   0  0  0  0  0  0
  -27.4396  -21.7574   19.4620 H   0  0  0  0  0  0
  -28.8143  -15.5718   21.0738 H   0  0  0  0  0  0
  -25.4064  -22.2022   22.1170 H   0  0  0  0  0  0
  1 25  1  0  0  0
  1 30  2  0  0  0
  1 85  1  0  0  0
  2  3  1  0  0  0
  2 25  1  0  0  0
  2 88  1  0  0  0
  2 89  1  0  0  0
  3  4  1  0  0  0
  3 90  1  0  0  0
  3 91  1  0  0  0
  4  5  1  0  0  0
  4 92  1  0  0  0
  4 93  1  0  0  0
  5  6  1  0  0  0
  5 26  1  0  0  0
  5 94  1  0  0  0
  6 25  1  0  0  0
  6 95  1  0  0  0
  6 96  1  0  0  0
  7  8  2  0  0  0
  7 26  1  0  0  0
  7 29  1  0  0  0
  8  9  1  0  0  0
  8 22  1  0  0  0
  9 10  1  0  0  0
  9 27  2  0  0  0
 10 11  2  0  0  0
 10 15  1  0  0  0
 11 12  1  0  0  0
 11 97  1  0  0  0
 12 13  2  0  0  0
 12 98  1  0  0  0
 13 14  1  0  0  0
 13 31  1  0  0  0
 14 15  2  0  0  0
 14 99  1  0  0  0
 15100  1  0  0  0
 16 17  2  0  0  0
 16 21  1  0  0  0
 16 31  1  0  0  0
 17 18  1  0  0  0
 17101  1  0  0  0
 18 19  2  0  0  0
 18102  1  0  0  0
 19 20  1  0  0  0
 19 24  1  0  0  0
 20 21  2  0  0  0
 20103  1  0  0  0
 21 23  1  0  0  0
 22 28  1  0  0  0
 22 32  2  0  0  0
 26 27  1  0  0  0
 28104  1  0  0  0
 28105  1  0  0  0
 29106  1  0  0  0
 29107  1  0  0  0
 33 34  1  0  0  0
 33 66  1  0  0  0
 33 70  2  0  0  0
 34 36  1  0  0  0
 34 59  1  0  0  0
 34108  1  0  0  0
 35 44  2  0  0  0
 35 45  1  0  0  0
 35 68  1  0  0  0
 36 56  1  0  0  0
 36109  1  0  0  0
 37 39  1  0  0  0
 37 47  1  0  0  0
 37 66  1  0  0  0
 37110  1  0  0  0
 38 43  2  0  0  0
 38 46  1  0  0  0
 38 47  1  0  0  0
 39 64  1  0  0  0
 39 67  2  0  0  0
 40 52  1  0  0  0
 40 53  2  0  0  0
 40 58  1  0  0  0
 41111  1  0  0  0
 41112  1  0  0  0
 41113  1  0  0  0
 41 48  1  0  0  0
 42 43  1  0  0  0
 42 66  1  0  0  0
 42114  1  0  0  0
 42115  1  0  0  0
 43 44  1  0  0  0
 44116  1  0  0  0
 45 46  2  0  0  0
 45117  1  0  0  0
 46118  1  0  0  0
 47119  1  0  0  0
 47120  1  0  0  0
 48 56  1  0  0  0
 48 65  1  0  0  0
 48121  1  0  0  0
 49 50  1  0  0  0
 49 53  1  0  0  0
 49 64  1  0  0  0
 49122  1  0  0  0
 50 51  1  0  0  0
 50123  1  0  0  0
 50124  1  0  0  0
 51 52  1  0  0  0
 51125  1  0  0  0
 51126  1  0  0  0
 52127  1  0  0  0
 52128  1  0  0  0
 53 54  1  0  0  0
 54 55  2  0  0  0
 54129  1  0  0  0
 55 57  1  0  0  0
 55130  1  0  0  0
 56 69  2  0  0  0
 57 58  2  0  0  0
 57131  1  0  0  0
 58132  1  0  0  0
 59 60  1  0  0  0
 59 61  1  0  0  0
 59 62  1  0  0  0
 60133  1  0  0  0
 60134  1  0  0  0
 60135  1  0  0  0
 61136  1  0  0  0
 61137  1  0  0  0
 61138  1  0  0  0
 62139  1  0  0  0
 62140  1  0  0  0
 62141  1  0  0  0
 63 65  1  0  0  0
 63142  1  0  0  0
 63143  1  0  0  0
 63144  1  0  0  0
 64145  1  0  0  0
 65146  1  0  0  0
 68 79  1  0  0  0
 71 73  2  0  0  0
 71 75  1  0  0  0
 71147  1  0  0  0
 72 75  2  0  0  0
 72 76  1  0  0  0
 72148  1  0  0  0
 73 74  1  0  0  0
 73 80  1  0  0  0
 74 76  2  0  0  0
 74 84  1  0  0  0
 75 85  1  0  0  0
 76 87  1  0  0  0
 77 79  1  0  0  0
 77149  1  0  0  0
 77150  1  0  0  0
 77 78  1  0  0  0
 78 79  1  0  0  0
 78 84  1  0  0  0
 78151  1  0  0  0
 79152  1  0  0  0
 80153  1  0  0  0
 80154  1  0  0  0
 80155  1  0  0  0
 81 82  1  0  0  0
 81156  1  0  0  0
 81157  1  0  0  0
 81158  1  0  0  0
 82 87  1  0  0  0
 82159  1  0  0  0
 82160  1  0  0  0
 83 86  1  0  0  0
 83161  1  0  0  0
 83162  1  0  0  0
 83 84  1  0  0  0
 84163  1  0  0  0
 85164  1  0  0  0
 86165  1  0  0  0
M  ISO  4   1 100  68 101  79 101  85 100
M  END
> <chiral flag>
0

> <version>
0

> <s_m_source_file>
/data/baiqing/PycharmProjects/Reinvent-master-3.2/result/LINK_invent/BTK/process_docking_weight1_custom_sum_contain_oxygen_bond_distance_aromatic_linkinvent_7_9_3/rearranged_h_0151.sdf

> <i_m_source_file_index>
53

> <r_mmod_Potential_Energy-OPLS-2005>
448.225891113281

> <r_mmod_Stretch_Energy-OPLS-2005>
192.385482788086

> <r_mmod_Bend_Energy-OPLS-2005>
247.460708618164

> <r_mmod_Torsional_Energy-OPLS-2005>
316.145568847656

> <r_mmod_Improper_Torsional_Energy-OPLS-2005>
9.13692474365234

> <r_mmod_Van_der_Waal_Energy-OPLS-2005>
134.027679443359

> <r_mmod_Electrostatic_Energy-OPLS-2005>
-361.990539550781

> <r_mmod_Solvation_Energy-OPLS-2005>
-227.228439331055

> <b_mmod_Minimization_Converged-OPLS-2005>
0

> <r_mmod_RMS_Derivative-OPLS-2005>
3.95307016372681

$$$$
53
                    3D
 Structure written by MMmdl.
165174  0  0  1  0            999 V2000
  -30.6644  -14.5438   20.5214 C   0  0  0  0  0  0
  -30.4297  -12.3381   19.4378 C   0  0  0  0  0  0
  -29.5029  -12.5040   18.2144 C   0  0  0  0  0  0
  -28.0244  -12.3520   18.6259 C   0  0  0  0  0  0
  -27.6565  -13.2107   19.8656 C   0  0  2  0  0  0
  -28.6994  -13.0343   20.9939 C   0  0  0  0  0  0
  -25.2565  -13.8166   20.5664 C   0  0  0  0  0  0
  -24.1831  -13.0441   20.9185 C   0  0  0  0  0  0
  -24.6387  -11.6907   20.8738 C   0  0  0  0  0  0
  -23.9057  -10.4295   21.0406 C   0  0  0  0  0  0
  -24.3613   -9.4208   21.9180 C   0  0  0  0  0  0
  -23.6285   -8.2242   22.0752 C   0  0  0  0  0  0
  -22.4267   -8.0283   21.3550 C   0  0  0  0  0  0
  -21.9902   -9.0257   20.4658 C   0  0  0  0  0  0
  -22.7225  -10.2132   20.3058 C   0  0  0  0  0  0
  -21.6849   -6.0731   22.5277 C   0  0  0  0  0  0
  -21.4015   -6.5634   23.8211 C   0  0  0  0  0  0
  -21.3661   -5.6786   24.9171 C   0  0  0  0  0  0
  -21.6043   -4.3048   24.7223 C   0  0  0  0  0  0
  -21.8818   -3.8143   23.4344 C   0  0  0  0  0  0
  -21.9196   -4.6961   22.3402 C   0  0  0  0  0  0
  -22.7851  -13.5243   21.1841 C   0  0  0  0  0  0
  -22.1658   -4.2149   21.0980 F   0  0  0  0  0  0
  -21.5629   -3.4533   25.7734 F   0  0  0  0  0  0
  -30.0239  -13.3440   20.4338 N   0  0  0  0  0  0
  -26.2995  -12.9338   20.3309 N   0  0  0  0  0  0
  -25.9310  -11.6499   20.5746 N   0  0  0  0  0  0
  -22.0482  -12.8253   22.0406 N   0  0  0  0  0  0
  -25.4282  -15.1881   20.4046 N   0  0  0  0  0  0
  -31.8261  -14.7058   20.1378 O   0  0  0  0  0  0
  -21.6636   -6.8875   21.4242 O   0  0  0  0  0  0
  -22.3541  -14.5543   20.6675 O   0  0  0  0  0  0
  -24.6178  -31.8661   23.2069 C   0  0  0  0  0  0
  -25.9053  -32.4812   23.8387 C   0  0  1  0  0  0
  -27.2296  -27.3919   20.1148 C   0  0  0  0  0  0
  -25.5891  -33.8610   24.2318 N   0  0  0  0  0  0
  -23.4082  -30.4893   21.5487 C   0  0  2  0  0  0
  -24.8552  -28.9463   20.1209 C   0  0  0  0  0  0
  -22.7427  -29.4655   22.4975 C   0  0  0  0  0  0
  -18.0285  -28.1394   22.8492 C   0  0  0  0  0  0
  -24.1483  -36.7311   23.2640 C   0  0  0  0  0  0
  -25.9408  -30.8190   21.3662 C   0  0  0  0  0  0
  -26.0179  -29.4478   20.7200 C   0  0  0  0  0  0
  -27.2098  -28.6794   20.7110 C   0  0  0  0  0  0
  -26.0506  -26.9174   19.5042 C   0  0  0  0  0  0
  -24.8682  -27.6817   19.5092 C   0  0  0  0  0  0
  -23.6202  -29.8203   20.1651 C   0  0  0  0  0  0
  -25.4100  -36.3100   24.0344 C   0  0  1  0  0  0
  -20.5876  -28.3680   23.1317 C   0  0  2  0  0  0
  -20.6772  -26.9408   22.5431 C   0  0  0  0  0  0
  -19.5752  -26.6396   21.5224 C   0  0  0  0  0  0
  -18.1927  -26.7940   22.1621 C   0  0  0  0  0  0
  -19.1533  -28.8853   23.2903 C   0  0  0  0  0  0
  -18.9454  -30.1458   23.8914 C   0  0  0  0  0  0
  -17.6454  -30.6591   24.0579 C   0  0  0  0  0  0
  -25.9032  -34.9470   23.5130 C   0  0  0  0  0  0
  -16.5347  -29.9096   23.6327 C   0  0  0  0  0  0
  -16.7273  -28.6517   23.0340 C   0  0  0  0  0  0
  -26.4465  -31.6603   25.0732 C   0  0  0  0  0  0
  -25.3725  -31.3744   26.1486 C   0  0  0  0  0  0
  -27.0286  -30.3032   24.6130 C   0  0  0  0  0  0
  -27.6050  -32.4326   25.7477 C   0  0  0  0  0  0
  -27.5588  -37.1792   24.8451 C   0  0  0  0  0  0
  -21.4152  -29.3039   22.3707 N   0  0  0  0  0  0
  -26.4280  -37.3791   23.9426 N   0  0  0  0  0  0
  -24.6741  -31.0743   22.0982 N   0  0  0  0  0  0
  -23.4183  -28.8198   23.3031 O   0  0  0  0  0  0
  -28.3859  -26.6318   20.0662 O   0  0  0  0  0  0
  -26.5605  -34.8923   22.4696 O   0  0  0  0  0  0
  -23.5359  -32.1431   23.7434 O   0  0  0  0  0  0
  -29.0256  -20.6515   20.3223 C   0  0  0  0  0  0
  -29.1804  -22.1734   22.2098 C   0  0  0  0  0  0
  -29.2002  -19.5189   21.1693 C   0  0  0  0  0  0
  -29.3632  -19.7512   22.5597 C   0  0  0  0  0  0
  -28.9904  -21.9806   20.8274 C   0  0  0  0  0  0
  -29.3878  -21.0719   23.0786 C   0  0  0  0  0  0
  -29.9429  -17.7049   19.4007 C   0  0  0  0  0  0
  -29.1292  -18.0942   20.6083 C   0  0  1  0  0  0
  -30.2279  -17.0101   20.7171 C   0  0  1  0  0  0
  -29.5124  -18.5730   23.5154 C   0  0  0  0  0  0
  -30.3078  -22.3652   26.4091 C   0  0  0  0  0  0
  -29.8796  -22.5157   24.9485 C   0  0  0  0  0  0
  -28.4422  -25.4380   20.8912 C   0  0  0  0  0  0
  -27.8800  -24.0982   20.3050 C   0  0  0  0  0  0
  -29.8763  -15.6033   20.8245 N   0  0  0  0  0  0
  -28.8289  -23.0579   19.9639 O   0  0  0  0  0  0
  -29.6154  -21.2170   24.4319 O   0  0  0  0  0  0
  -31.4736  -12.4454   19.1391 H   0  0  0  0  0  0
  -30.3390  -11.3350   19.8572 H   0  0  0  0  0  0
  -29.7557  -11.7704   17.4475 H   0  0  0  0  0  0
  -29.6623  -13.4845   17.7620 H   0  0  0  0  0  0
  -27.8479  -11.2981   18.8433 H   0  0  0  0  0  0
  -27.3736  -12.6019   17.7871 H   0  0  0  0  0  0
  -27.6864  -14.2502   19.5389 H   0  0  0  0  0  0
  -28.6868  -12.0109   21.3720 H   0  0  0  0  0  0
  -28.4607  -13.6706   21.8479 H   0  0  0  0  0  0
  -25.2756   -9.5680   22.4748 H   0  0  0  0  0  0
  -24.0001   -7.4634   22.7462 H   0  0  0  0  0  0
  -21.0831   -8.8779   19.8964 H   0  0  0  0  0  0
  -22.3688  -10.9673   19.6167 H   0  0  0  0  0  0
  -21.2004   -7.6138   23.9710 H   0  0  0  0  0  0
  -21.1479   -6.0514   25.9072 H   0  0  0  0  0  0
  -22.0598   -2.7606   23.2841 H   0  0  0  0  0  0
  -22.4083  -11.9931   22.4836 H   0  0  0  0  0  0
  -21.1102  -13.1303   22.2594 H   0  0  0  0  0  0
  -24.6560  -15.8393   20.4966 H   0  0  0  0  0  0
  -26.2673  -15.6225   20.0422 H   0  0  0  0  0  0
  -26.7123  -32.5518   23.1151 H   0  0  0  0  0  0
  -25.0031  -33.9767   25.0453 H   0  0  0  0  0  0
  -22.6988  -31.3072   21.4076 H   0  0  0  0  0  0
  -23.3745  -35.9639   23.3275 H   0  0  0  0  0  0
  -24.3589  -36.8955   22.2060 H   0  0  0  0  0  0
  -23.7227  -37.6506   23.6670 H   0  0  0  0  0  0
  -26.0588  -31.5787   20.5923 H   0  0  0  0  0  0
  -26.8267  -30.8758   21.9867 H   0  0  0  0  0  0
  -28.1101  -29.0658   21.1675 H   0  0  0  0  0  0
  -26.0357  -25.9623   19.0033 H   0  0  0  0  0  0
  -23.9764  -27.2933   19.0373 H   0  0  0  0  0  0
  -23.7337  -30.5941   19.4052 H   0  0  0  0  0  0
  -22.7421  -29.2444   19.8683 H   0  0  0  0  0  0
  -25.1266  -36.1958   25.0836 H   0  0  0  0  0  0
  -20.9987  -28.3253   24.1432 H   0  0  0  0  0  0
  -20.5682  -26.2281   23.3621 H   0  0  0  0  0  0
  -21.6641  -26.7454   22.1223 H   0  0  0  0  0  0
  -19.6907  -25.6307   21.1249 H   0  0  0  0  0  0
  -19.6700  -27.3213   20.6758 H   0  0  0  0  0  0
  -17.4207  -26.6720   21.4006 H   0  0  0  0  0  0
  -18.0300  -26.0080   22.9011 H   0  0  0  0  0  0
  -19.7930  -30.7280   24.2282 H   0  0  0  0  0  0
  -17.5008  -31.6266   24.5192 H   0  0  0  0  0  0
  -15.5347  -30.3003   23.7636 H   0  0  0  0  0  0
  -15.8676  -28.0847   22.7030 H   0  0  0  0  0  0
  -24.5872  -30.7114   25.7836 H   0  0  0  0  0  0
  -24.8943  -32.2918   26.4932 H   0  0  0  0  0  0
  -25.8070  -30.8916   27.0247 H   0  0  0  0  0  0
  -26.2835  -29.6804   24.1166 H   0  0  0  0  0  0
  -27.4018  -29.7265   25.4603 H   0  0  0  0  0  0
  -27.8689  -30.4335   23.9308 H   0  0  0  0  0  0
  -27.2675  -33.3610   26.2095 H   0  0  0  0  0  0
  -28.3822  -32.6919   25.0276 H   0  0  0  0  0  0
  -28.0762  -31.8435   26.5353 H   0  0  0  0  0  0
  -28.2577  -38.0119   24.7540 H   0  0  0  0  0  0
  -28.1111  -36.2655   24.6195 H   0  0  0  0  0  0
  -27.2333  -37.1360   25.8860 H   0  0  0  0  0  0
  -20.9307  -29.8746   21.6918 H   0  0  0  0  0  0
  -26.0164  -38.2861   24.1450 H   0  0  0  0  0  0
  -28.8844  -20.4949   19.2620 H   0  0  0  0  0  0
  -29.1849  -23.1837   22.5875 H   0  0  0  0  0  0
  -30.6976  -18.4037   19.0450 H   0  0  0  0  0  0
  -29.4442  -17.1293   18.6234 H   0  0  0  0  0  0
  -28.0950  -17.7537   20.6283 H   0  0  0  0  0  0
  -31.1482  -17.3085   21.2178 H   0  0  0  0  0  0
  -28.8864  -17.7327   23.2165 H   0  0  0  0  0  0
  -29.2157  -18.8285   24.5326 H   0  0  0  0  0  0
  -30.5492  -18.2389   23.5426 H   0  0  0  0  0  0
  -30.5122  -23.3375   26.8581 H   0  0  0  0  0  0
  -31.2125  -21.7626   26.4911 H   0  0  0  0  0  0
  -29.5275  -21.8825   26.9974 H   0  0  0  0  0  0
  -30.6778  -23.0033   24.3858 H   0  0  0  0  0  0
  -28.9865  -23.1392   24.8869 H   0  0  0  0  0  0
  -29.4856  -25.2837   21.1662 H   0  0  0  0  0  0
  -27.9331  -25.6476   21.8342 H   0  0  0  0  0  0
  -27.3383  -24.3091   19.3863 H   0  0  0  0  0  0
  -27.1277  -23.6965   20.9869 H   0  0  0  0  0  0
  -28.9341  -15.3869   21.1096 H   0  0  0  0  0  0
  1 25  1  0  0  0
  1 30  2  0  0  0
  1 85  1  0  0  0
  2  3  1  0  0  0
  2 25  1  0  0  0
  2 88  1  0  0  0
  2 89  1  0  0  0
  3  4  1  0  0  0
  3 90  1  0  0  0
  3 91  1  0  0  0
  4  5  1  0  0  0
  4 92  1  0  0  0
  4 93  1  0  0  0
  5  6  1  0  0  0
  5 26  1  0  0  0
  5 94  1  0  0  0
  6 25  1  0  0  0
  6 95  1  0  0  0
  6 96  1  0  0  0
  7  8  2  0  0  0
  7 26  1  0  0  0
  7 29  1  0  0  0
  8  9  1  0  0  0
  8 22  1  0  0  0
  9 10  1  0  0  0
  9 27  2  0  0  0
 10 11  2  0  0  0
 10 15  1  0  0  0
 11 12  1  0  0  0
 11 97  1  0  0  0
 12 13  2  0  0  0
 12 98  1  0  0  0
 13 14  1  0  0  0
 13 31  1  0  0  0
 14 15  2  0  0  0
 14 99  1  0  0  0
 15100  1  0  0  0
 16 17  2  0  0  0
 16 21  1  0  0  0
 16 31  1  0  0  0
 17 18  1  0  0  0
 17101  1  0  0  0
 18 19  2  0  0  0
 18102  1  0  0  0
 19 20  1  0  0  0
 19 24  1  0  0  0
 20 21  2  0  0  0
 20103  1  0  0  0
 21 23  1  0  0  0
 22 28  1  0  0  0
 22 32  2  0  0  0
 26 27  1  0  0  0
 28104  1  0  0  0
 28105  1  0  0  0
 29106  1  0  0  0
 29107  1  0  0  0
 33 34  1  0  0  0
 33 66  1  0  0  0
 33 70  2  0  0  0
 34 36  1  0  0  0
 34 59  1  0  0  0
 34108  1  0  0  0
 35 44  2  0  0  0
 35 45  1  0  0  0
 35 68  1  0  0  0
 36 56  1  0  0  0
 36109  1  0  0  0
 37 39  1  0  0  0
 37 47  1  0  0  0
 37 66  1  0  0  0
 37110  1  0  0  0
 38 43  2  0  0  0
 38 46  1  0  0  0
 38 47  1  0  0  0
 39 64  1  0  0  0
 39 67  2  0  0  0
 40 52  1  0  0  0
 40 53  2  0  0  0
 40 58  1  0  0  0
 41111  1  0  0  0
 41112  1  0  0  0
 41113  1  0  0  0
 41 48  1  0  0  0
 42 43  1  0  0  0
 42 66  1  0  0  0
 42114  1  0  0  0
 42115  1  0  0  0
 43 44  1  0  0  0
 44116  1  0  0  0
 45 46  2  0  0  0
 45117  1  0  0  0
 46118  1  0  0  0
 47119  1  0  0  0
 47120  1  0  0  0
 48 56  1  0  0  0
 48 65  1  0  0  0
 48121  1  0  0  0
 49 50  1  0  0  0
 49 53  1  0  0  0
 49 64  1  0  0  0
 49122  1  0  0  0
 50 51  1  0  0  0
 50123  1  0  0  0
 50124  1  0  0  0
 51 52  1  0  0  0
 51125  1  0  0  0
 51126  1  0  0  0
 52127  1  0  0  0
 52128  1  0  0  0
 53 54  1  0  0  0
 54 55  2  0  0  0
 54129  1  0  0  0
 55 57  1  0  0  0
 55130  1  0  0  0
 56 69  2  0  0  0
 57 58  2  0  0  0
 57131  1  0  0  0
 58132  1  0  0  0
 59 60  1  0  0  0
 59 61  1  0  0  0
 59 62  1  0  0  0
 60133  1  0  0  0
 60134  1  0  0  0
 60135  1  0  0  0
 61136  1  0  0  0
 61137  1  0  0  0
 61138  1  0  0  0
 62139  1  0  0  0
 62140  1  0  0  0
 62141  1  0  0  0
 63 65  1  0  0  0
 63142  1  0  0  0
 63143  1  0  0  0
 63144  1  0  0  0
 64145  1  0  0  0
 65146  1  0  0  0
 68 83  1  0  0  0
 71 73  2  0  0  0
 71 75  1  0  0  0
 71147  1  0  0  0
 72 75  2  0  0  0
 72 76  1  0  0  0
 72148  1  0  0  0
 73 74  1  0  0  0
 73 78  1  0  0  0
 74 76  2  0  0  0
 74 80  1  0  0  0
 75 86  1  0  0  0
 76 87  1  0  0  0
 77 78  1  0  0  0
 77 79  1  0  0  0
 77149  1  0  0  0
 77150  1  0  0  0
 78 79  1  0  0  0
 78151  1  0  0  0
 79 85  1  0  0  0
 79152  1  0  0  0
 80153  1  0  0  0
 80154  1  0  0  0
 80155  1  0  0  0
 81 82  1  0  0  0
 81156  1  0  0  0
 81157  1  0  0  0
 81158  1  0  0  0
 82 87  1  0  0  0
 82159  1  0  0  0
 82160  1  0  0  0
 83 84  1  0  0  0
 83161  1  0  0  0
 83162  1  0  0  0
 84 86  1  0  0  0
 84163  1  0  0  0
 84164  1  0  0  0
 85165  1  0  0  0
M  ISO  4   1 100  68 101  83 101  85 100
M  END
> <chiral flag>
0

> <version>
0

> <s_m_source_file>
/data/baiqing/PycharmProjects/Reinvent-master-3.2/result/LINK_invent/BTK/process_docking_weight1_custom_sum_contain_oxygen_bond_distance_aromatic_linkinvent_7_9_3/rearranged_h_0151.sdf

> <i_m_source_file_index>
54

> <r_mmod_Potential_Energy-OPLS-2005>
33.4537811279297

> <r_mmod_Stretch_Energy-OPLS-2005>
49.9353713989258

> <r_mmod_Bend_Energy-OPLS-2005>
115.125457763672

> <r_mmod_Torsional_Energy-OPLS-2005>
305.674163818359

> <r_mmod_Improper_Torsional_Energy-OPLS-2005>
5.99271059036255

> <r_mmod_Van_der_Waal_Energy-OPLS-2005>
146.030181884766

> <r_mmod_Electrostatic_Energy-OPLS-2005>
-393.253448486328

> <r_mmod_Solvation_Energy-OPLS-2005>
-218.153747558594

> <b_mmod_Minimization_Converged-OPLS-2005>
0

> <r_mmod_RMS_Derivative-OPLS-2005>
1.28101575374603

$$$$
54
                    3D
 Structure written by MMmdl.
168177  0  0  1  0            999 V2000
  -30.5763  -14.8310   20.4299 C   0  0  0  0  0  0
  -30.4383  -12.5042   19.4919 C   0  0  0  0  0  0
  -29.5203  -12.5245   18.2486 C   0  0  0  0  0  0
  -28.0470  -12.3338   18.6590 C   0  0  0  0  0  0
  -27.6397  -13.2404   19.8504 C   0  0  2  0  0  0
  -28.6830  -13.2078   20.9885 C   0  0  0  0  0  0
  -25.2503  -13.8214   20.5699 C   0  0  0  0  0  0
  -24.1801  -13.0447   20.9215 C   0  0  0  0  0  0
  -24.6399  -11.6926   20.8747 C   0  0  0  0  0  0
  -23.9078  -10.4296   21.0402 C   0  0  0  0  0  0
  -24.3622   -9.4213   21.9184 C   0  0  0  0  0  0
  -23.6295   -8.2249   22.0758 C   0  0  0  0  0  0
  -22.4280   -8.0281   21.3547 C   0  0  0  0  0  0
  -21.9913   -9.0258   20.4653 C   0  0  0  0  0  0
  -22.7243  -10.2139   20.3060 C   0  0  0  0  0  0
  -21.6860   -6.0738   22.5278 C   0  0  0  0  0  0
  -21.4013   -6.5640   23.8211 C   0  0  0  0  0  0
  -21.3661   -5.6792   24.9176 C   0  0  0  0  0  0
  -21.6049   -4.3054   24.7221 C   0  0  0  0  0  0
  -21.8820   -3.8146   23.4340 C   0  0  0  0  0  0
  -21.9189   -4.6966   22.3400 C   0  0  0  0  0  0
  -22.7820  -13.5233   21.1866 C   0  0  0  0  0  0
  -22.1661   -4.2151   21.0976 F   0  0  0  0  0  0
  -21.5630   -3.4539   25.7734 F   0  0  0  0  0  0
  -29.9778  -13.5820   20.4051 N   0  0  0  0  0  0
  -26.2933  -12.9429   20.3289 N   0  0  0  0  0  0
  -25.9332  -11.6564   20.5745 N   0  0  0  0  0  0
  -22.0452  -12.8232   22.0423 N   0  0  0  0  0  0
  -25.4181  -15.1937   20.4103 N   0  0  0  0  0  0
  -31.7672  -14.9141   20.1138 O   0  0  0  0  0  0
  -21.6644   -6.8880   21.4241 O   0  0  0  0  0  0
  -22.3504  -14.5532   20.6702 O   0  0  0  0  0  0
  -24.6380  -31.8502   23.1948 C   0  0  0  0  0  0
  -25.9184  -32.4725   23.8308 C   0  0  1  0  0  0
  -27.2126  -27.2033   20.1230 C   0  0  0  0  0  0
  -25.5959  -33.8527   24.2229 N   0  0  0  0  0  0
  -23.4366  -30.4741   21.5408 C   0  0  2  0  0  0
  -24.8820  -28.9182   20.1080 C   0  0  0  0  0  0
  -22.7540  -29.4573   22.4894 C   0  0  0  0  0  0
  -18.0298  -28.1386   22.8481 C   0  0  0  0  0  0
  -24.1490  -36.7272   23.2641 C   0  0  0  0  0  0
  -25.9894  -30.7437   21.3851 C   0  0  0  0  0  0
  -26.0598  -29.3631   20.7225 C   0  0  0  0  0  0
  -27.2270  -28.5197   20.7182 C   0  0  0  0  0  0
  -26.0064  -26.8503   19.4724 C   0  0  0  0  0  0
  -24.8646  -27.6719   19.4709 C   0  0  0  0  0  0
  -23.6567  -29.8123   20.1564 C   0  0  0  0  0  0
  -25.4117  -36.3050   24.0324 C   0  0  1  0  0  0
  -20.5904  -28.3702   23.1248 C   0  0  2  0  0  0
  -20.6782  -26.9414   22.5398 C   0  0  0  0  0  0
  -19.5753  -26.6380   21.5209 C   0  0  0  0  0  0
  -18.1935  -26.7926   22.1625 C   0  0  0  0  0  0
  -19.1554  -28.8866   23.2858 C   0  0  0  0  0  0
  -18.9477  -30.1467   23.8875 C   0  0  0  0  0  0
  -17.6473  -30.6585   24.0560 C   0  0  0  0  0  0
  -25.9065  -34.9422   23.5078 C   0  0  0  0  0  0
  -16.5361  -29.9076   23.6333 C   0  0  0  0  0  0
  -16.7285  -28.6497   23.0350 C   0  0  0  0  0  0
  -26.4521  -31.6572   25.0726 C   0  0  0  0  0  0
  -25.3728  -31.3744   26.1439 C   0  0  0  0  0  0
  -27.0379  -30.2976   24.6271 C   0  0  0  0  0  0
  -27.6061  -32.4328   25.7501 C   0  0  0  0  0  0
  -27.5577  -37.1787   24.8465 C   0  0  0  0  0  0
  -21.4240  -29.3037   22.3638 N   0  0  0  0  0  0
  -26.4284  -37.3760   23.9413 N   0  0  0  0  0  0
  -24.7077  -31.0414   22.0957 N   0  0  0  0  0  0
  -23.4214  -28.8108   23.3013 O   0  0  0  0  0  0
  -28.2773  -26.2482   20.1879 O   0  0  0  0  0  0
  -26.5641  -34.8908   22.4649 O   0  0  0  0  0  0
  -23.5514  -32.1356   23.7203 O   0  0  0  0  0  0
  -31.2209  -19.3288   19.3122 C   0  0  0  0  0  0
  -31.0783  -17.9482   19.6382 C   0  0  0  0  0  0
  -29.0310  -18.4939   20.7618 C   0  0  0  0  0  0
  -30.2820  -20.3319   19.6875 C   0  0  0  0  0  0
  -29.9695  -17.4483   20.3669 C   0  0  0  0  0  0
  -29.1718  -19.9224   20.4680 C   0  0  0  0  0  0
  -30.4935  -21.7860   19.2562 C   0  0  0  0  0  0
  -28.9253  -23.4243   20.2003 C   0  0  2  0  0  0
  -28.3830  -22.3022   21.2196 C   0  0  2  0  0  0
  -30.4737  -22.0098   22.7617 C   0  0  0  0  0  0
  -28.7143  -21.3634   16.9450 C   0  0  0  0  0  0
  -29.4447  -23.7779   16.8662 C   0  0  0  0  0  0
  -27.9813  -24.7728   19.9090 C   0  0  0  0  0  0
  -28.9984  -22.4236   22.6312 C   0  0  0  0  0  0
  -28.7611  -22.6959   17.7242 C   0  0  0  0  0  0
  -29.4042  -22.5879   19.0548 N   0  0  0  0  0  0
  -29.7835  -15.9716   20.6456 N   0  0  0  0  0  0
  -31.6369  -22.1944   19.0310 O   0  0  0  0  0  0
  -28.1893  -20.8596   20.8644 O   0  0  0  0  0  0
  -31.4789  -12.6359   19.1901 H   0  0  0  0  0  0
  -30.3937  -11.5355   19.9930 H   0  0  0  0  0  0
  -29.8193  -11.7471   17.5442 H   0  0  0  0  0  0
  -29.6359  -13.4747   17.7247 H   0  0  0  0  0  0
  -27.9157  -11.2862   18.9320 H   0  0  0  0  0  0
  -27.3909  -12.5113   17.8058 H   0  0  0  0  0  0
  -27.6221  -14.2569   19.4566 H   0  0  0  0  0  0
  -28.7362  -12.2173   21.4431 H   0  0  0  0  0  0
  -28.4040  -13.8975   21.7867 H   0  0  0  0  0  0
  -25.2758   -9.5700   22.4767 H   0  0  0  0  0  0
  -24.0007   -7.4645   22.7479 H   0  0  0  0  0  0
  -21.0841   -8.8772   19.8959 H   0  0  0  0  0  0
  -22.3685  -10.9679   19.6173 H   0  0  0  0  0  0
  -21.2007   -7.6145   23.9721 H   0  0  0  0  0  0
  -21.1489   -6.0517   25.9083 H   0  0  0  0  0  0
  -22.0596   -2.7605   23.2840 H   0  0  0  0  0  0
  -22.4046  -11.9891   22.4820 H   0  0  0  0  0  0
  -21.1080  -13.1287   22.2634 H   0  0  0  0  0  0
  -24.6452  -15.8430   20.5096 H   0  0  0  0  0  0
  -26.2587  -15.6320   20.0557 H   0  0  0  0  0  0
  -26.7253  -32.5354   23.1043 H   0  0  0  0  0  0
  -25.0096  -33.9651   25.0373 H   0  0  0  0  0  0
  -22.7369  -31.3000   21.3950 H   0  0  0  0  0  0
  -23.3753  -35.9604   23.3281 H   0  0  0  0  0  0
  -24.3585  -36.8919   22.2061 H   0  0  0  0  0  0
  -23.7242  -37.6464   23.6682 H   0  0  0  0  0  0
  -26.1421  -31.5018   20.6149 H   0  0  0  0  0  0
  -26.8613  -30.7873   22.0258 H   0  0  0  0  0  0
  -28.1247  -28.8527   21.2201 H   0  0  0  0  0  0
  -25.8953  -25.9038   18.9681 H   0  0  0  0  0  0
  -23.9652  -27.3261   18.9786 H   0  0  0  0  0  0
  -23.7878  -30.5905   19.4037 H   0  0  0  0  0  0
  -22.7721  -29.2531   19.8461 H   0  0  0  0  0  0
  -25.1297  -36.1885   25.0817 H   0  0  0  0  0  0
  -21.0006  -28.3285   24.1367 H   0  0  0  0  0  0
  -20.5670  -26.2321   23.3615 H   0  0  0  0  0  0
  -21.6649  -26.7419   22.1201 H   0  0  0  0  0  0
  -19.6904  -25.6291   21.1244 H   0  0  0  0  0  0
  -19.6679  -27.3190   20.6738 H   0  0  0  0  0  0
  -17.4202  -26.6679   21.4029 H   0  0  0  0  0  0
  -18.0327  -26.0070   22.9023 H   0  0  0  0  0  0
  -19.7953  -30.7292   24.2227 H   0  0  0  0  0  0
  -17.5021  -31.6260   24.5173 H   0  0  0  0  0  0
  -15.5357  -30.2966   23.7668 H   0  0  0  0  0  0
  -15.8689  -28.0808   22.7065 H   0  0  0  0  0  0
  -24.5907  -30.7088   25.7766 H   0  0  0  0  0  0
  -24.8922  -32.2921   26.4833 H   0  0  0  0  0  0
  -25.8032  -30.8943   27.0237 H   0  0  0  0  0  0
  -26.2983  -29.6704   24.1278 H   0  0  0  0  0  0
  -27.4005  -29.7261   25.4824 H   0  0  0  0  0  0
  -27.8885  -30.4213   23.9568 H   0  0  0  0  0  0
  -27.2658  -33.3636   26.2041 H   0  0  0  0  0  0
  -28.3882  -32.6870   25.0340 H   0  0  0  0  0  0
  -28.0717  -31.8486   26.5447 H   0  0  0  0  0  0
  -28.2581  -38.0095   24.7518 H   0  0  0  0  0  0
  -28.1082  -36.2623   24.6272 H   0  0  0  0  0  0
  -27.2299  -37.1416   25.8870 H   0  0  0  0  0  0
  -20.9441  -29.8794   21.6863 H   0  0  0  0  0  0
  -26.0152  -38.2829   24.1418 H   0  0  0  0  0  0
  -32.0828  -19.6213   18.7287 H   0  0  0  0  0  0
  -31.8416  -17.2707   19.2844 H   0  0  0  0  0  0
  -28.1537  -18.1970   21.3180 H   0  0  0  0  0  0
  -29.8299  -23.8514   20.6360 H   0  0  0  0  0  0
  -27.3432  -22.5901   21.3729 H   0  0  0  0  0  0
  -30.6222  -20.9561   22.5299 H   0  0  0  0  0  0
  -30.8236  -22.1589   23.7831 H   0  0  0  0  0  0
  -31.1223  -22.5970   22.1124 H   0  0  0  0  0  0
  -28.1236  -21.4688   16.0336 H   0  0  0  0  0  0
  -28.2500  -20.5732   17.5365 H   0  0  0  0  0  0
  -29.7059  -21.0245   16.6419 H   0  0  0  0  0  0
  -28.9179  -23.9168   15.9206 H   0  0  0  0  0  0
  -30.4750  -23.5081   16.6303 H   0  0  0  0  0  0
  -29.4697  -24.7461   17.3659 H   0  0  0  0  0  0
  -27.0439  -24.5705   20.4259 H   0  0  0  0  0  0
  -27.7139  -24.7816   18.8585 H   0  0  0  0  0  0
  -28.4068  -21.8278   23.3259 H   0  0  0  0  0  0
  -28.8962  -23.4557   22.9702 H   0  0  0  0  0  0
  -27.7137  -22.9542   17.8676 H   0  0  0  0  0  0
  -28.8621  -15.7310   20.9794 H   0  0  0  0  0  0
  1 25  1  0  0  0
  1 30  2  0  0  0
  1 87  1  0  0  0
  2  3  1  0  0  0
  2 25  1  0  0  0
  2 90  1  0  0  0
  2 91  1  0  0  0
  3  4  1  0  0  0
  3 92  1  0  0  0
  3 93  1  0  0  0
  4  5  1  0  0  0
  4 94  1  0  0  0
  4 95  1  0  0  0
  5  6  1  0  0  0
  5 26  1  0  0  0
  5 96  1  0  0  0
  6 25  1  0  0  0
  6 97  1  0  0  0
  6 98  1  0  0  0
  7  8  2  0  0  0
  7 26  1  0  0  0
  7 29  1  0  0  0
  8  9  1  0  0  0
  8 22  1  0  0  0
  9 10  1  0  0  0
  9 27  2  0  0  0
 10 11  2  0  0  0
 10 15  1  0  0  0
 11 12  1  0  0  0
 11 99  1  0  0  0
 12 13  2  0  0  0
 12100  1  0  0  0
 13 14  1  0  0  0
 13 31  1  0  0  0
 14 15  2  0  0  0
 14101  1  0  0  0
 15102  1  0  0  0
 16 17  2  0  0  0
 16 21  1  0  0  0
 16 31  1  0  0  0
 17 18  1  0  0  0
 17103  1  0  0  0
 18 19  2  0  0  0
 18104  1  0  0  0
 19 20  1  0  0  0
 19 24  1  0  0  0
 20 21  2  0  0  0
 20105  1  0  0  0
 21 23  1  0  0  0
 22 28  1  0  0  0
 22 32  2  0  0  0
 26 27  1  0  0  0
 28106  1  0  0  0
 28107  1  0  0  0
 29108  1  0  0  0
 29109  1  0  0  0
 33 34  1  0  0  0
 33 66  1  0  0  0
 33 70  2  0  0  0
 34 36  1  0  0  0
 34 59  1  0  0  0
 34110  1  0  0  0
 35 44  2  0  0  0
 35 45  1  0  0  0
 35 68  1  0  0  0
 36 56  1  0  0  0
 36111  1  0  0  0
 37 39  1  0  0  0
 37 47  1  0  0  0
 37 66  1  0  0  0
 37112  1  0  0  0
 38 43  2  0  0  0
 38 46  1  0  0  0
 38 47  1  0  0  0
 39 64  1  0  0  0
 39 67  2  0  0  0
 40 52  1  0  0  0
 40 53  2  0  0  0
 40 58  1  0  0  0
 41113  1  0  0  0
 41114  1  0  0  0
 41115  1  0  0  0
 41 48  1  0  0  0
 42 43  1  0  0  0
 42 66  1  0  0  0
 42116  1  0  0  0
 42117  1  0  0  0
 43 44  1  0  0  0
 44118  1  0  0  0
 45 46  2  0  0  0
 45119  1  0  0  0
 46120  1  0  0  0
 47121  1  0  0  0
 47122  1  0  0  0
 48 56  1  0  0  0
 48 65  1  0  0  0
 48123  1  0  0  0
 49 50  1  0  0  0
 49 53  1  0  0  0
 49 64  1  0  0  0
 49124  1  0  0  0
 50 51  1  0  0  0
 50125  1  0  0  0
 50126  1  0  0  0
 51 52  1  0  0  0
 51127  1  0  0  0
 51128  1  0  0  0
 52129  1  0  0  0
 52130  1  0  0  0
 53 54  1  0  0  0
 54 55  2  0  0  0
 54131  1  0  0  0
 55 57  1  0  0  0
 55132  1  0  0  0
 56 69  2  0  0  0
 57 58  2  0  0  0
 57133  1  0  0  0
 58134  1  0  0  0
 59 60  1  0  0  0
 59 61  1  0  0  0
 59 62  1  0  0  0
 60135  1  0  0  0
 60136  1  0  0  0
 60137  1  0  0  0
 61138  1  0  0  0
 61139  1  0  0  0
 61140  1  0  0  0
 62141  1  0  0  0
 62142  1  0  0  0
 62143  1  0  0  0
 63 65  1  0  0  0
 63144  1  0  0  0
 63145  1  0  0  0
 63146  1  0  0  0
 64147  1  0  0  0
 65148  1  0  0  0
 68 83  1  0  0  0
 71 72  2  0  0  0
 71 74  1  0  0  0
 71149  1  0  0  0
 72 75  1  0  0  0
 72150  1  0  0  0
 73 75  2  0  0  0
 73 76  1  0  0  0
 73151  1  0  0  0
 74 76  2  0  0  0
 74 77  1  0  0  0
 75 87  1  0  0  0
 76 89  1  0  0  0
 77 86  1  0  0  0
 77 88  2  0  0  0
 78 79  1  0  0  0
 78 83  1  0  0  0
 78 86  1  0  0  0
 78152  1  0  0  0
 79 84  1  0  0  0
 79 89  1  0  0  0
 79153  1  0  0  0
 80 84  1  0  0  0
 80154  1  0  0  0
 80155  1  0  0  0
 80156  1  0  0  0
 81157  1  0  0  0
 81158  1  0  0  0
 81159  1  0  0  0
 81 85  1  0  0  0
 82 85  1  0  0  0
 82160  1  0  0  0
 82161  1  0  0  0
 82162  1  0  0  0
 83163  1  0  0  0
 83164  1  0  0  0
 84165  1  0  0  0
 84166  1  0  0  0
 85 86  1  0  0  0
 85167  1  0  0  0
 87168  1  0  0  0
M  ISO  4   1 100  68 101  83 101  87 100
M  END
> <chiral flag>
0

> <version>
0

> <s_m_source_file>
/data/baiqing/PycharmProjects/Reinvent-master-3.2/result/LINK_invent/BTK/process_docking_weight1_custom_sum_contain_oxygen_bond_distance_aromatic_linkinvent_7_9_3/rearranged_h_0151.sdf

> <i_m_source_file_index>
55

> <r_mmod_Potential_Energy-OPLS-2005>
547.667297363281

> <r_mmod_Stretch_Energy-OPLS-2005>
174.967315673828

> <r_mmod_Bend_Energy-OPLS-2005>
246.730392456055

> <r_mmod_Torsional_Energy-OPLS-2005>
382.239593505859

> <r_mmod_Improper_Torsional_Energy-OPLS-2005>
4.55338859558105

> <r_mmod_Van_der_Waal_Energy-OPLS-2005>
151.222793579102

> <r_mmod_Electrostatic_Energy-OPLS-2005>
-325.381225585938

> <r_mmod_Solvation_Energy-OPLS-2005>
-214.098754882812

> <b_mmod_Minimization_Converged-OPLS-2005>
0

> <r_mmod_RMS_Derivative-OPLS-2005>
1.37593710422516

$$$$
55
                    3D
 Structure written by MMmdl.
162171  0  0  1  0            999 V2000
  -30.7386  -14.4713   20.5755 C   0  0  0  0  0  0
  -30.4084  -12.3149   19.4252 C   0  0  0  0  0  0
  -29.4848  -12.5006   18.2055 C   0  0  0  0  0  0
  -28.0090  -12.3630   18.6223 C   0  0  0  0  0  0
  -27.6563  -13.2157   19.8705 C   0  0  2  0  0  0
  -28.6993  -13.0334   20.9960 C   0  0  0  0  0  0
  -25.2563  -13.8187   20.5694 C   0  0  0  0  0  0
  -24.1824  -13.0450   20.9184 C   0  0  0  0  0  0
  -24.6393  -11.6921   20.8752 C   0  0  0  0  0  0
  -23.9066  -10.4298   21.0413 C   0  0  0  0  0  0
  -24.3618   -9.4212   21.9187 C   0  0  0  0  0  0
  -23.6299   -8.2246   22.0755 C   0  0  0  0  0  0
  -22.4280   -8.0283   21.3545 C   0  0  0  0  0  0
  -21.9913   -9.0255   20.4648 C   0  0  0  0  0  0
  -22.7241  -10.2139   20.3058 C   0  0  0  0  0  0
  -21.6852   -6.0734   22.5278 C   0  0  0  0  0  0
  -21.4015   -6.5641   23.8211 C   0  0  0  0  0  0
  -21.3660   -5.6799   24.9178 C   0  0  0  0  0  0
  -21.6041   -4.3060   24.7232 C   0  0  0  0  0  0
  -21.8820   -3.8151   23.4353 C   0  0  0  0  0  0
  -21.9195   -4.6965   22.3407 C   0  0  0  0  0  0
  -22.7848  -13.5239   21.1852 C   0  0  0  0  0  0
  -22.1661   -4.2147   21.0986 F   0  0  0  0  0  0
  -21.5629   -3.4544   25.7746 F   0  0  0  0  0  0
  -30.0275  -13.3198   20.4330 N   0  0  0  0  0  0
  -26.3000  -12.9375   20.3368 N   0  0  0  0  0  0
  -25.9324  -11.6523   20.5787 N   0  0  0  0  0  0
  -22.0493  -12.8221   22.0404 N   0  0  0  0  0  0
  -25.4293  -15.1902   20.4087 N   0  0  0  0  0  0
  -31.8616  -14.6179   20.0885 O   0  0  0  0  0  0
  -21.6644   -6.8878   21.4240 O   0  0  0  0  0  0
  -22.3529  -14.5547   20.6705 O   0  0  0  0  0  0
  -24.6144  -31.8686   23.2134 C   0  0  0  0  0  0
  -25.9042  -32.4827   23.8417 C   0  0  1  0  0  0
  -27.2186  -27.4259   20.1105 C   0  0  0  0  0  0
  -25.5880  -33.8624   24.2330 N   0  0  0  0  0  0
  -23.4024  -30.4946   21.5534 C   0  0  2  0  0  0
  -24.8481  -28.9652   20.1143 C   0  0  0  0  0  0
  -22.7415  -29.4653   22.4990 C   0  0  0  0  0  0
  -18.0276  -28.1384   22.8481 C   0  0  0  0  0  0
  -24.1493  -36.7325   23.2637 C   0  0  0  0  0  0
  -25.9329  -30.8322   21.3694 C   0  0  0  0  0  0
  -26.0086  -29.4658   20.7201 C   0  0  0  0  0  0
  -27.1987  -28.7009   20.7206 C   0  0  0  0  0  0
  -26.0526  -26.9602   19.4648 C   0  0  0  0  0  0
  -24.8644  -27.7099   19.4860 C   0  0  0  0  0  0
  -23.6110  -29.8323   20.1664 C   0  0  0  0  0  0
  -25.4113  -36.3110   24.0329 C   0  0  1  0  0  0
  -20.5862  -28.3671   23.1311 C   0  0  2  0  0  0
  -20.6769  -26.9409   22.5417 C   0  0  0  0  0  0
  -19.5748  -26.6387   21.5215 C   0  0  0  0  0  0
  -18.1919  -26.7927   22.1617 C   0  0  0  0  0  0
  -19.1518  -28.8844   23.2891 C   0  0  0  0  0  0
  -18.9448  -30.1445   23.8915 C   0  0  0  0  0  0
  -17.6446  -30.6591   24.0561 C   0  0  0  0  0  0
  -25.9024  -34.9473   23.5126 C   0  0  0  0  0  0
  -16.5339  -29.9088   23.6335 C   0  0  0  0  0  0
  -16.7258  -28.6507   23.0353 C   0  0  0  0  0  0
  -26.4472  -31.6601   25.0741 C   0  0  0  0  0  0
  -25.3728  -31.3690   26.1480 C   0  0  0  0  0  0
  -27.0302  -30.3039   24.6117 C   0  0  0  0  0  0
  -27.6062  -32.4316   25.7486 C   0  0  0  0  0  0
  -27.5586  -37.1809   24.8457 C   0  0  0  0  0  0
  -21.4139  -29.3034   22.3722 N   0  0  0  0  0  0
  -26.4300  -37.3790   23.9393 N   0  0  0  0  0  0
  -24.6687  -31.0795   22.1030 N   0  0  0  0  0  0
  -23.4179  -28.8199   23.3038 O   0  0  0  0  0  0
  -28.3628  -26.6566   20.0927 O   0  0  0  0  0  0
  -26.5611  -34.8924   22.4703 O   0  0  0  0  0  0
  -23.5335  -32.1447   23.7518 O   0  0  0  0  0  0
  -28.5179  -20.5716   19.5936 C   0  0  0  0  0  0
  -29.3900  -20.9319   21.8114 C   0  0  0  0  0  0
  -28.3527  -22.8197   20.5965 C   0  0  0  0  0  0
  -28.1369  -21.9265   19.5068 C   0  0  0  0  0  0
  -29.1262  -20.0401   20.7415 C   0  0  0  0  0  0
  -29.0384  -22.3129   21.7398 C   0  0  0  0  0  0
  -27.2272  -24.9846   21.7169 C   0  0  0  0  0  0
  -27.7959  -24.2526   20.5160 C   0  0  1  0  0  0
  -28.4645  -25.5332   21.0079 C   0  0  1  0  0  0
  -27.4835  -22.3774   18.2063 C   0  0  0  0  0  0
  -30.0902  -22.7619   23.8787 C   0  0  0  0  0  0
  -30.8264  -16.7949   21.4159 C   0  0  0  0  0  0
  -29.9504  -18.0010   21.8408 C   0  0  0  0  0  0
  -30.1360  -15.5090   21.1878 N   0  0  0  0  0  0
  -29.3370  -23.2020   22.7535 O   0  0  0  0  0  0
  -29.4285  -18.6842   20.6953 O   0  0  0  0  0  0
  -31.4533  -12.3942   19.1196 H   0  0  0  0  0  0
  -30.2981  -11.3117   19.8385 H   0  0  0  0  0  0
  -29.7229  -11.7661   17.4348 H   0  0  0  0  0  0
  -29.6517  -13.4811   17.7563 H   0  0  0  0  0  0
  -27.8218  -11.3085   18.8285 H   0  0  0  0  0  0
  -27.3556  -12.6279   17.7900 H   0  0  0  0  0  0
  -27.6918  -14.2588   19.5557 H   0  0  0  0  0  0
  -28.6763  -12.0124   21.3788 H   0  0  0  0  0  0
  -28.4643  -13.6740   21.8465 H   0  0  0  0  0  0
  -25.2762   -9.5687   22.4763 H   0  0  0  0  0  0
  -24.0009   -7.4634   22.7470 H   0  0  0  0  0  0
  -21.0849   -8.8777   19.8952 H   0  0  0  0  0  0
  -22.3700  -10.9681   19.6168 H   0  0  0  0  0  0
  -21.2006   -7.6153   23.9714 H   0  0  0  0  0  0
  -21.1478   -6.0530   25.9077 H   0  0  0  0  0  0
  -22.0597   -2.7608   23.2858 H   0  0  0  0  0  0
  -22.4123  -11.9883   22.4787 H   0  0  0  0  0  0
  -21.1106  -13.1234   22.2616 H   0  0  0  0  0  0
  -24.6684  -15.8510   20.5174 H   0  0  0  0  0  0
  -26.2882  -15.6240   20.0937 H   0  0  0  0  0  0
  -26.7120  -32.5556   23.1191 H   0  0  0  0  0  0
  -25.0008  -33.9796   25.0456 H   0  0  0  0  0  0
  -22.6917  -31.3127   21.4174 H   0  0  0  0  0  0
  -23.3732  -35.9678   23.3304 H   0  0  0  0  0  0
  -24.3592  -36.8946   22.2051 H   0  0  0  0  0  0
  -23.7275  -37.6541   23.6657 H   0  0  0  0  0  0
  -26.0468  -31.5973   20.5999 H   0  0  0  0  0  0
  -26.8219  -30.8864   21.9859 H   0  0  0  0  0  0
  -28.0947  -29.0798   21.1918 H   0  0  0  0  0  0
  -26.0464  -26.0126   18.9489 H   0  0  0  0  0  0
  -23.9746  -27.3234   19.0075 H   0  0  0  0  0  0
  -23.7174  -30.6098   19.4090 H   0  0  0  0  0  0
  -22.7345  -29.2514   19.8710 H   0  0  0  0  0  0
  -25.1287  -36.1978   25.0822 H   0  0  0  0  0  0
  -20.9943  -28.3250   24.1435 H   0  0  0  0  0  0
  -20.5695  -26.2280   23.3606 H   0  0  0  0  0  0
  -21.6643  -26.7485   22.1196 H   0  0  0  0  0  0
  -19.6919  -25.6299   21.1246 H   0  0  0  0  0  0
  -19.6694  -27.3210   20.6748 H   0  0  0  0  0  0
  -17.4198  -26.6675   21.4007 H   0  0  0  0  0  0
  -18.0306  -26.0084   22.9028 H   0  0  0  0  0  0
  -19.7925  -30.7238   24.2303 H   0  0  0  0  0  0
  -17.5017  -31.6279   24.5149 H   0  0  0  0  0  0
  -15.5339  -30.2988   23.7673 H   0  0  0  0  0  0
  -15.8657  -28.0828   22.7064 H   0  0  0  0  0  0
  -24.5900  -30.7046   25.7789 H   0  0  0  0  0  0
  -24.8912  -32.2833   26.4958 H   0  0  0  0  0  0
  -25.8072  -30.8823   27.0224 H   0  0  0  0  0  0
  -26.2846  -29.6780   24.1187 H   0  0  0  0  0  0
  -27.4086  -29.7291   25.4584 H   0  0  0  0  0  0
  -27.8681  -30.4344   23.9258 H   0  0  0  0  0  0
  -27.2704  -33.3617   26.2089 H   0  0  0  0  0  0
  -28.3845  -32.6879   25.0281 H   0  0  0  0  0  0
  -28.0757  -31.8416   26.5372 H   0  0  0  0  0  0
  -28.2595  -38.0115   24.7514 H   0  0  0  0  0  0
  -28.1094  -36.2645   24.6270 H   0  0  0  0  0  0
  -27.2300  -37.1444   25.8861 H   0  0  0  0  0  0
  -20.9317  -29.8764   21.6945 H   0  0  0  0  0  0
  -26.0182  -38.2867   24.1399 H   0  0  0  0  0  0
  -28.3273  -19.9092   18.7604 H   0  0  0  0  0  0
  -29.8679  -20.5602   22.7021 H   0  0  0  0  0  0
  -27.3691  -24.5620   22.7064 H   0  0  0  0  0  0
  -26.2607  -25.4642   21.5931 H   0  0  0  0  0  0
  -27.1840  -24.3611   19.6328 H   0  0  0  0  0  0
  -29.4365  -25.4630   21.4894 H   0  0  0  0  0  0
  -27.5526  -21.6134   17.4310 H   0  0  0  0  0  0
  -27.9755  -23.2687   17.8151 H   0  0  0  0  0  0
  -26.4256  -22.5963   18.3575 H   0  0  0  0  0  0
  -30.3057  -23.6165   24.5202 H   0  0  0  0  0  0
  -31.0485  -22.3286   23.5872 H   0  0  0  0  0  0
  -29.5324  -22.0413   24.4780 H   0  0  0  0  0  0
  -31.5568  -16.6170   22.2072 H   0  0  0  0  0  0
  -31.4094  -17.0838   20.5393 H   0  0  0  0  0  0
  -30.6112  -18.6541   22.4072 H   0  0  0  0  0  0
  -29.1443  -17.7021   22.5117 H   0  0  0  0  0  0
  -29.1964  -15.3889   21.5358 H   0  0  0  0  0  0
  1 25  1  0  0  0
  1 30  2  0  0  0
  1 84  1  0  0  0
  2  3  1  0  0  0
  2 25  1  0  0  0
  2 87  1  0  0  0
  2 88  1  0  0  0
  3  4  1  0  0  0
  3 89  1  0  0  0
  3 90  1  0  0  0
  4  5  1  0  0  0
  4 91  1  0  0  0
  4 92  1  0  0  0
  5  6  1  0  0  0
  5 26  1  0  0  0
  5 93  1  0  0  0
  6 25  1  0  0  0
  6 94  1  0  0  0
  6 95  1  0  0  0
  7  8  2  0  0  0
  7 26  1  0  0  0
  7 29  1  0  0  0
  8  9  1  0  0  0
  8 22  1  0  0  0
  9 10  1  0  0  0
  9 27  2  0  0  0
 10 11  2  0  0  0
 10 15  1  0  0  0
 11 12  1  0  0  0
 11 96  1  0  0  0
 12 13  2  0  0  0
 12 97  1  0  0  0
 13 14  1  0  0  0
 13 31  1  0  0  0
 14 15  2  0  0  0
 14 98  1  0  0  0
 15 99  1  0  0  0
 16 17  2  0  0  0
 16 21  1  0  0  0
 16 31  1  0  0  0
 17 18  1  0  0  0
 17100  1  0  0  0
 18 19  2  0  0  0
 18101  1  0  0  0
 19 20  1  0  0  0
 19 24  1  0  0  0
 20 21  2  0  0  0
 20102  1  0  0  0
 21 23  1  0  0  0
 22 28  1  0  0  0
 22 32  2  0  0  0
 26 27  1  0  0  0
 28103  1  0  0  0
 28104  1  0  0  0
 29105  1  0  0  0
 29106  1  0  0  0
 33 34  1  0  0  0
 33 66  1  0  0  0
 33 70  2  0  0  0
 34 36  1  0  0  0
 34 59  1  0  0  0
 34107  1  0  0  0
 35 44  2  0  0  0
 35 45  1  0  0  0
 35 68  1  0  0  0
 36 56  1  0  0  0
 36108  1  0  0  0
 37 39  1  0  0  0
 37 47  1  0  0  0
 37 66  1  0  0  0
 37109  1  0  0  0
 38 43  2  0  0  0
 38 46  1  0  0  0
 38 47  1  0  0  0
 39 64  1  0  0  0
 39 67  2  0  0  0
 40 52  1  0  0  0
 40 53  2  0  0  0
 40 58  1  0  0  0
 41110  1  0  0  0
 41111  1  0  0  0
 41112  1  0  0  0
 41 48  1  0  0  0
 42 43  1  0  0  0
 42 66  1  0  0  0
 42113  1  0  0  0
 42114  1  0  0  0
 43 44  1  0  0  0
 44115  1  0  0  0
 45 46  2  0  0  0
 45116  1  0  0  0
 46117  1  0  0  0
 47118  1  0  0  0
 47119  1  0  0  0
 48 56  1  0  0  0
 48 65  1  0  0  0
 48120  1  0  0  0
 49 50  1  0  0  0
 49 53  1  0  0  0
 49 64  1  0  0  0
 49121  1  0  0  0
 50 51  1  0  0  0
 50122  1  0  0  0
 50123  1  0  0  0
 51 52  1  0  0  0
 51124  1  0  0  0
 51125  1  0  0  0
 52126  1  0  0  0
 52127  1  0  0  0
 53 54  1  0  0  0
 54 55  2  0  0  0
 54128  1  0  0  0
 55 57  1  0  0  0
 55129  1  0  0  0
 56 69  2  0  0  0
 57 58  2  0  0  0
 57130  1  0  0  0
 58131  1  0  0  0
 59 60  1  0  0  0
 59 61  1  0  0  0
 59 62  1  0  0  0
 60132  1  0  0  0
 60133  1  0  0  0
 60134  1  0  0  0
 61135  1  0  0  0
 61136  1  0  0  0
 61137  1  0  0  0
 62138  1  0  0  0
 62139  1  0  0  0
 62140  1  0  0  0
 63 65  1  0  0  0
 63141  1  0  0  0
 63142  1  0  0  0
 63143  1  0  0  0
 64144  1  0  0  0
 65145  1  0  0  0
 68 79  1  0  0  0
 71 74  2  0  0  0
 71 75  1  0  0  0
 71146  1  0  0  0
 72 75  2  0  0  0
 72 76  1  0  0  0
 72147  1  0  0  0
 73 74  1  0  0  0
 73 76  2  0  0  0
 73 78  1  0  0  0
 74 80  1  0  0  0
 75 86  1  0  0  0
 76 85  1  0  0  0
 77 78  1  0  0  0
 77 79  1  0  0  0
 77148  1  0  0  0
 77149  1  0  0  0
 78 79  1  0  0  0
 78150  1  0  0  0
 79151  1  0  0  0
 80152  1  0  0  0
 80153  1  0  0  0
 80154  1  0  0  0
 81 85  1  0  0  0
 81155  1  0  0  0
 81156  1  0  0  0
 81157  1  0  0  0
 82 83  1  0  0  0
 82 84  1  0  0  0
 82158  1  0  0  0
 82159  1  0  0  0
 83 86  1  0  0  0
 83160  1  0  0  0
 83161  1  0  0  0
 84162  1  0  0  0
M  ISO  4   1 100  68 101  79 101  84 100
M  END
> <chiral flag>
0

> <version>
0

> <s_m_source_file>
/data/baiqing/PycharmProjects/Reinvent-master-3.2/result/LINK_invent/BTK/process_docking_weight1_custom_sum_contain_oxygen_bond_distance_aromatic_linkinvent_7_9_3/rearranged_h_0151.sdf

> <i_m_source_file_index>
56

> <r_mmod_Potential_Energy-OPLS-2005>
-14.6185159683228

> <r_mmod_Stretch_Energy-OPLS-2005>
45.1567726135254

> <r_mmod_Bend_Energy-OPLS-2005>
138.831436157227

> <r_mmod_Torsional_Energy-OPLS-2005>
250.104110717773

> <r_mmod_Improper_Torsional_Energy-OPLS-2005>
2.40688514709473

> <r_mmod_Van_der_Waal_Energy-OPLS-2005>
174.768218994141

> <r_mmod_Electrostatic_Energy-OPLS-2005>
-426.678100585938

> <r_mmod_Solvation_Energy-OPLS-2005>
-214.052947998047

> <b_mmod_Minimization_Converged-OPLS-2005>
0

> <r_mmod_RMS_Derivative-OPLS-2005>
1.69479155540466

$$$$
56
                    3D
 Structure written by MMmdl.
168177  0  0  1  0            999 V2000
  -30.6894  -14.6880   20.3461 C   0  0  0  0  0  0
  -30.3562  -12.3973   19.4314 C   0  0  0  0  0  0
  -29.4346  -12.5080   18.1989 C   0  0  0  0  0  0
  -27.9739  -12.3456   18.6503 C   0  0  0  0  0  0
  -27.6148  -13.2370   19.8750 C   0  0  2  0  0  0
  -28.6954  -13.2363   20.9826 C   0  0  0  0  0  0
  -25.2408  -13.8234   20.6031 C   0  0  0  0  0  0
  -24.1746  -13.0457   20.9345 C   0  0  0  0  0  0
  -24.6374  -11.6915   20.8968 C   0  0  0  0  0  0
  -23.9063  -10.4302   21.0511 C   0  0  0  0  0  0
  -24.3607   -9.4192   21.9257 C   0  0  0  0  0  0
  -23.6337   -8.2199   22.0744 C   0  0  0  0  0  0
  -22.4294   -8.0278   21.3533 C   0  0  0  0  0  0
  -21.9929   -9.0276   20.4671 C   0  0  0  0  0  0
  -22.7264  -10.2154   20.3127 C   0  0  0  0  0  0
  -21.6830   -6.0819   22.5305 C   0  0  0  0  0  0
  -21.4028   -6.5717   23.8262 C   0  0  0  0  0  0
  -21.3623   -5.6830   24.9190 C   0  0  0  0  0  0
  -21.6047   -4.3099   24.7189 C   0  0  0  0  0  0
  -21.8826   -3.8224   23.4315 C   0  0  0  0  0  0
  -21.9207   -4.7065   22.3393 C   0  0  0  0  0  0
  -22.7737  -13.5163   21.1906 C   0  0  0  0  0  0
  -22.1587   -4.2295   21.0944 F   0  0  0  0  0  0
  -21.5629   -3.4543   25.7670 F   0  0  0  0  0  0
  -29.9914  -13.5009   20.3530 N   0  0  0  0  0  0
  -26.2855  -12.9445   20.3738 N   0  0  0  0  0  0
  -25.9329  -11.6572   20.6154 N   0  0  0  0  0  0
  -22.0383  -12.8187   22.0449 N   0  0  0  0  0  0
  -25.4030  -15.2038   20.4599 N   0  0  0  0  0  0
  -31.9109  -14.6464   20.1953 O   0  0  0  0  0  0
  -21.6602   -6.8921   21.4247 O   0  0  0  0  0  0
  -22.3433  -14.5445   20.6685 O   0  0  0  0  0  0
  -24.6279  -31.8533   23.2031 C   0  0  0  0  0  0
  -25.9115  -32.4756   23.8347 C   0  0  1  0  0  0
  -27.2246  -27.3054   20.1469 C   0  0  0  0  0  0
  -25.5924  -33.8555   24.2291 N   0  0  0  0  0  0
  -23.4227  -30.4764   21.5445 C   0  0  2  0  0  0
  -24.8723  -28.9279   20.1148 C   0  0  0  0  0  0
  -22.7454  -29.4570   22.4914 C   0  0  0  0  0  0
  -18.0280  -28.1385   22.8482 C   0  0  0  0  0  0
  -24.1477  -36.7273   23.2654 C   0  0  0  0  0  0
  -25.9623  -30.7913   21.3670 C   0  0  0  0  0  0
  -26.0423  -29.4146   20.7147 C   0  0  0  0  0  0
  -27.2292  -28.6182   20.7112 C   0  0  0  0  0  0
  -26.0370  -26.8666   19.5271 C   0  0  0  0  0  0
  -24.8705  -27.6579   19.5133 C   0  0  0  0  0  0
  -23.6372  -29.8073   20.1620 C   0  0  0  0  0  0
  -25.4116  -36.3075   24.0343 C   0  0  1  0  0  0
  -20.5873  -28.3679   23.1288 C   0  0  2  0  0  0
  -20.6764  -26.9385   22.5423 C   0  0  0  0  0  0
  -19.5731  -26.6375   21.5240 C   0  0  0  0  0  0
  -18.1905  -26.7928   22.1632 C   0  0  0  0  0  0
  -19.1530  -28.8858   23.2875 C   0  0  0  0  0  0
  -18.9457  -30.1492   23.8841 C   0  0  0  0  0  0
  -17.6450  -30.6581   24.0563 C   0  0  0  0  0  0
  -25.9039  -34.9441   23.5116 C   0  0  0  0  0  0
  -16.5342  -29.9060   23.6367 C   0  0  0  0  0  0
  -16.7274  -28.6498   23.0353 C   0  0  0  0  0  0
  -26.4515  -31.6596   25.0733 C   0  0  0  0  0  0
  -25.3782  -31.3648   26.1473 C   0  0  0  0  0  0
  -27.0451  -30.3065   24.6189 C   0  0  0  0  0  0
  -27.6018  -32.4378   25.7518 C   0  0  0  0  0  0
  -27.5565  -37.1806   24.8474 C   0  0  0  0  0  0
  -21.4163  -29.3026   22.3669 N   0  0  0  0  0  0
  -26.4286  -37.3783   23.9415 N   0  0  0  0  0  0
  -24.6903  -31.0541   22.0969 N   0  0  0  0  0  0
  -23.4171  -28.8077   23.2976 O   0  0  0  0  0  0
  -28.2904  -26.3997   20.2181 O   0  0  0  0  0  0
  -26.5574  -34.8888   22.4670 O   0  0  0  0  0  0
  -23.5437  -32.1290   23.7384 O   0  0  0  0  0  0
  -29.0242  -23.3606   19.7176 C   0  0  0  0  0  0
  -29.3586  -21.9950   19.4723 C   0  0  0  0  0  0
  -28.5219  -23.8078   20.9578 C   0  0  0  0  0  0
  -28.3832  -22.8013   21.9782 C   0  0  0  0  0  0
  -28.7416  -21.4249   21.7512 C   0  0  0  0  0  0
  -29.2074  -20.9880   20.4823 C   0  0  0  0  0  0
  -29.0404  -16.2751   18.9386 C   0  0  0  0  0  0
  -30.4714  -16.6371   18.7434 C   0  0  0  0  0  0
  -30.0108  -16.0949   20.1026 C   0  0  0  0  0  0
  -29.8643  -21.6628   18.0729 C   0  0  0  0  0  0
  -27.7959  -23.1680   23.3369 C   0  0  0  0  0  0
  -28.5988  -20.3635   22.8510 C   0  0  0  0  0  0
  -30.7036  -16.8210   22.5180 C   0  0  0  0  0  0
  -28.0908  -25.3116   21.2031 C   0  0  0  0  0  0
  -29.3283  -19.4460   20.1712 C   0  0  0  0  0  0
  -29.9282  -17.1925   21.2429 C   0  0  1  0  0  0
  -30.2621  -18.6061   20.9328 O   0  0  0  0  0  0
  -31.4001  -12.4114   19.1273 H   0  0  0  0  0  0
  -30.1825  -11.4337   19.9113 H   0  0  0  0  0  0
  -29.6615  -11.7406   17.4594 H   0  0  0  0  0  0
  -29.5737  -13.4641   17.6919 H   0  0  0  0  0  0
  -27.8373  -11.2916   18.8974 H   0  0  0  0  0  0
  -27.2807  -12.5334   17.8279 H   0  0  0  0  0  0
  -27.5456  -14.2497   19.5120 H   0  0  0  0  0  0
  -28.7172  -12.2877   21.5179 H   0  0  0  0  0  0
  -28.5036  -14.0106   21.7294 H   0  0  0  0  0  0
  -25.2719   -9.5724   22.4874 H   0  0  0  0  0  0
  -24.0150   -7.4576   22.7407 H   0  0  0  0  0  0
  -21.0860   -8.8860   19.8962 H   0  0  0  0  0  0
  -22.3781  -10.9750   19.6275 H   0  0  0  0  0  0
  -21.2021   -7.6224   23.9813 H   0  0  0  0  0  0
  -21.1357   -6.0514   25.9092 H   0  0  0  0  0  0
  -22.0628   -2.7699   23.2763 H   0  0  0  0  0  0
  -22.3959  -11.9867   22.4917 H   0  0  0  0  0  0
  -21.1009  -13.1269   22.2618 H   0  0  0  0  0  0
  -24.6322  -15.8476   20.6095 H   0  0  0  0  0  0
  -26.2837  -15.6695   20.2912 H   0  0  0  0  0  0
  -26.7156  -32.5427   23.1069 H   0  0  0  0  0  0
  -25.0182  -33.9713   25.0510 H   0  0  0  0  0  0
  -22.7188  -31.2999   21.3994 H   0  0  0  0  0  0
  -23.3764  -35.9578   23.3300 H   0  0  0  0  0  0
  -24.3547  -36.8917   22.2065 H   0  0  0  0  0  0
  -23.7190  -37.6454   23.6681 H   0  0  0  0  0  0
  -26.0876  -31.5506   20.5935 H   0  0  0  0  0  0
  -26.8420  -30.8434   21.9955 H   0  0  0  0  0  0
  -28.1322  -28.9873   21.1755 H   0  0  0  0  0  0
  -26.0047  -25.8774   19.0888 H   0  0  0  0  0  0
  -23.9666  -27.2688   19.0666 H   0  0  0  0  0  0
  -23.7504  -30.5838   19.4043 H   0  0  0  0  0  0
  -22.7555  -29.2359   19.8629 H   0  0  0  0  0  0
  -25.1300  -36.1925   25.0830 H   0  0  0  0  0  0
  -21.0005  -28.3248   24.1402 H   0  0  0  0  0  0
  -20.5737  -26.2239   23.3609 H   0  0  0  0  0  0
  -21.6601  -26.7418   22.1162 H   0  0  0  0  0  0
  -19.6869  -25.6299   21.1240 H   0  0  0  0  0  0
  -19.6696  -27.3201   20.6786 H   0  0  0  0  0  0
  -17.4187  -26.6740   21.4001 H   0  0  0  0  0  0
  -18.0251  -26.0068   22.9012 H   0  0  0  0  0  0
  -19.7933  -30.7389   24.2080 H   0  0  0  0  0  0
  -17.4985  -31.6248   24.5185 H   0  0  0  0  0  0
  -15.5339  -30.2946   23.7750 H   0  0  0  0  0  0
  -15.8667  -28.0861   22.7042 H   0  0  0  0  0  0
  -24.6022  -30.6918   25.7794 H   0  0  0  0  0  0
  -24.8920  -32.2777   26.4902 H   0  0  0  0  0  0
  -25.8192  -30.8847   27.0231 H   0  0  0  0  0  0
  -26.3075  -29.6724   24.1271 H   0  0  0  0  0  0
  -27.4259  -29.7374   25.4676 H   0  0  0  0  0  0
  -27.8829  -30.4395   23.9351 H   0  0  0  0  0  0
  -27.2597  -33.3708   26.1979 H   0  0  0  0  0  0
  -28.3889  -32.6909   25.0413 H   0  0  0  0  0  0
  -28.0606  -31.8601   26.5545 H   0  0  0  0  0  0
  -28.2572  -38.0116   24.7564 H   0  0  0  0  0  0
  -28.1083  -36.2654   24.6284 H   0  0  0  0  0  0
  -27.2258  -37.1399   25.8867 H   0  0  0  0  0  0
  -20.9317  -29.8729   21.6881 H   0  0  0  0  0  0
  -26.0161  -38.2842   24.1483 H   0  0  0  0  0  0
  -29.1229  -24.0869   18.9230 H   0  0  0  0  0  0
  -28.7220  -15.4409   18.3277 H   0  0  0  0  0  0
  -28.3004  -17.0662   19.0328 H   0  0  0  0  0  0
  -30.7585  -17.6808   18.6754 H   0  0  0  0  0  0
  -31.0367  -15.9833   18.0816 H   0  0  0  0  0  0
  -29.9057  -22.5577   17.4464 H   0  0  0  0  0  0
  -29.2119  -20.9536   17.5645 H   0  0  0  0  0  0
  -30.8774  -21.2550   18.1113 H   0  0  0  0  0  0
  -27.3802  -24.1673   23.3779 H   0  0  0  0  0  0
  -28.5487  -23.0824   24.1207 H   0  0  0  0  0  0
  -26.9709  -22.5012   23.5867 H   0  0  0  0  0  0
  -28.1665  -20.7176   23.7819 H   0  0  0  0  0  0
  -29.5729  -19.9441   23.1012 H   0  0  0  0  0  0
  -27.9706  -19.5364   22.5167 H   0  0  0  0  0  0
  -30.2763  -15.9094   22.9394 H   0  0  0  0  0  0
  -30.6133  -17.5990   23.2775 H   0  0  0  0  0  0
  -31.7676  -16.6444   22.3448 H   0  0  0  0  0  0
  -28.6151  -25.6374   22.1034 H   0  0  0  0  0  0
  -27.0388  -25.2588   21.4770 H   0  0  0  0  0  0
  -29.5461  -19.3547   19.1131 H   0  0  0  0  0  0
  -28.3305  -19.0254   20.2915 H   0  0  0  0  0  0
  -28.8818  -17.2141   21.5440 H   0  0  0  0  0  0
  1 25  1  0  0  0
  1 30  2  0  0  0
  1 79  1  0  0  0
  2  3  1  0  0  0
  2 25  1  0  0  0
  2 88  1  0  0  0
  2 89  1  0  0  0
  3  4  1  0  0  0
  3 90  1  0  0  0
  3 91  1  0  0  0
  4  5  1  0  0  0
  4 92  1  0  0  0
  4 93  1  0  0  0
  5  6  1  0  0  0
  5 26  1  0  0  0
  5 94  1  0  0  0
  6 25  1  0  0  0
  6 95  1  0  0  0
  6 96  1  0  0  0
  7  8  2  0  0  0
  7 26  1  0  0  0
  7 29  1  0  0  0
  8  9  1  0  0  0
  8 22  1  0  0  0
  9 10  1  0  0  0
  9 27  2  0  0  0
 10 11  2  0  0  0
 10 15  1  0  0  0
 11 12  1  0  0  0
 11 97  1  0  0  0
 12 13  2  0  0  0
 12 98  1  0  0  0
 13 14  1  0  0  0
 13 31  1  0  0  0
 14 15  2  0  0  0
 14 99  1  0  0  0
 15100  1  0  0  0
 16 17  2  0  0  0
 16 21  1  0  0  0
 16 31  1  0  0  0
 17 18  1  0  0  0
 17101  1  0  0  0
 18 19  2  0  0  0
 18102  1  0  0  0
 19 20  1  0  0  0
 19 24  1  0  0  0
 20 21  2  0  0  0
 20103  1  0  0  0
 21 23  1  0  0  0
 22 28  1  0  0  0
 22 32  2  0  0  0
 26 27  1  0  0  0
 28104  1  0  0  0
 28105  1  0  0  0
 29106  1  0  0  0
 29107  1  0  0  0
 33 34  1  0  0  0
 33 66  1  0  0  0
 33 70  2  0  0  0
 34 36  1  0  0  0
 34 59  1  0  0  0
 34108  1  0  0  0
 35 44  2  0  0  0
 35 45  1  0  0  0
 35 68  1  0  0  0
 36 56  1  0  0  0
 36109  1  0  0  0
 37 39  1  0  0  0
 37 47  1  0  0  0
 37 66  1  0  0  0
 37110  1  0  0  0
 38 43  2  0  0  0
 38 46  1  0  0  0
 38 47  1  0  0  0
 39 64  1  0  0  0
 39 67  2  0  0  0
 40 52  1  0  0  0
 40 53  2  0  0  0
 40 58  1  0  0  0
 41111  1  0  0  0
 41112  1  0  0  0
 41113  1  0  0  0
 41 48  1  0  0  0
 42 43  1  0  0  0
 42 66  1  0  0  0
 42114  1  0  0  0
 42115  1  0  0  0
 43 44  1  0  0  0
 44116  1  0  0  0
 45 46  2  0  0  0
 45117  1  0  0  0
 46118  1  0  0  0
 47119  1  0  0  0
 47120  1  0  0  0
 48 56  1  0  0  0
 48 65  1  0  0  0
 48121  1  0  0  0
 49 50  1  0  0  0
 49 53  1  0  0  0
 49 64  1  0  0  0
 49122  1  0  0  0
 50 51  1  0  0  0
 50123  1  0  0  0
 50124  1  0  0  0
 51 52  1  0  0  0
 51125  1  0  0  0
 51126  1  0  0  0
 52127  1  0  0  0
 52128  1  0  0  0
 53 54  1  0  0  0
 54 55  2  0  0  0
 54129  1  0  0  0
 55 57  1  0  0  0
 55130  1  0  0  0
 56 69  2  0  0  0
 57 58  2  0  0  0
 57131  1  0  0  0
 58132  1  0  0  0
 59 60  1  0  0  0
 59 61  1  0  0  0
 59 62  1  0  0  0
 60133  1  0  0  0
 60134  1  0  0  0
 60135  1  0  0  0
 61136  1  0  0  0
 61137  1  0  0  0
 61138  1  0  0  0
 62139  1  0  0  0
 62140  1  0  0  0
 62141  1  0  0  0
 63 65  1  0  0  0
 63142  1  0  0  0
 63143  1  0  0  0
 63144  1  0  0  0
 64145  1  0  0  0
 65146  1  0  0  0
 68 84  1  0  0  0
 71 72  2  0  0  0
 71 73  1  0  0  0
 71147  1  0  0  0
 72 76  1  0  0  0
 72 80  1  0  0  0
 73 74  2  0  0  0
 73 84  1  0  0  0
 74 75  1  0  0  0
 74 81  1  0  0  0
 75 76  2  0  0  0
 75 82  1  0  0  0
 76 85  1  0  0  0
 77 78  1  0  0  0
 77 79  1  0  0  0
 77148  1  0  0  0
 77149  1  0  0  0
 78 79  1  0  0  0
 78150  1  0  0  0
 78151  1  0  0  0
 79 86  1  0  0  0
 80152  1  0  0  0
 80153  1  0  0  0
 80154  1  0  0  0
 81155  1  0  0  0
 81156  1  0  0  0
 81157  1  0  0  0
 82158  1  0  0  0
 82159  1  0  0  0
 82160  1  0  0  0
 83161  1  0  0  0
 83162  1  0  0  0
 83163  1  0  0  0
 83 86  1  0  0  0
 84164  1  0  0  0
 84165  1  0  0  0
 85 87  1  0  0  0
 85166  1  0  0  0
 85167  1  0  0  0
 86 87  1  0  0  0
 86168  1  0  0  0
M  ISO  4   1 100  68 101  79 100  84 101
M  END
> <chiral flag>
0

> <version>
0

> <s_m_source_file>
/data/baiqing/PycharmProjects/Reinvent-master-3.2/result/LINK_invent/BTK/process_docking_weight1_custom_sum_contain_oxygen_bond_distance_aromatic_linkinvent_7_9_3/rearranged_h_0151.sdf

> <i_m_source_file_index>
57

> <r_mmod_Potential_Energy-OPLS-2005>
341.181671142578

> <r_mmod_Stretch_Energy-OPLS-2005>
104.159866333008

> <r_mmod_Bend_Energy-OPLS-2005>
179.999465942383

> <r_mmod_Torsional_Energy-OPLS-2005>
285.535369873047

> <r_mmod_Improper_Torsional_Energy-OPLS-2005>
11.177453994751

> <r_mmod_Van_der_Waal_Energy-OPLS-2005>
155.601913452148

> <r_mmod_Electrostatic_Energy-OPLS-2005>
-285.020111083984

> <r_mmod_Solvation_Energy-OPLS-2005>
-191.489822387695

> <b_mmod_Minimization_Converged-OPLS-2005>
0

> <r_mmod_RMS_Derivative-OPLS-2005>
7.38126230239868

$$$$
57
                    3D
 Structure written by MMmdl.
183193  0  0  1  0            999 V2000
  -30.7093  -14.4283   20.3318 C   0  0  0  0  0  0
  -30.4083  -12.2014   19.4509 C   0  0  0  0  0  0
  -29.4815  -12.3272   18.2194 C   0  0  0  0  0  0
  -27.9959  -12.3015   18.6300 C   0  0  0  0  0  0
  -27.6504  -13.1943   19.8540 C   0  0  2  0  0  0
  -28.7072  -13.0602   20.9803 C   0  0  0  0  0  0
  -25.2571  -13.8149   20.5730 C   0  0  0  0  0  0
  -24.1811  -13.0437   20.9210 C   0  0  0  0  0  0
  -24.6354  -11.6905   20.8798 C   0  0  0  0  0  0
  -23.9028  -10.4290   21.0442 C   0  0  0  0  0  0
  -24.3585   -9.4205   21.9214 C   0  0  0  0  0  0
  -23.6268   -8.2238   22.0771 C   0  0  0  0  0  0
  -22.4255   -8.0276   21.3551 C   0  0  0  0  0  0
  -21.9889   -9.0253   20.4654 C   0  0  0  0  0  0
  -22.7212  -10.2139   20.3076 C   0  0  0  0  0  0
  -21.6842   -6.0731   22.5276 C   0  0  0  0  0  0
  -21.4010   -6.5641   23.8209 C   0  0  0  0  0  0
  -21.3662   -5.6794   24.9173 C   0  0  0  0  0  0
  -21.6042   -4.3055   24.7222 C   0  0  0  0  0  0
  -21.8811   -3.8143   23.4343 C   0  0  0  0  0  0
  -21.9183   -4.6959   22.3400 C   0  0  0  0  0  0
  -22.7838  -13.5253   21.1841 C   0  0  0  0  0  0
  -22.1649   -4.2145   21.0977 F   0  0  0  0  0  0
  -21.5631   -3.4541   25.7736 F   0  0  0  0  0  0
  -30.0445  -13.2548   20.4032 N   0  0  0  0  0  0
  -26.2983  -12.9290   20.3377 N   0  0  0  0  0  0
  -25.9280  -11.6475   20.5877 N   0  0  0  0  0  0
  -22.0448  -12.8258   22.0384 N   0  0  0  0  0  0
  -25.4291  -15.1876   20.4198 N   0  0  0  0  0  0
  -31.9316  -14.5438   20.2722 O   0  0  0  0  0  0
  -21.6628   -6.8873   21.4237 O   0  0  0  0  0  0
  -22.3560  -14.5574   20.6690 O   0  0  0  0  0  0
  -24.6055  -31.8730   23.2153 C   0  0  0  0  0  0
  -25.8979  -32.4849   23.8424 C   0  0  1  0  0  0
  -27.2417  -27.5071   20.0828 C   0  0  0  0  0  0
  -25.5857  -33.8650   24.2347 N   0  0  0  0  0  0
  -23.3883  -30.4975   21.5542 C   0  0  2  0  0  0
  -24.8326  -28.9683   20.1197 C   0  0  0  0  0  0
  -22.7348  -29.4692   22.5031 C   0  0  0  0  0  0
  -18.0250  -28.1380   22.8518 C   0  0  0  0  0  0
  -24.1484  -36.7337   23.2646 C   0  0  0  0  0  0
  -25.9072  -30.8619   21.3548 C   0  0  0  0  0  0
  -25.9855  -29.4987   20.7090 C   0  0  0  0  0  0
  -27.1877  -28.7717   20.6926 C   0  0  0  0  0  0
  -26.0643  -26.9624   19.5136 C   0  0  0  0  0  0
  -24.8624  -27.6947   19.5251 C   0  0  0  0  0  0
  -23.5906  -29.8259   20.1687 C   0  0  0  0  0  0
  -25.4104  -36.3135   24.0346 C   0  0  1  0  0  0
  -20.5829  -28.3657   23.1358 C   0  0  2  0  0  0
  -20.6731  -26.9406   22.5434 C   0  0  0  0  0  0
  -19.5711  -26.6395   21.5224 C   0  0  0  0  0  0
  -18.1891  -26.7933   22.1640 C   0  0  0  0  0  0
  -19.1497  -28.8835   23.2935 C   0  0  0  0  0  0
  -18.9431  -30.1442   23.8946 C   0  0  0  0  0  0
  -17.6436  -30.6594   24.0583 C   0  0  0  0  0  0
  -25.9025  -34.9494   23.5148 C   0  0  0  0  0  0
  -16.5327  -29.9109   23.6319 C   0  0  0  0  0  0
  -16.7242  -28.6516   23.0358 C   0  0  0  0  0  0
  -26.4441  -31.6616   25.0728 C   0  0  0  0  0  0
  -25.3732  -31.3664   26.1485 C   0  0  0  0  0  0
  -27.0284  -30.3086   24.6048 C   0  0  0  0  0  0
  -27.6017  -32.4336   25.7487 C   0  0  0  0  0  0
  -27.5581  -37.1827   24.8469 C   0  0  0  0  0  0
  -21.4083  -29.3044   22.3778 N   0  0  0  0  0  0
  -26.4297  -37.3811   23.9409 N   0  0  0  0  0  0
  -24.6520  -31.0898   22.1015 N   0  0  0  0  0  0
  -23.4157  -28.8232   23.3043 O   0  0  0  0  0  0
  -28.4713  -26.8991   20.0746 O   0  0  0  0  0  0
  -26.5596  -34.8938   22.4716 O   0  0  0  0  0  0
  -23.5270  -32.1451   23.7598 O   0  0  0  0  0  0
  -28.6724  -21.3057   18.2960 C   0  0  0  0  0  0
  -30.7903  -19.7969   17.2681 C   0  0  0  0  0  0
  -29.8297  -21.9604   17.8191 C   0  0  0  0  0  0
  -28.5741  -19.9069   18.2910 C   0  0  0  0  0  0
  -30.8842  -21.2002   17.2638 C   0  0  0  0  0  0
  -29.6591  -19.1449   17.8163 C   0  0  0  0  0  0
  -30.1379  -23.6550   19.5798 C   0  0  0  0  0  0
  -28.7519  -24.2278   17.4459 C   0  0  0  0  0  0
  -25.5929  -18.8116   15.4865 C   0  0  0  0  0  0
  -27.0322  -19.2694   15.5147 C   0  0  0  0  0  0
  -29.9575  -25.0990   20.0269 C   0  0  0  0  0  0
  -28.6545  -25.6589   17.9762 C   0  0  0  0  0  0
  -29.9488  -23.4555   18.0565 C   0  0  2  0  0  0
  -26.4783  -18.4495   16.6627 C   0  0  0  0  0  0
  -28.6166  -25.6188   19.5133 C   0  0  2  0  0  0
  -32.1399  -21.8507   16.7075 C   0  0  0  0  0  0
  -24.9449  -18.7482   18.5524 C   0  0  0  0  0  0
  -27.3220  -19.2448   18.8593 C   0  0  0  0  0  0
  -30.3851  -15.6306   18.2656 C   0  0  0  0  0  0
  -30.7816  -17.0743   18.0447 C   0  0  0  0  0  0
  -29.9816  -15.3106   19.6439 N   0  0  0  0  0  0
  -26.1884  -19.2181   17.9002 N   0  3  1  0  0  0
  -29.5644  -17.7854   17.9290 O   0  0  0  0  0  0
  -31.4546  -12.2617   19.1447 H   0  0  0  0  0  0
  -30.2864  -11.2245   19.9208 H   0  0  0  0  0  0
  -29.6751  -11.4967   17.5393 H   0  0  0  0  0  0
  -29.7007  -13.2142   17.6370 H   0  0  0  0  0  0
  -27.7566  -11.2626   18.8579 H   0  0  0  0  0  0
  -27.3663  -12.5703   17.7812 H   0  0  0  0  0  0
  -27.6541  -14.2199   19.4924 H   0  0  0  0  0  0
  -28.6510  -12.0764   21.4487 H   0  0  0  0  0  0
  -28.5230  -13.7921   21.7690 H   0  0  0  0  0  0
  -25.2726   -9.5690   22.4797 H   0  0  0  0  0  0
  -23.9976   -7.4631   22.7493 H   0  0  0  0  0  0
  -21.0825   -8.8771   19.8957 H   0  0  0  0  0  0
  -22.3668  -10.9684   19.6189 H   0  0  0  0  0  0
  -21.2010   -7.6149   23.9714 H   0  0  0  0  0  0
  -21.1491   -6.0525   25.9077 H   0  0  0  0  0  0
  -22.0585   -2.7604   23.2841 H   0  0  0  0  0  0
  -22.4024  -11.9901   22.4766 H   0  0  0  0  0  0
  -21.1085  -13.1330   22.2590 H   0  0  0  0  0  0
  -24.6741  -15.8379   20.6060 H   0  0  0  0  0  0
  -26.3054  -15.6383   20.1978 H   0  0  0  0  0  0
  -26.7054  -32.5594   23.1206 H   0  0  0  0  0  0
  -24.9973  -33.9819   25.0466 H   0  0  0  0  0  0
  -22.6734  -31.3116   21.4171 H   0  0  0  0  0  0
  -23.3743  -35.9673   23.3309 H   0  0  0  0  0  0
  -24.3577  -36.8959   22.2061 H   0  0  0  0  0  0
  -23.7238  -37.6543   23.6663 H   0  0  0  0  0  0
  -26.0007  -31.6277   20.5835 H   0  0  0  0  0  0
  -26.8025  -30.9236   21.9616 H   0  0  0  0  0  0
  -28.0835  -29.1863   21.1342 H   0  0  0  0  0  0
  -26.0531  -25.9889   19.0466 H   0  0  0  0  0  0
  -23.9731  -27.2762   19.0745 H   0  0  0  0  0  0
  -23.6891  -30.5974   19.4046 H   0  0  0  0  0  0
  -22.7176  -29.2370   19.8814 H   0  0  0  0  0  0
  -25.1274  -36.2012   25.0839 H   0  0  0  0  0  0
  -20.9921  -28.3218   24.1478 H   0  0  0  0  0  0
  -20.5630  -26.2269   23.3610 H   0  0  0  0  0  0
  -21.6604  -26.7451   22.1239 H   0  0  0  0  0  0
  -19.6874  -25.6317   21.1234 H   0  0  0  0  0  0
  -19.6647  -27.3220   20.6764 H   0  0  0  0  0  0
  -17.4159  -26.6696   21.4044 H   0  0  0  0  0  0
  -18.0294  -26.0065   22.9024 H   0  0  0  0  0  0
  -19.7902  -30.7241   24.2350 H   0  0  0  0  0  0
  -17.4990  -31.6277   24.5183 H   0  0  0  0  0  0
  -15.5333  -30.3030   23.7607 H   0  0  0  0  0  0
  -15.8636  -28.0839   22.7065 H   0  0  0  0  0  0
  -24.5899  -30.7026   25.7805 H   0  0  0  0  0  0
  -24.8925  -32.2797   26.5001 H   0  0  0  0  0  0
  -25.8114  -30.8777   27.0199 H   0  0  0  0  0  0
  -26.2815  -29.6833   24.1142 H   0  0  0  0  0  0
  -27.4138  -29.7326   25.4472 H   0  0  0  0  0  0
  -27.8601  -30.4445   23.9129 H   0  0  0  0  0  0
  -27.2635  -33.3625   26.2091 H   0  0  0  0  0  0
  -28.3809  -32.6919   25.0303 H   0  0  0  0  0  0
  -28.0703  -31.8447   26.5381 H   0  0  0  0  0  0
  -28.2601  -38.0122   24.7517 H   0  0  0  0  0  0
  -28.1072  -36.2652   24.6297 H   0  0  0  0  0  0
  -27.2293  -37.1485   25.8871 H   0  0  0  0  0  0
  -20.9218  -29.8805   21.7052 H   0  0  0  0  0  0
  -26.0190  -38.2892   24.1414 H   0  0  0  0  0  0
  -27.8688  -21.8772   18.7381 H   0  0  0  0  0  0
  -31.6192  -19.2343   16.8654 H   0  0  0  0  0  0
  -29.4133  -23.0595   20.1358 H   0  0  0  0  0  0
  -31.1189  -23.2873   19.8835 H   0  0  0  0  0  0
  -28.8292  -24.2311   16.3581 H   0  0  0  0  0  0
  -27.8038  -23.7435   17.6720 H   0  0  0  0  0  0
  -25.3370  -18.0159   14.7895 H   0  0  0  0  0  0
  -24.8272  -19.5743   15.6166 H   0  0  0  0  0  0
  -27.2193  -20.3315   15.6676 H   0  0  0  0  0  0
  -27.7261  -18.7732   14.8390 H   0  0  0  0  0  0
  -30.7760  -25.7169   19.6556 H   0  0  0  0  0  0
  -29.9936  -25.1525   21.1160 H   0  0  0  0  0  0
  -27.7696  -26.1381   17.5606 H   0  0  0  0  0  0
  -29.5053  -26.2480   17.6331 H   0  0  0  0  0  0
  -30.8372  -23.8591   17.5735 H   0  0  0  0  0  0
  -26.7884  -17.4154   16.8062 H   0  0  0  0  0  0
  -27.8248  -24.9601   19.8768 H   0  0  0  0  0  0
  -32.8151  -21.1159   16.2673 H   0  0  0  0  0  0
  -32.6843  -22.3711   17.4962 H   0  0  0  0  0  0
  -31.8849  -22.5684   15.9272 H   0  0  0  0  0  0
  -24.1024  -18.7718   17.8617 H   0  0  0  0  0  0
  -24.6857  -19.3801   19.4020 H   0  0  0  0  0  0
  -25.0542  -17.7243   18.9103 H   0  0  0  0  0  0
  -27.0256  -19.8004   19.7500 H   0  0  0  0  0  0
  -27.5396  -18.2337   19.2043 H   0  0  0  0  0  0
  -31.2080  -14.9971   17.9254 H   0  0  0  0  0  0
  -29.5537  -15.3981   17.5991 H   0  0  0  0  0  0
  -31.3425  -17.1271   17.1109 H   0  0  0  0  0  0
  -31.4134  -17.4491   18.8527 H   0  0  0  0  0  0
  -28.9879  -15.2046   19.7696 H   0  0  0  0  0  0
  -26.0220  -20.1756   17.6321 H   0  0  0  0  0  0
  1 25  1  0  0  0
  1 30  2  0  0  0
  1 91  1  0  0  0
  2  3  1  0  0  0
  2 25  1  0  0  0
  2 94  1  0  0  0
  2 95  1  0  0  0
  3  4  1  0  0  0
  3 96  1  0  0  0
  3 97  1  0  0  0
  4  5  1  0  0  0
  4 98  1  0  0  0
  4 99  1  0  0  0
  5  6  1  0  0  0
  5 26  1  0  0  0
  5100  1  0  0  0
  6 25  1  0  0  0
  6101  1  0  0  0
  6102  1  0  0  0
  7  8  2  0  0  0
  7 26  1  0  0  0
  7 29  1  0  0  0
  8  9  1  0  0  0
  8 22  1  0  0  0
  9 10  1  0  0  0
  9 27  2  0  0  0
 10 11  2  0  0  0
 10 15  1  0  0  0
 11 12  1  0  0  0
 11103  1  0  0  0
 12 13  2  0  0  0
 12104  1  0  0  0
 13 14  1  0  0  0
 13 31  1  0  0  0
 14 15  2  0  0  0
 14105  1  0  0  0
 15106  1  0  0  0
 16 17  2  0  0  0
 16 21  1  0  0  0
 16 31  1  0  0  0
 17 18  1  0  0  0
 17107  1  0  0  0
 18 19  2  0  0  0
 18108  1  0  0  0
 19 20  1  0  0  0
 19 24  1  0  0  0
 20 21  2  0  0  0
 20109  1  0  0  0
 21 23  1  0  0  0
 22 28  1  0  0  0
 22 32  2  0  0  0
 26 27  1  0  0  0
 28110  1  0  0  0
 28111  1  0  0  0
 29112  1  0  0  0
 29113  1  0  0  0
 33 34  1  0  0  0
 33 66  1  0  0  0
 33 70  2  0  0  0
 34 36  1  0  0  0
 34 59  1  0  0  0
 34114  1  0  0  0
 35 44  2  0  0  0
 35 45  1  0  0  0
 35 68  1  0  0  0
 36 56  1  0  0  0
 36115  1  0  0  0
 37 39  1  0  0  0
 37 47  1  0  0  0
 37 66  1  0  0  0
 37116  1  0  0  0
 38 43  2  0  0  0
 38 46  1  0  0  0
 38 47  1  0  0  0
 39 64  1  0  0  0
 39 67  2  0  0  0
 40 52  1  0  0  0
 40 53  2  0  0  0
 40 58  1  0  0  0
 41117  1  0  0  0
 41118  1  0  0  0
 41119  1  0  0  0
 41 48  1  0  0  0
 42 43  1  0  0  0
 42 66  1  0  0  0
 42120  1  0  0  0
 42121  1  0  0  0
 43 44  1  0  0  0
 44122  1  0  0  0
 45 46  2  0  0  0
 45123  1  0  0  0
 46124  1  0  0  0
 47125  1  0  0  0
 47126  1  0  0  0
 48 56  1  0  0  0
 48 65  1  0  0  0
 48127  1  0  0  0
 49 50  1  0  0  0
 49 53  1  0  0  0
 49 64  1  0  0  0
 49128  1  0  0  0
 50 51  1  0  0  0
 50129  1  0  0  0
 50130  1  0  0  0
 51 52  1  0  0  0
 51131  1  0  0  0
 51132  1  0  0  0
 52133  1  0  0  0
 52134  1  0  0  0
 53 54  1  0  0  0
 54 55  2  0  0  0
 54135  1  0  0  0
 55 57  1  0  0  0
 55136  1  0  0  0
 56 69  2  0  0  0
 57 58  2  0  0  0
 57137  1  0  0  0
 58138  1  0  0  0
 59 60  1  0  0  0
 59 61  1  0  0  0
 59 62  1  0  0  0
 60139  1  0  0  0
 60140  1  0  0  0
 60141  1  0  0  0
 61142  1  0  0  0
 61143  1  0  0  0
 61144  1  0  0  0
 62145  1  0  0  0
 62146  1  0  0  0
 62147  1  0  0  0
 63 65  1  0  0  0
 63148  1  0  0  0
 63149  1  0  0  0
 63150  1  0  0  0
 64151  1  0  0  0
 65152  1  0  0  0
 68 85  1  0  0  0
 71 73  2  0  0  0
 71 74  1  0  0  0
 71153  1  0  0  0
 72 75  2  0  0  0
 72 76  1  0  0  0
 72154  1  0  0  0
 73 75  1  0  0  0
 73 83  1  0  0  0
 74 76  2  0  0  0
 74 88  1  0  0  0
 75 86  1  0  0  0
 76 93  1  0  0  0
 77 81  1  0  0  0
 77 83  1  0  0  0
 77155  1  0  0  0
 77156  1  0  0  0
 78 82  1  0  0  0
 78 83  1  0  0  0
 78157  1  0  0  0
 78158  1  0  0  0
 79 80  1  0  0  0
 79159  1  0  0  0
 79160  1  0  0  0
 79 84  1  0  0  0
 80 84  1  0  0  0
 80161  1  0  0  0
 80162  1  0  0  0
 81 85  1  0  0  0
 81163  1  0  0  0
 81164  1  0  0  0
 82 85  1  0  0  0
 82165  1  0  0  0
 82166  1  0  0  0
 83167  1  0  0  0
 84 92  1  0  0  0
 84168  1  0  0  0
 85169  1  0  0  0
 86170  1  0  0  0
 86171  1  0  0  0
 86172  1  0  0  0
 87173  1  0  0  0
 87174  1  0  0  0
 87175  1  0  0  0
 87 92  1  0  0  0
 88 92  1  0  0  0
 88176  1  0  0  0
 88177  1  0  0  0
 89 90  1  0  0  0
 89 91  1  0  0  0
 89178  1  0  0  0
 89179  1  0  0  0
 90 93  1  0  0  0
 90180  1  0  0  0
 90181  1  0  0  0
 91182  1  0  0  0
 92183  1  0  0  0
M  CHG  1  92   1
M  ISO  4   1 100  68 101  85 101  91 100
M  END
> <chiral flag>
0

> <version>
0

> <s_m_source_file>
/data/baiqing/PycharmProjects/Reinvent-master-3.2/result/LINK_invent/BTK/process_docking_weight1_custom_sum_contain_oxygen_bond_distance_aromatic_linkinvent_7_9_3/rearranged_h_0151.sdf

> <i_m_source_file_index>
58

> <r_mmod_Potential_Energy-OPLS-2005>
-82.9033279418945

> <r_mmod_Stretch_Energy-OPLS-2005>
31.9834518432617

> <r_mmod_Bend_Energy-OPLS-2005>
125.81266784668

> <r_mmod_Torsional_Energy-OPLS-2005>
322.904510498047

> <r_mmod_Improper_Torsional_Energy-OPLS-2005>
29.057279586792

> <r_mmod_Van_der_Waal_Energy-OPLS-2005>
172.716384887695

> <r_mmod_Electrostatic_Energy-OPLS-2005>
-365.118438720703

> <r_mmod_Solvation_Energy-OPLS-2005>
-437.46484375

> <b_mmod_Minimization_Converged-OPLS-2005>
0

> <r_mmod_RMS_Derivative-OPLS-2005>
1.0925407409668

$$$$
58
                    3D
 Structure written by MMmdl.
171180  0  0  1  0            999 V2000
  -30.7336  -14.4725   20.6049 C   0  0  0  0  0  0
  -30.4203  -12.2888   19.4689 C   0  0  0  0  0  0
  -29.5187  -12.4881   18.2385 C   0  0  0  0  0  0
  -28.0362  -12.3577   18.6369 C   0  0  0  0  0  0
  -27.6738  -13.2133   19.8833 C   0  0  2  0  0  0
  -28.7063  -12.9987   21.0132 C   0  0  0  0  0  0
  -25.2705  -13.8274   20.5648 C   0  0  0  0  0  0
  -24.1892  -13.0570   20.9135 C   0  0  0  0  0  0
  -24.6406  -11.7034   20.8768 C   0  0  0  0  0  0
  -23.9054  -10.4397   21.0403 C   0  0  0  0  0  0
  -24.3630   -9.4335   21.9181 C   0  0  0  0  0  0
  -23.6326   -8.2338   22.0748 C   0  0  0  0  0  0
  -22.4324   -8.0298   21.3522 C   0  0  0  0  0  0
  -21.9938   -9.0277   20.4649 C   0  0  0  0  0  0
  -22.7240  -10.2183   20.3053 C   0  0  0  0  0  0
  -21.6856   -6.0747   22.5266 C   0  0  0  0  0  0
  -21.4018   -6.5645   23.8207 C   0  0  0  0  0  0
  -21.3669   -5.6782   24.9161 C   0  0  0  0  0  0
  -21.6040   -4.3029   24.7185 C   0  0  0  0  0  0
  -21.8826   -3.8143   23.4294 C   0  0  0  0  0  0
  -21.9213   -4.6978   22.3387 C   0  0  0  0  0  0
  -22.7925  -13.5422   21.1692 C   0  0  0  0  0  0
  -22.1672   -4.2170   21.0951 F   0  0  0  0  0  0
  -21.5622   -3.4515   25.7701 F   0  0  0  0  0  0
  -30.0461  -13.3006   20.4727 N   0  0  0  0  0  0
  -26.3115  -12.9396   20.3393 N   0  0  0  0  0  0
  -25.9365  -11.6590   20.5886 N   0  0  0  0  0  0
  -22.0417  -12.8513   22.0220 N   0  0  0  0  0  0
  -25.4607  -15.1968   20.4001 N   0  0  0  0  0  0
  -31.7835  -14.6942   19.9914 O   0  0  0  0  0  0
  -21.6627   -6.8910   21.4246 O   0  0  0  0  0  0
  -22.3689  -14.5654   20.6391 O   0  0  0  0  0  0
  -24.6117  -31.8658   23.2172 C   0  0  0  0  0  0
  -25.9002  -32.4844   23.8420 C   0  0  1  0  0  0
  -27.2455  -27.4579   20.0871 C   0  0  0  0  0  0
  -25.5869  -33.8636   24.2345 N   0  0  0  0  0  0
  -23.3973  -30.4841   21.5614 C   0  0  2  0  0  0
  -24.8502  -28.9681   20.1074 C   0  0  0  0  0  0
  -22.7384  -29.4575   22.5096 C   0  0  0  0  0  0
  -18.0254  -28.1301   22.8603 C   0  0  0  0  0  0
  -24.1428  -36.7264   23.2663 C   0  0  0  0  0  0
  -25.9199  -30.8484   21.3615 C   0  0  0  0  0  0
  -26.0065  -29.4877   20.6988 C   0  0  0  0  0  0
  -27.2091  -28.7432   20.6792 C   0  0  0  0  0  0
  -26.0772  -26.9714   19.4595 C   0  0  0  0  0  0
  -24.8846  -27.7121   19.4735 C   0  0  0  0  0  0
  -23.6003  -29.8197   20.1722 C   0  0  0  0  0  0
  -25.4063  -36.3119   24.0387 C   0  0  1  0  0  0
  -20.5848  -28.3527   23.1415 C   0  0  2  0  0  0
  -20.6732  -26.9267   22.5461 C   0  0  0  0  0  0
  -19.5673  -26.6324   21.5288 C   0  0  0  0  0  0
  -18.1855  -26.7877   22.1681 C   0  0  0  0  0  0
  -19.1514  -28.8758   23.2979 C   0  0  0  0  0  0
  -18.9444  -30.1404   23.8918 C   0  0  0  0  0  0
  -17.6437  -30.6551   24.0549 C   0  0  0  0  0  0
  -25.9004  -34.9499   23.5132 C   0  0  0  0  0  0
  -16.5326  -29.9024   23.6355 C   0  0  0  0  0  0
  -16.7247  -28.6415   23.0441 C   0  0  0  0  0  0
  -26.4467  -31.6654   25.0752 C   0  0  0  0  0  0
  -25.3833  -31.3721   26.1580 C   0  0  0  0  0  0
  -27.0309  -30.3142   24.6024 C   0  0  0  0  0  0
  -27.6019  -32.4454   25.7441 C   0  0  0  0  0  0
  -27.5539  -37.1775   24.8472 C   0  0  0  0  0  0
  -21.4127  -29.2883   22.3849 N   0  0  0  0  0  0
  -26.4221  -37.3808   23.9486 N   0  0  0  0  0  0
  -24.6602  -31.0788   22.1049 N   0  0  0  0  0  0
  -23.4176  -28.8163   23.3145 O   0  0  0  0  0  0
  -28.4208  -26.7306   20.1189 O   0  0  0  0  0  0
  -26.5476  -34.8954   22.4632 O   0  0  0  0  0  0
  -23.5333  -32.1338   23.7624 O   0  0  0  0  0  0
  -31.2650  -22.9645   22.4135 C   0  0  0  0  0  0
  -30.4170  -21.0270   21.2305 C   0  0  0  0  0  0
  -32.4453  -20.8122   22.6167 C   0  0  0  0  0  0
  -32.2874  -22.1843   22.9967 C   0  0  0  0  0  0
  -30.3344  -22.4191   21.5057 C   0  0  0  0  0  0
  -31.4601  -20.2222   21.7627 C   0  0  0  0  0  0
  -35.1138  -20.3420   23.1386 C   0  0  0  0  0  0
  -33.7569  -19.4230   24.5504 C   0  0  0  0  0  0
  -33.6280  -19.9260   23.0994 C   0  0  1  0  0  0
  -35.2903  -19.5443   24.4480 C   0  0  2  0  0  0
  -33.1249  -22.8881   24.0609 C   0  0  0  0  0  0
  -30.8915  -16.6627   21.8416 C   0  0  0  0  0  0
  -30.5634  -17.9826   21.0711 C   0  0  0  0  0  0
  -28.3218  -25.2911   20.0882 C   0  0  0  0  0  0
  -29.3931  -24.6249   20.9846 C   0  0  0  0  0  0
  -30.2166  -15.3999   21.4305 N   0  0  0  0  0  0
  -35.9603  -20.2817   25.5477 N   0  3  0  0  0  0
  -29.3521  -23.1817   20.8814 O   0  0  0  0  0  0
  -31.6311  -18.8824   21.4245 O   0  0  0  0  0  0
  -31.4751  -12.3460   19.1940 H   0  0  0  0  0  0
  -30.2892  -11.2887   19.8808 H   0  0  0  0  0  0
  -29.7678  -11.7509   17.4696 H   0  0  0  0  0  0
  -29.7073  -13.4597   17.7838 H   0  0  0  0  0  0
  -27.8575  -11.3041   18.8582 H   0  0  0  0  0  0
  -27.3911  -12.6027   17.7932 H   0  0  0  0  0  0
  -27.7237  -14.2649   19.5966 H   0  0  0  0  0  0
  -28.6876  -11.9542   21.3322 H   0  0  0  0  0  0
  -28.4537  -13.5794   21.8997 H   0  0  0  0  0  0
  -25.2760   -9.5792   22.4795 H   0  0  0  0  0  0
  -23.9987   -7.4756   22.7545 H   0  0  0  0  0  0
  -21.0802   -8.8809   19.9023 H   0  0  0  0  0  0
  -22.3670  -10.9690   19.6157 H   0  0  0  0  0  0
  -21.2000   -7.6150   23.9715 H   0  0  0  0  0  0
  -21.1488   -6.0486   25.9062 H   0  0  0  0  0  0
  -22.0607   -2.7596   23.2755 H   0  0  0  0  0  0
  -22.3838  -12.0247   22.4867 H   0  0  0  0  0  0
  -21.1055  -13.1684   22.2269 H   0  0  0  0  0  0
  -24.7301  -15.8927   20.4977 H   0  0  0  0  0  0
  -26.3504  -15.5834   20.0959 H   0  0  0  0  0  0
  -26.7063  -32.5549   23.1192 H   0  0  0  0  0  0
  -25.0324  -33.9768   25.0684 H   0  0  0  0  0  0
  -22.6862  -31.3022   21.4332 H   0  0  0  0  0  0
  -23.3770  -35.9515   23.3286 H   0  0  0  0  0  0
  -24.3558  -36.8886   22.2083 H   0  0  0  0  0  0
  -23.7062  -37.6421   23.6670 H   0  0  0  0  0  0
  -26.0351  -31.6454   20.6274 H   0  0  0  0  0  0
  -26.8078  -30.8869   21.9777 H   0  0  0  0  0  0
  -28.1043  -29.1550   21.1224 H   0  0  0  0  0  0
  -26.0783  -26.0364   18.9188 H   0  0  0  0  0  0
  -24.0167  -27.3215   18.9618 H   0  0  0  0  0  0
  -23.6564  -30.6019   19.4167 H   0  0  0  0  0  0
  -22.7322  -29.2200   19.8883 H   0  0  0  0  0  0
  -25.1230  -36.1993   25.0894 H   0  0  0  0  0  0
  -20.9929  -28.3063   24.1541 H   0  0  0  0  0  0
  -20.5726  -26.2072   23.3609 H   0  0  0  0  0  0
  -21.6573  -26.7330   22.1164 H   0  0  0  0  0  0
  -19.6784  -25.6260   21.1246 H   0  0  0  0  0  0
  -19.6647  -27.3211   20.6896 H   0  0  0  0  0  0
  -17.4145  -26.6758   21.4046 H   0  0  0  0  0  0
  -18.0126  -25.9974   22.8998 H   0  0  0  0  0  0
  -19.7927  -30.7243   24.2230 H   0  0  0  0  0  0
  -17.4986  -31.6276   24.5056 H   0  0  0  0  0  0
  -15.5304  -30.2897   23.7690 H   0  0  0  0  0  0
  -15.8651  -28.0711   22.7150 H   0  0  0  0  0  0
  -24.5934  -30.7106   25.7993 H   0  0  0  0  0  0
  -24.9141  -32.2871   26.5201 H   0  0  0  0  0  0
  -25.8342  -30.8819   27.0218 H   0  0  0  0  0  0
  -26.2770  -29.6914   24.1202 H   0  0  0  0  0  0
  -27.4265  -29.7362   25.4372 H   0  0  0  0  0  0
  -27.8534  -30.4504   23.9007 H   0  0  0  0  0  0
  -27.2565  -33.3785   26.1870 H   0  0  0  0  0  0
  -28.3822  -32.6974   25.0269 H   0  0  0  0  0  0
  -28.0654  -31.8730   26.5457 H   0  0  0  0  0  0
  -28.2554  -38.0079   24.7624 H   0  0  0  0  0  0
  -28.1022  -36.2651   24.6144 H   0  0  0  0  0  0
  -27.2287  -37.1200   25.8865 H   0  0  0  0  0  0
  -20.9261  -29.8556   21.7072 H   0  0  0  0  0  0
  -26.0135  -38.2859   24.1691 H   0  0  0  0  0  0
  -31.1974  -24.0098   22.6885 H   0  0  0  0  0  0
  -29.6994  -20.6038   20.5459 H   0  0  0  0  0  0
  -35.2824  -21.4127   23.2200 H   0  0  0  0  0  0
  -35.7240  -19.9394   22.3262 H   0  0  0  0  0  0
  -33.4150  -18.3899   24.6695 H   0  0  0  0  0  0
  -33.2822  -20.0784   25.2817 H   0  0  0  0  0  0
  -33.6458  -19.0445   22.4622 H   0  0  0  0  0  0
  -35.7511  -18.5678   24.2937 H   0  0  0  0  0  0
  -32.7105  -23.8764   24.2813 H   0  0  0  0  0  0
  -34.1646  -23.0510   23.7962 H   0  0  0  0  0  0
  -33.0992  -22.3519   25.0043 H   0  0  0  0  0  0
  -31.9724  -16.5035   21.7804 H   0  0  0  0  0  0
  -30.7033  -16.8394   22.8974 H   0  0  0  0  0  0
  -30.5872  -17.8171   19.9923 H   0  0  0  0  0  0
  -29.5696  -18.3624   21.3122 H   0  0  0  0  0  0
  -27.3420  -24.9522   20.4242 H   0  0  0  0  0  0
  -28.4533  -24.9477   19.0619 H   0  0  0  0  0  0
  -29.2136  -24.9355   22.0151 H   0  0  0  0  0  0
  -30.3688  -25.0046   20.6722 H   0  0  0  0  0  0
  -29.4067  -15.1114   21.9661 H   0  0  0  0  0  0
  -35.6754  -21.2431   25.5779 H   0  0  0  0  0  0
  -36.9641  -20.2692   25.4439 H   0  0  0  0  0  0
  -35.7707  -19.8575   26.4420 H   0  0  0  0  0  0
  1 25  1  0  0  0
  1 30  2  0  0  0
  1 86  1  0  0  0
  2  3  1  0  0  0
  2 25  1  0  0  0
  2 90  1  0  0  0
  2 91  1  0  0  0
  3  4  1  0  0  0
  3 92  1  0  0  0
  3 93  1  0  0  0
  4  5  1  0  0  0
  4 94  1  0  0  0
  4 95  1  0  0  0
  5  6  1  0  0  0
  5 26  1  0  0  0
  5 96  1  0  0  0
  6 25  1  0  0  0
  6 97  1  0  0  0
  6 98  1  0  0  0
  7  8  2  0  0  0
  7 26  1  0  0  0
  7 29  1  0  0  0
  8  9  1  0  0  0
  8 22  1  0  0  0
  9 10  1  0  0  0
  9 27  2  0  0  0
 10 11  2  0  0  0
 10 15  1  0  0  0
 11 12  1  0  0  0
 11 99  1  0  0  0
 12 13  2  0  0  0
 12100  1  0  0  0
 13 14  1  0  0  0
 13 31  1  0  0  0
 14 15  2  0  0  0
 14101  1  0  0  0
 15102  1  0  0  0
 16 17  2  0  0  0
 16 21  1  0  0  0
 16 31  1  0  0  0
 17 18  1  0  0  0
 17103  1  0  0  0
 18 19  2  0  0  0
 18104  1  0  0  0
 19 20  1  0  0  0
 19 24  1  0  0  0
 20 21  2  0  0  0
 20105  1  0  0  0
 21 23  1  0  0  0
 22 28  1  0  0  0
 22 32  2  0  0  0
 26 27  1  0  0  0
 28106  1  0  0  0
 28107  1  0  0  0
 29108  1  0  0  0
 29109  1  0  0  0
 33 34  1  0  0  0
 33 66  1  0  0  0
 33 70  2  0  0  0
 34 36  1  0  0  0
 34 59  1  0  0  0
 34110  1  0  0  0
 35 44  2  0  0  0
 35 45  1  0  0  0
 35 68  1  0  0  0
 36 56  1  0  0  0
 36111  1  0  0  0
 37 39  1  0  0  0
 37 47  1  0  0  0
 37 66  1  0  0  0
 37112  1  0  0  0
 38 43  2  0  0  0
 38 46  1  0  0  0
 38 47  1  0  0  0
 39 64  1  0  0  0
 39 67  2  0  0  0
 40 52  1  0  0  0
 40 53  2  0  0  0
 40 58  1  0  0  0
 41113  1  0  0  0
 41114  1  0  0  0
 41115  1  0  0  0
 41 48  1  0  0  0
 42 43  1  0  0  0
 42 66  1  0  0  0
 42116  1  0  0  0
 42117  1  0  0  0
 43 44  1  0  0  0
 44118  1  0  0  0
 45 46  2  0  0  0
 45119  1  0  0  0
 46120  1  0  0  0
 47121  1  0  0  0
 47122  1  0  0  0
 48 56  1  0  0  0
 48 65  1  0  0  0
 48123  1  0  0  0
 49 50  1  0  0  0
 49 53  1  0  0  0
 49 64  1  0  0  0
 49124  1  0  0  0
 50 51  1  0  0  0
 50125  1  0  0  0
 50126  1  0  0  0
 51 52  1  0  0  0
 51127  1  0  0  0
 51128  1  0  0  0
 52129  1  0  0  0
 52130  1  0  0  0
 53 54  1  0  0  0
 54 55  2  0  0  0
 54131  1  0  0  0
 55 57  1  0  0  0
 55132  1  0  0  0
 56 69  2  0  0  0
 57 58  2  0  0  0
 57133  1  0  0  0
 58134  1  0  0  0
 59 60  1  0  0  0
 59 61  1  0  0  0
 59 62  1  0  0  0
 60135  1  0  0  0
 60136  1  0  0  0
 60137  1  0  0  0
 61138  1  0  0  0
 61139  1  0  0  0
 61140  1  0  0  0
 62141  1  0  0  0
 62142  1  0  0  0
 62143  1  0  0  0
 63 65  1  0  0  0
 63144  1  0  0  0
 63145  1  0  0  0
 63146  1  0  0  0
 64147  1  0  0  0
 65148  1  0  0  0
 68 84  1  0  0  0
 71 74  2  0  0  0
 71 75  1  0  0  0
 71149  1  0  0  0
 72 75  2  0  0  0
 72 76  1  0  0  0
 72150  1  0  0  0
 73 74  1  0  0  0
 73 76  2  0  0  0
 73 79  1  0  0  0
 74 81  1  0  0  0
 75 88  1  0  0  0
 76 89  1  0  0  0
 77 79  1  0  0  0
 77 80  1  0  0  0
 77151  1  0  0  0
 77152  1  0  0  0
 78 79  1  0  0  0
 78 80  1  0  0  0
 78153  1  0  0  0
 78154  1  0  0  0
 79155  1  0  0  0
 80 87  1  0  0  0
 80156  1  0  0  0
 81157  1  0  0  0
 81158  1  0  0  0
 81159  1  0  0  0
 82 83  1  0  0  0
 82 86  1  0  0  0
 82160  1  0  0  0
 82161  1  0  0  0
 83 89  1  0  0  0
 83162  1  0  0  0
 83163  1  0  0  0
 84 85  1  0  0  0
 84164  1  0  0  0
 84165  1  0  0  0
 85 88  1  0  0  0
 85166  1  0  0  0
 85167  1  0  0  0
 86168  1  0  0  0
 87169  1  0  0  0
 87170  1  0  0  0
 87171  1  0  0  0
M  CHG  1  87   1
M  ISO  4   1 100  68 101  84 101  86 100
M  END
> <chiral flag>
0

> <version>
0

> <s_m_source_file>
/data/baiqing/PycharmProjects/Reinvent-master-3.2/result/LINK_invent/BTK/process_docking_weight1_custom_sum_contain_oxygen_bond_distance_aromatic_linkinvent_7_9_3/rearranged_h_0151.sdf

> <i_m_source_file_index>
59

> <r_mmod_Potential_Energy-OPLS-2005>
-248.812454223633

> <r_mmod_Stretch_Energy-OPLS-2005>
53.1503715515137

> <r_mmod_Bend_Energy-OPLS-2005>
158.806793212891

> <r_mmod_Torsional_Energy-OPLS-2005>
247.648574829102

> <r_mmod_Improper_Torsional_Energy-OPLS-2005>
2.50992465019226

> <r_mmod_Van_der_Waal_Energy-OPLS-2005>
163.142242431641

> <r_mmod_Electrostatic_Energy-OPLS-2005>
-352.698913574219

> <r_mmod_Solvation_Energy-OPLS-2005>
-535.226867675781

> <b_mmod_Minimization_Converged-OPLS-2005>
0

> <r_mmod_RMS_Derivative-OPLS-2005>
10.676230430603

$$$$
59
                    3D
 Structure written by MMmdl.
170180  0  0  1  0            999 V2000
  -30.7410  -14.3339   20.4774 C   0  0  0  0  0  0
  -30.4121  -12.1838   19.4209 C   0  0  0  0  0  0
  -29.4938  -12.4322   18.2060 C   0  0  0  0  0  0
  -28.0084  -12.3415   18.6130 C   0  0  0  0  0  0
  -27.6648  -13.1841   19.8705 C   0  0  2  0  0  0
  -28.7105  -12.9589   20.9948 C   0  0  0  0  0  0
  -25.2635  -13.8121   20.5668 C   0  0  0  0  0  0
  -24.1867  -13.0425   20.9174 C   0  0  0  0  0  0
  -24.6388  -11.6886   20.8736 C   0  0  0  0  0  0
  -23.9041  -10.4282   21.0406 C   0  0  0  0  0  0
  -24.3596   -9.4196   21.9182 C   0  0  0  0  0  0
  -23.6285   -8.2224   22.0746 C   0  0  0  0  0  0
  -22.4263   -8.0257   21.3536 C   0  0  0  0  0  0
  -21.9887   -9.0239   20.4643 C   0  0  0  0  0  0
  -22.7213  -10.2126   20.3059 C   0  0  0  0  0  0
  -21.6841   -6.0724   22.5273 C   0  0  0  0  0  0
  -21.4008   -6.5636   23.8208 C   0  0  0  0  0  0
  -21.3663   -5.6795   24.9173 C   0  0  0  0  0  0
  -21.6043   -4.3055   24.7220 C   0  0  0  0  0  0
  -21.8825   -3.8142   23.4347 C   0  0  0  0  0  0
  -21.9195   -4.6957   22.3401 C   0  0  0  0  0  0
  -22.7894  -13.5238   21.1838 C   0  0  0  0  0  0
  -22.1663   -4.2146   21.0980 F   0  0  0  0  0  0
  -21.5627   -3.4539   25.7734 F   0  0  0  0  0  0
  -30.0599  -13.1717   20.4402 N   0  0  0  0  0  0
  -26.3047  -12.9240   20.3361 N   0  0  0  0  0  0
  -25.9298  -11.6430   20.5767 N   0  0  0  0  0  0
  -22.0524  -12.8247   22.0399 N   0  0  0  0  0  0
  -25.4384  -15.1831   20.4051 N   0  0  0  0  0  0
  -31.9336  -14.4765   20.2009 O   0  0  0  0  0  0
  -21.6630   -6.8855   21.4232 O   0  0  0  0  0  0
  -22.3596  -14.5550   20.6678 O   0  0  0  0  0  0
  -24.6031  -31.8788   23.2201 C   0  0  0  0  0  0
  -25.8971  -32.4875   23.8460 C   0  0  1  0  0  0
  -27.2358  -27.5383   20.0598 C   0  0  0  0  0  0
  -25.5872  -33.8671   24.2390 N   0  0  0  0  0  0
  -23.3834  -30.5049   21.5604 C   0  0  2  0  0  0
  -24.8258  -28.9850   20.1181 C   0  0  0  0  0  0
  -22.7346  -29.4705   22.5052 C   0  0  0  0  0  0
  -18.0246  -28.1375   22.8491 C   0  0  0  0  0  0
  -24.1481  -36.7342   23.2639 C   0  0  0  0  0  0
  -25.9035  -30.8710   21.3594 C   0  0  0  0  0  0
  -25.9798  -29.5139   20.7067 C   0  0  0  0  0  0
  -27.1839  -28.7941   20.6803 C   0  0  0  0  0  0
  -26.0607  -26.9977   19.4791 C   0  0  0  0  0  0
  -24.8542  -27.7201   19.5089 C   0  0  0  0  0  0
  -23.5843  -29.8407   20.1729 C   0  0  0  0  0  0
  -25.4102  -36.3146   24.0346 C   0  0  1  0  0  0
  -20.5832  -28.3644   23.1352 C   0  0  2  0  0  0
  -20.6740  -26.9391   22.5423 C   0  0  0  0  0  0
  -19.5732  -26.6388   21.5206 C   0  0  0  0  0  0
  -18.1904  -26.7923   22.1610 C   0  0  0  0  0  0
  -19.1492  -28.8820   23.2918 C   0  0  0  0  0  0
  -18.9432  -30.1424   23.8928 C   0  0  0  0  0  0
  -17.6444  -30.6586   24.0560 C   0  0  0  0  0  0
  -25.9021  -34.9506   23.5159 C   0  0  0  0  0  0
  -16.5336  -29.9097   23.6321 C   0  0  0  0  0  0
  -16.7237  -28.6506   23.0344 C   0  0  0  0  0  0
  -26.4461  -31.6623   25.0741 C   0  0  0  0  0  0
  -25.3772  -31.3716   26.1531 C   0  0  0  0  0  0
  -27.0270  -30.3066   24.6053 C   0  0  0  0  0  0
  -27.6076  -32.4338   25.7452 C   0  0  0  0  0  0
  -27.5582  -37.1831   24.8470 C   0  0  0  0  0  0
  -21.4084  -29.3027   22.3777 N   0  0  0  0  0  0
  -26.4304  -37.3808   23.9396 N   0  0  0  0  0  0
  -24.6476  -31.0966   22.1065 N   0  0  0  0  0  0
  -23.4165  -28.8250   23.3044 O   0  0  0  0  0  0
  -28.4622  -26.9268   20.0506 O   0  0  0  0  0  0
  -26.5573  -34.8937   22.4717 O   0  0  0  0  0  0
  -23.5250  -32.1521   23.7641 O   0  0  0  0  0  0
  -28.9054  -21.0304   18.7326 C   0  0  0  0  0  0
  -29.5538  -19.0926   20.6379 C   0  0  0  0  0  0
  -29.3692  -21.4153   20.0113 C   0  0  0  0  0  0
  -29.1331  -18.7081   19.3485 C   0  0  0  0  0  0
  -29.6848  -20.4397   20.9803 C   0  0  0  0  0  0
  -28.7924  -19.6775   18.3883 C   0  0  0  0  0  0
  -27.9472  -23.3059   20.6156 C   0  0  0  0  0  0
  -30.1280  -23.7212   19.2911 C   0  0  0  0  0  0
  -27.8834  -24.7844   20.9251 C   0  0  0  0  0  0
  -30.0024  -25.2076   19.6102 C   0  0  0  0  0  0
  -29.9901  -16.5574   18.0848 C   0  0  0  0  0  0
  -29.3995  -22.8787   20.3578 C   0  0  2  0  0  0
  -29.0835  -17.2648   19.0596 C   0  0  1  0  0  0
  -30.2552  -16.4889   19.5719 C   0  0  1  0  0  0
  -28.5207  -25.5601   19.7596 C   0  0  2  0  0  0
  -30.1458  -20.7953   22.3849 C   0  0  0  0  0  0
  -28.2933  -19.2895   17.0078 C   0  0  0  0  0  0
  -29.9162  -15.3537   20.3309 N   0  0  0  0  0  0
  -31.4618  -12.2390   19.1238 H   0  0  0  0  0  0
  -30.2654  -11.1782   19.8179 H   0  0  0  0  0  0
  -29.7073  -11.7011   17.4252 H   0  0  0  0  0  0
  -29.7046  -13.4076   17.7688 H   0  0  0  0  0  0
  -27.7874  -11.2907   18.8014 H   0  0  0  0  0  0
  -27.3701  -12.6372   17.7798 H   0  0  0  0  0  0
  -27.7002  -14.2255   19.5570 H   0  0  0  0  0  0
  -28.6370  -11.9431   21.3864 H   0  0  0  0  0  0
  -28.5207  -13.6212   21.8418 H   0  0  0  0  0  0
  -25.2742   -9.5684   22.4755 H   0  0  0  0  0  0
  -24.0000   -7.4615   22.7464 H   0  0  0  0  0  0
  -21.0810   -8.8754   19.8957 H   0  0  0  0  0  0
  -22.3655  -10.9665   19.6170 H   0  0  0  0  0  0
  -21.1994   -7.6141   23.9704 H   0  0  0  0  0  0
  -21.1483   -6.0524   25.9079 H   0  0  0  0  0  0
  -22.0603   -2.7603   23.2842 H   0  0  0  0  0  0
  -22.4106  -11.9899   22.4800 H   0  0  0  0  0  0
  -21.1142  -13.1293   22.2582 H   0  0  0  0  0  0
  -24.6712  -15.8380   20.5106 H   0  0  0  0  0  0
  -26.2886  -15.6244   20.0824 H   0  0  0  0  0  0
  -26.7025  -32.5624   23.1221 H   0  0  0  0  0  0
  -25.0009  -33.9864   25.0514 H   0  0  0  0  0  0
  -22.6647  -31.3176   21.4301 H   0  0  0  0  0  0
  -23.3716  -35.9711   23.3387 H   0  0  0  0  0  0
  -24.3556  -36.8865   22.2038 H   0  0  0  0  0  0
  -23.7283  -37.6592   23.6593 H   0  0  0  0  0  0
  -26.0043  -31.6411   20.5938 H   0  0  0  0  0  0
  -26.7966  -30.9231   21.9703 H   0  0  0  0  0  0
  -28.0794  -29.2048   21.1263 H   0  0  0  0  0  0
  -26.0462  -26.0354   18.9923 H   0  0  0  0  0  0
  -23.9642  -27.3082   19.0538 H   0  0  0  0  0  0
  -23.6842  -30.6195   19.4161 H   0  0  0  0  0  0
  -22.7098  -29.2567   19.8811 H   0  0  0  0  0  0
  -25.1270  -36.2043   25.0841 H   0  0  0  0  0  0
  -20.9918  -28.3211   24.1481 H   0  0  0  0  0  0
  -20.5647  -26.2256   23.3597 H   0  0  0  0  0  0
  -21.6621  -26.7462   22.1228 H   0  0  0  0  0  0
  -19.6911  -25.6311   21.1213 H   0  0  0  0  0  0
  -19.6688  -27.3210   20.6746 H   0  0  0  0  0  0
  -17.4188  -26.6681   21.3992 H   0  0  0  0  0  0
  -18.0298  -26.0042   22.8985 H   0  0  0  0  0  0
  -19.7914  -30.7191   24.2349 H   0  0  0  0  0  0
  -17.5018  -31.6274   24.5151 H   0  0  0  0  0  0
  -15.5338  -30.3015   23.7622 H   0  0  0  0  0  0
  -15.8640  -28.0832   22.7061 H   0  0  0  0  0  0
  -24.5909  -30.7091   25.7893 H   0  0  0  0  0  0
  -24.8995  -32.2867   26.5042 H   0  0  0  0  0  0
  -25.8163  -30.8852   27.0251 H   0  0  0  0  0  0
  -26.2774  -29.6807   24.1195 H   0  0  0  0  0  0
  -27.4149  -29.7316   25.4470 H   0  0  0  0  0  0
  -27.8563  -30.4378   23.9100 H   0  0  0  0  0  0
  -27.2721  -33.3613   26.2104 H   0  0  0  0  0  0
  -28.3822  -32.6958   25.0231 H   0  0  0  0  0  0
  -28.0832  -31.8436   26.5294 H   0  0  0  0  0  0
  -28.2655  -38.0067   24.7430 H   0  0  0  0  0  0
  -28.1014  -36.2601   24.6390 H   0  0  0  0  0  0
  -27.2298  -37.1601   25.8873 H   0  0  0  0  0  0
  -20.9235  -29.8740   21.7000 H   0  0  0  0  0  0
  -26.0215  -38.2904   24.1348 H   0  0  0  0  0  0
  -28.6060  -21.7729   18.0074 H   0  0  0  0  0  0
  -29.7949  -18.3399   21.3755 H   0  0  0  0  0  0
  -27.3230  -23.0975   19.7461 H   0  0  0  0  0  0
  -27.5226  -22.7349   21.4428 H   0  0  0  0  0  0
  -31.1796  -23.4320   19.2400 H   0  0  0  0  0  0
  -29.7167  -23.5615   18.2963 H   0  0  0  0  0  0
  -28.4091  -24.9961   21.8561 H   0  0  0  0  0  0
  -26.8416  -25.0573   21.0891 H   0  0  0  0  0  0
  -30.4554  -25.8012   18.8149 H   0  0  0  0  0  0
  -30.5426  -25.4445   20.5284 H   0  0  0  0  0  0
  -30.6636  -17.1653   17.4818 H   0  0  0  0  0  0
  -29.6093  -15.6647   17.5954 H   0  0  0  0  0  0
  -29.9605  -23.0436   21.2766 H   0  0  0  0  0  0
  -28.0798  -16.8642   19.1936 H   0  0  0  0  0  0
  -31.1450  -17.0337   19.8890 H   0  0  0  0  0  0
  -28.0324  -25.3390   18.8090 H   0  0  0  0  0  0
  -30.1509  -19.9212   23.0371 H   0  0  0  0  0  0
  -29.4815  -21.5281   22.8423 H   0  0  0  0  0  0
  -31.1567  -21.2043   22.3577 H   0  0  0  0  0  0
  -28.1915  -20.1617   16.3611 H   0  0  0  0  0  0
  -27.3178  -18.8071   17.0763 H   0  0  0  0  0  0
  -28.9850  -18.6022   16.5219 H   0  0  0  0  0  0
  -28.9404  -15.1729   20.5045 H   0  0  0  0  0  0
  1 25  1  0  0  0
  1 30  2  0  0  0
  1 88  1  0  0  0
  2  3  1  0  0  0
  2 25  1  0  0  0
  2 89  1  0  0  0
  2 90  1  0  0  0
  3  4  1  0  0  0
  3 91  1  0  0  0
  3 92  1  0  0  0
  4  5  1  0  0  0
  4 93  1  0  0  0
  4 94  1  0  0  0
  5  6  1  0  0  0
  5 26  1  0  0  0
  5 95  1  0  0  0
  6 25  1  0  0  0
  6 96  1  0  0  0
  6 97  1  0  0  0
  7  8  2  0  0  0
  7 26  1  0  0  0
  7 29  1  0  0  0
  8  9  1  0  0  0
  8 22  1  0  0  0
  9 10  1  0  0  0
  9 27  2  0  0  0
 10 11  2  0  0  0
 10 15  1  0  0  0
 11 12  1  0  0  0
 11 98  1  0  0  0
 12 13  2  0  0  0
 12 99  1  0  0  0
 13 14  1  0  0  0
 13 31  1  0  0  0
 14 15  2  0  0  0
 14100  1  0  0  0
 15101  1  0  0  0
 16 17  2  0  0  0
 16 21  1  0  0  0
 16 31  1  0  0  0
 17 18  1  0  0  0
 17102  1  0  0  0
 18 19  2  0  0  0
 18103  1  0  0  0
 19 20  1  0  0  0
 19 24  1  0  0  0
 20 21  2  0  0  0
 20104  1  0  0  0
 21 23  1  0  0  0
 22 28  1  0  0  0
 22 32  2  0  0  0
 26 27  1  0  0  0
 28105  1  0  0  0
 28106  1  0  0  0
 29107  1  0  0  0
 29108  1  0  0  0
 33 34  1  0  0  0
 33 66  1  0  0  0
 33 70  2  0  0  0
 34 36  1  0  0  0
 34 59  1  0  0  0
 34109  1  0  0  0
 35 44  2  0  0  0
 35 45  1  0  0  0
 35 68  1  0  0  0
 36 56  1  0  0  0
 36110  1  0  0  0
 37 39  1  0  0  0
 37 47  1  0  0  0
 37 66  1  0  0  0
 37111  1  0  0  0
 38 43  2  0  0  0
 38 46  1  0  0  0
 38 47  1  0  0  0
 39 64  1  0  0  0
 39 67  2  0  0  0
 40 52  1  0  0  0
 40 53  2  0  0  0
 40 58  1  0  0  0
 41112  1  0  0  0
 41113  1  0  0  0
 41114  1  0  0  0
 41 48  1  0  0  0
 42 43  1  0  0  0
 42 66  1  0  0  0
 42115  1  0  0  0
 42116  1  0  0  0
 43 44  1  0  0  0
 44117  1  0  0  0
 45 46  2  0  0  0
 45118  1  0  0  0
 46119  1  0  0  0
 47120  1  0  0  0
 47121  1  0  0  0
 48 56  1  0  0  0
 48 65  1  0  0  0
 48122  1  0  0  0
 49 50  1  0  0  0
 49 53  1  0  0  0
 49 64  1  0  0  0
 49123  1  0  0  0
 50 51  1  0  0  0
 50124  1  0  0  0
 50125  1  0  0  0
 51 52  1  0  0  0
 51126  1  0  0  0
 51127  1  0  0  0
 52128  1  0  0  0
 52129  1  0  0  0
 53 54  1  0  0  0
 54 55  2  0  0  0
 54130  1  0  0  0
 55 57  1  0  0  0
 55131  1  0  0  0
 56 69  2  0  0  0
 57 58  2  0  0  0
 57132  1  0  0  0
 58133  1  0  0  0
 59 60  1  0  0  0
 59 61  1  0  0  0
 59 62  1  0  0  0
 60134  1  0  0  0
 60135  1  0  0  0
 60136  1  0  0  0
 61137  1  0  0  0
 61138  1  0  0  0
 61139  1  0  0  0
 62140  1  0  0  0
 62141  1  0  0  0
 62142  1  0  0  0
 63 65  1  0  0  0
 63143  1  0  0  0
 63144  1  0  0  0
 63145  1  0  0  0
 64146  1  0  0  0
 65147  1  0  0  0
 68 85  1  0  0  0
 71 73  2  0  0  0
 71 76  1  0  0  0
 71148  1  0  0  0
 72 74  1  0  0  0
 72 75  2  0  0  0
 72149  1  0  0  0
 73 75  1  0  0  0
 73 82  1  0  0  0
 74 76  2  0  0  0
 74 83  1  0  0  0
 75 86  1  0  0  0
 76 87  1  0  0  0
 77 79  1  0  0  0
 77 82  1  0  0  0
 77150  1  0  0  0
 77151  1  0  0  0
 78 80  1  0  0  0
 78 82  1  0  0  0
 78152  1  0  0  0
 78153  1  0  0  0
 79 85  1  0  0  0
 79154  1  0  0  0
 79155  1  0  0  0
 80 85  1  0  0  0
 80156  1  0  0  0
 80157  1  0  0  0
 81 83  1  0  0  0
 81 84  1  0  0  0
 81158  1  0  0  0
 81159  1  0  0  0
 82160  1  0  0  0
 83 84  1  0  0  0
 83161  1  0  0  0
 84 88  1  0  0  0
 84162  1  0  0  0
 85163  1  0  0  0
 86164  1  0  0  0
 86165  1  0  0  0
 86166  1  0  0  0
 87167  1  0  0  0
 87168  1  0  0  0
 87169  1  0  0  0
 88170  1  0  0  0
M  ISO  4   1 100  68 101  85 101  88 100
M  END
> <chiral flag>
0

> <version>
0

> <s_m_source_file>
/data/baiqing/PycharmProjects/Reinvent-master-3.2/result/LINK_invent/BTK/process_docking_weight1_custom_sum_contain_oxygen_bond_distance_aromatic_linkinvent_7_9_3/rearranged_h_0151.sdf

> <i_m_source_file_index>
60

> <r_mmod_Potential_Energy-OPLS-2005>
49.5430679321289

> <r_mmod_Stretch_Energy-OPLS-2005>
30.0138473510742

> <r_mmod_Bend_Energy-OPLS-2005>
108.107933044434

> <r_mmod_Torsional_Energy-OPLS-2005>
295.878448486328

> <r_mmod_Improper_Torsional_Energy-OPLS-2005>
17.0470142364502

> <r_mmod_Van_der_Waal_Energy-OPLS-2005>
179.627777099609

> <r_mmod_Electrostatic_Energy-OPLS-2005>
-404.7841796875

> <r_mmod_Solvation_Energy-OPLS-2005>
-201.227905273438

> <b_mmod_Minimization_Converged-OPLS-2005>
0

> <r_mmod_RMS_Derivative-OPLS-2005>
2.25957560539246

$$$$
60
                    3D
 Structure written by MMmdl.
173183  0  0  1  0            999 V2000
  -30.7277  -14.4914   20.5318 C   0  0  0  0  0  0
  -30.4151  -12.3077   19.4350 C   0  0  0  0  0  0
  -29.4991  -12.4978   18.2101 C   0  0  0  0  0  0
  -28.0183  -12.3709   18.6182 C   0  0  0  0  0  0
  -27.6588  -13.2202   19.8683 C   0  0  2  0  0  0
  -28.7036  -13.0501   20.9948 C   0  0  0  0  0  0
  -25.2570  -13.8183   20.5684 C   0  0  0  0  0  0
  -24.1832  -13.0443   20.9171 C   0  0  0  0  0  0
  -24.6401  -11.6916   20.8721 C   0  0  0  0  0  0
  -23.9070  -10.4299   21.0396 C   0  0  0  0  0  0
  -24.3617   -9.4215   21.9173 C   0  0  0  0  0  0
  -23.6292   -8.2251   22.0746 C   0  0  0  0  0  0
  -22.4271   -8.0284   21.3539 C   0  0  0  0  0  0
  -21.9907   -9.0263   20.4648 C   0  0  0  0  0  0
  -22.7240  -10.2139   20.3053 C   0  0  0  0  0  0
  -21.6858   -6.0732   22.5276 C   0  0  0  0  0  0
  -21.4017   -6.5635   23.8210 C   0  0  0  0  0  0
  -21.3662   -5.6786   24.9172 C   0  0  0  0  0  0
  -21.6045   -4.3049   24.7220 C   0  0  0  0  0  0
  -21.8821   -3.8145   23.4340 C   0  0  0  0  0  0
  -21.9193   -4.6960   22.3397 C   0  0  0  0  0  0
  -22.7856  -13.5238   21.1841 C   0  0  0  0  0  0
  -22.1664   -4.2146   21.0972 F   0  0  0  0  0  0
  -21.5627   -3.4532   25.7735 F   0  0  0  0  0  0
  -30.0304  -13.3262   20.4246 N   0  0  0  0  0  0
  -26.3021  -12.9385   20.3346 N   0  0  0  0  0  0
  -25.9334  -11.6530   20.5747 N   0  0  0  0  0  0
  -22.0497  -12.8236   22.0406 N   0  0  0  0  0  0
  -25.4296  -15.1900   20.4107 N   0  0  0  0  0  0
  -31.8967  -14.5993   20.1471 O   0  0  0  0  0  0
  -21.6641   -6.8877   21.4237 O   0  0  0  0  0  0
  -22.3539  -14.5547   20.6698 O   0  0  0  0  0  0
  -24.6202  -31.8682   23.2127 C   0  0  0  0  0  0
  -25.9087  -32.4824   23.8412 C   0  0  1  0  0  0
  -27.2144  -27.3928   20.0893 C   0  0  0  0  0  0
  -25.5935  -33.8619   24.2340 N   0  0  0  0  0  0
  -23.4068  -30.4989   21.5559 C   0  0  2  0  0  0
  -24.8475  -28.9748   20.1126 C   0  0  0  0  0  0
  -22.7436  -29.4677   22.4986 C   0  0  0  0  0  0
  -18.0276  -28.1379   22.8488 C   0  0  0  0  0  0
  -24.1493  -36.7312   23.2637 C   0  0  0  0  0  0
  -25.9453  -30.8221   21.3737 C   0  0  0  0  0  0
  -26.0179  -29.4584   20.7123 C   0  0  0  0  0  0
  -27.2048  -28.6779   20.6957 C   0  0  0  0  0  0
  -26.0146  -26.9548   19.4691 C   0  0  0  0  0  0
  -24.8443  -27.7241   19.4869 C   0  0  0  0  0  0
  -23.6147  -29.8462   20.1676 C   0  0  0  0  0  0
  -25.4115  -36.3111   24.0338 C   0  0  1  0  0  0
  -20.5870  -28.3677   23.1302 C   0  0  2  0  0  0
  -20.6772  -26.9412   22.5403 C   0  0  0  0  0  0
  -19.5751  -26.6387   21.5205 C   0  0  0  0  0  0
  -18.1928  -26.7923   22.1618 C   0  0  0  0  0  0
  -19.1525  -28.8842   23.2889 C   0  0  0  0  0  0
  -18.9450  -30.1448   23.8898 C   0  0  0  0  0  0
  -17.6454  -30.6585   24.0561 C   0  0  0  0  0  0
  -25.9044  -34.9475   23.5130 C   0  0  0  0  0  0
  -16.5346  -29.9084   23.6326 C   0  0  0  0  0  0
  -16.7265  -28.6500   23.0346 C   0  0  0  0  0  0
  -26.4491  -31.6597   25.0740 C   0  0  0  0  0  0
  -25.3751  -31.3719   26.1487 C   0  0  0  0  0  0
  -27.0307  -30.3025   24.6139 C   0  0  0  0  0  0
  -27.6081  -32.4303   25.7489 C   0  0  0  0  0  0
  -27.5581  -37.1821   24.8471 C   0  0  0  0  0  0
  -21.4160  -29.3046   22.3716 N   0  0  0  0  0  0
  -26.4307  -37.3791   23.9398 N   0  0  0  0  0  0
  -24.6764  -31.0767   22.1050 N   0  0  0  0  0  0
  -23.4198  -28.8199   23.3018 O   0  0  0  0  0  0
  -28.3454  -26.5772   20.1289 O   0  0  0  0  0  0
  -26.5587  -34.8926   22.4682 O   0  0  0  0  0  0
  -23.5384  -32.1451   23.7499 O   0  0  0  0  0  0
  -30.2434  -24.1538   19.1638 C   0  0  0  0  0  0
  -29.1188  -23.0187   20.9987 C   0  0  0  0  0  0
  -29.1982  -24.1320   20.1038 C   0  0  0  0  0  0
  -31.1206  -23.0625   19.0864 C   0  0  0  0  0  0
  -30.0324  -21.9353   20.8128 C   0  0  0  0  0  0
  -27.8168  -24.1245   23.0141 C   0  0  0  0  0  0
  -28.4259  -22.8532   23.5388 C   0  0  0  0  0  0
  -28.7506  -17.5915   19.8802 C   0  0  0  0  0  0
  -29.3404  -17.5051   22.3139 C   0  0  0  0  0  0
  -29.8368  -16.5215   19.6410 C   0  0  0  0  0  0
  -30.3891  -16.4141   21.9741 C   0  0  0  0  0  0
  -28.0597  -22.9613   22.0723 C   0  0  0  0  0  0
  -29.0089  -18.4488   21.1320 C   0  0  0  0  0  0
  -32.2273  -23.0237   18.0544 C   0  0  0  0  0  0
  -31.2299  -20.5772   22.5859 C   0  0  0  0  0  0
  -28.0677  -25.1623   19.9447 C   0  0  0  0  0  0
  -30.0076  -20.6312   21.6538 C   0  0  2  0  0  0
  -31.0063  -21.9763   19.8731 N   0  0  0  0  0  0
  -30.0078  -15.6148   20.7943 N   0  0  0  0  0  0
  -30.0268  -19.4282   20.8520 O   0  0  0  0  0  0
  -31.4636  -12.3803   19.1404 H   0  0  0  0  0  0
  -30.2908  -11.3081   19.8552 H   0  0  0  0  0  0
  -29.7395  -11.7618   17.4420 H   0  0  0  0  0  0
  -29.6777  -13.4753   17.7602 H   0  0  0  0  0  0
  -27.8208  -11.3169   18.8145 H   0  0  0  0  0  0
  -27.3757  -12.6503   17.7827 H   0  0  0  0  0  0
  -27.6884  -14.2634   19.5528 H   0  0  0  0  0  0
  -28.6754  -12.0369   21.3993 H   0  0  0  0  0  0
  -28.4793  -13.7169   21.8295 H   0  0  0  0  0  0
  -25.2764   -9.5693   22.4736 H   0  0  0  0  0  0
  -24.0011   -7.4641   22.7460 H   0  0  0  0  0  0
  -21.0837   -8.8778   19.8963 H   0  0  0  0  0  0
  -22.3692  -10.9669   19.6159 H   0  0  0  0  0  0
  -21.2018   -7.6144   23.9708 H   0  0  0  0  0  0
  -21.1483   -6.0517   25.9070 H   0  0  0  0  0  0
  -22.0601   -2.7607   23.2836 H   0  0  0  0  0  0
  -22.4121  -11.9906   22.4804 H   0  0  0  0  0  0
  -21.1121  -13.1278   22.2613 H   0  0  0  0  0  0
  -24.6680  -15.8504   20.5212 H   0  0  0  0  0  0
  -26.2923  -15.6238   20.1102 H   0  0  0  0  0  0
  -26.7154  -32.5518   23.1168 H   0  0  0  0  0  0
  -25.0108  -33.9777   25.0499 H   0  0  0  0  0  0
  -22.6962  -31.3176   21.4244 H   0  0  0  0  0  0
  -23.3740  -35.9664   23.3345 H   0  0  0  0  0  0
  -24.3578  -36.8874   22.2041 H   0  0  0  0  0  0
  -23.7274  -37.6547   23.6614 H   0  0  0  0  0  0
  -26.0678  -31.5909   20.6092 H   0  0  0  0  0  0
  -26.8299  -30.8667   21.9975 H   0  0  0  0  0  0
  -28.1033  -29.0451   21.1723 H   0  0  0  0  0  0
  -25.9272  -26.0078   18.9611 H   0  0  0  0  0  0
  -23.9467  -27.3485   19.0150 H   0  0  0  0  0  0
  -23.7281  -30.6272   19.4151 H   0  0  0  0  0  0
  -22.7350  -29.2738   19.8658 H   0  0  0  0  0  0
  -25.1292  -36.1982   25.0833 H   0  0  0  0  0  0
  -20.9958  -28.3245   24.1427 H   0  0  0  0  0  0
  -20.5689  -26.2285   23.3593 H   0  0  0  0  0  0
  -21.6643  -26.7466   22.1198 H   0  0  0  0  0  0
  -19.6920  -25.6298   21.1236 H   0  0  0  0  0  0
  -19.6691  -27.3194   20.6734 H   0  0  0  0  0  0
  -17.4200  -26.6664   21.4018 H   0  0  0  0  0  0
  -18.0339  -26.0062   22.9016 H   0  0  0  0  0  0
  -19.7927  -30.7258   24.2278 H   0  0  0  0  0  0
  -17.5011  -31.6267   24.5160 H   0  0  0  0  0  0
  -15.5345  -30.2987   23.7653 H   0  0  0  0  0  0
  -15.8665  -28.0825   22.7062 H   0  0  0  0  0  0
  -24.5904  -30.7090   25.7820 H   0  0  0  0  0  0
  -24.8964  -32.2881   26.4953 H   0  0  0  0  0  0
  -25.8091  -30.8862   27.0238 H   0  0  0  0  0  0
  -26.2849  -29.6790   24.1193 H   0  0  0  0  0  0
  -27.4055  -29.7258   25.4606 H   0  0  0  0  0  0
  -27.8705  -30.4311   23.9308 H   0  0  0  0  0  0
  -27.2725  -33.3603   26.2088 H   0  0  0  0  0  0
  -28.3874  -32.6862   25.0298 H   0  0  0  0  0  0
  -28.0772  -31.8413   26.5380 H   0  0  0  0  0  0
  -28.2642  -38.0074   24.7464 H   0  0  0  0  0  0
  -28.1032  -36.2606   24.6365 H   0  0  0  0  0  0
  -27.2291  -37.1560   25.8875 H   0  0  0  0  0  0
  -20.9328  -29.8777   21.6944 H   0  0  0  0  0  0
  -26.0198  -38.2883   24.1353 H   0  0  0  0  0  0
  -30.3230  -24.9731   18.4607 H   0  0  0  0  0  0
  -28.4694  -24.9930   22.9423 H   0  0  0  0  0  0
  -26.7913  -24.3354   23.3113 H   0  0  0  0  0  0
  -27.7966  -22.2343   24.1764 H   0  0  0  0  0  0
  -29.4760  -22.8979   23.8208 H   0  0  0  0  0  0
  -27.7894  -17.0887   19.9897 H   0  0  0  0  0  0
  -28.6560  -18.2343   19.0035 H   0  0  0  0  0  0
  -29.6518  -18.0756   23.1880 H   0  0  0  0  0  0
  -28.4205  -17.0017   22.6163 H   0  0  0  0  0  0
  -30.7870  -17.0100   19.4131 H   0  0  0  0  0  0
  -29.5690  -15.9453   18.7522 H   0  0  0  0  0  0
  -30.5131  -15.7561   22.8369 H   0  0  0  0  0  0
  -31.3610  -16.8814   21.8008 H   0  0  0  0  0  0
  -27.1901  -22.4021   21.7289 H   0  0  0  0  0  0
  -28.0771  -18.9753   21.3453 H   0  0  0  0  0  0
  -32.2204  -23.9191   17.4335 H   0  0  0  0  0  0
  -32.1088  -22.1596   17.4002 H   0  0  0  0  0  0
  -33.2014  -22.9576   18.5383 H   0  0  0  0  0  0
  -31.2626  -21.4488   23.2387 H   0  0  0  0  0  0
  -32.1573  -20.5627   22.0131 H   0  0  0  0  0  0
  -31.2222  -19.6929   23.2194 H   0  0  0  0  0  0
  -27.2126  -24.8669   20.5517 H   0  0  0  0  0  0
  -27.7614  -25.0181   18.9080 H   0  0  0  0  0  0
  -29.1184  -20.6258   22.2804 H   0  0  0  0  0  0
  1 25  1  0  0  0
  1 30  2  0  0  0
  1 89  1  0  0  0
  2  3  1  0  0  0
  2 25  1  0  0  0
  2 91  1  0  0  0
  2 92  1  0  0  0
  3  4  1  0  0  0
  3 93  1  0  0  0
  3 94  1  0  0  0
  4  5  1  0  0  0
  4 95  1  0  0  0
  4 96  1  0  0  0
  5  6  1  0  0  0
  5 26  1  0  0  0
  5 97  1  0  0  0
  6 25  1  0  0  0
  6 98  1  0  0  0
  6 99  1  0  0  0
  7  8  2  0  0  0
  7 26  1  0  0  0
  7 29  1  0  0  0
  8  9  1  0  0  0
  8 22  1  0  0  0
  9 10  1  0  0  0
  9 27  2  0  0  0
 10 11  2  0  0  0
 10 15  1  0  0  0
 11 12  1  0  0  0
 11100  1  0  0  0
 12 13  2  0  0  0
 12101  1  0  0  0
 13 14  1  0  0  0
 13 31  1  0  0  0
 14 15  2  0  0  0
 14102  1  0  0  0
 15103  1  0  0  0
 16 17  2  0  0  0
 16 21  1  0  0  0
 16 31  1  0  0  0
 17 18  1  0  0  0
 17104  1  0  0  0
 18 19  2  0  0  0
 18105  1  0  0  0
 19 20  1  0  0  0
 19 24  1  0  0  0
 20 21  2  0  0  0
 20106  1  0  0  0
 21 23  1  0  0  0
 22 28  1  0  0  0
 22 32  2  0  0  0
 26 27  1  0  0  0
 28107  1  0  0  0
 28108  1  0  0  0
 29109  1  0  0  0
 29110  1  0  0  0
 33 34  1  0  0  0
 33 66  1  0  0  0
 33 70  2  0  0  0
 34 36  1  0  0  0
 34 59  1  0  0  0
 34111  1  0  0  0
 35 44  2  0  0  0
 35 45  1  0  0  0
 35 68  1  0  0  0
 36 56  1  0  0  0
 36112  1  0  0  0
 37 39  1  0  0  0
 37 47  1  0  0  0
 37 66  1  0  0  0
 37113  1  0  0  0
 38 43  2  0  0  0
 38 46  1  0  0  0
 38 47  1  0  0  0
 39 64  1  0  0  0
 39 67  2  0  0  0
 40 52  1  0  0  0
 40 53  2  0  0  0
 40 58  1  0  0  0
 41114  1  0  0  0
 41115  1  0  0  0
 41116  1  0  0  0
 41 48  1  0  0  0
 42 43  1  0  0  0
 42 66  1  0  0  0
 42117  1  0  0  0
 42118  1  0  0  0
 43 44  1  0  0  0
 44119  1  0  0  0
 45 46  2  0  0  0
 45120  1  0  0  0
 46121  1  0  0  0
 47122  1  0  0  0
 47123  1  0  0  0
 48 56  1  0  0  0
 48 65  1  0  0  0
 48124  1  0  0  0
 49 50  1  0  0  0
 49 53  1  0  0  0
 49 64  1  0  0  0
 49125  1  0  0  0
 50 51  1  0  0  0
 50126  1  0  0  0
 50127  1  0  0  0
 51 52  1  0  0  0
 51128  1  0  0  0
 51129  1  0  0  0
 52130  1  0  0  0
 52131  1  0  0  0
 53 54  1  0  0  0
 54 55  2  0  0  0
 54132  1  0  0  0
 55 57  1  0  0  0
 55133  1  0  0  0
 56 69  2  0  0  0
 57 58  2  0  0  0
 57134  1  0  0  0
 58135  1  0  0  0
 59 60  1  0  0  0
 59 61  1  0  0  0
 59 62  1  0  0  0
 60136  1  0  0  0
 60137  1  0  0  0
 60138  1  0  0  0
 61139  1  0  0  0
 61140  1  0  0  0
 61141  1  0  0  0
 62142  1  0  0  0
 62143  1  0  0  0
 62144  1  0  0  0
 63 65  1  0  0  0
 63145  1  0  0  0
 63146  1  0  0  0
 63147  1  0  0  0
 64148  1  0  0  0
 65149  1  0  0  0
 68 86  1  0  0  0
 71 73  2  0  0  0
 71 74  1  0  0  0
 71150  1  0  0  0
 72 73  1  0  0  0
 72 75  2  0  0  0
 72 82  1  0  0  0
 73 86  1  0  0  0
 74 84  1  0  0  0
 74 88  2  0  0  0
 75 87  1  0  0  0
 75 88  1  0  0  0
 76 77  1  0  0  0
 76 82  1  0  0  0
 76151  1  0  0  0
 76152  1  0  0  0
 77 82  1  0  0  0
 77153  1  0  0  0
 77154  1  0  0  0
 78 80  1  0  0  0
 78 83  1  0  0  0
 78155  1  0  0  0
 78156  1  0  0  0
 79 81  1  0  0  0
 79 83  1  0  0  0
 79157  1  0  0  0
 79158  1  0  0  0
 80 89  1  0  0  0
 80159  1  0  0  0
 80160  1  0  0  0
 81 89  1  0  0  0
 81161  1  0  0  0
 81162  1  0  0  0
 82163  1  0  0  0
 83 90  1  0  0  0
 83164  1  0  0  0
 84165  1  0  0  0
 84166  1  0  0  0
 84167  1  0  0  0
 85168  1  0  0  0
 85169  1  0  0  0
 85170  1  0  0  0
 85 87  1  0  0  0
 86171  1  0  0  0
 86172  1  0  0  0
 87 90  1  0  0  0
 87173  1  0  0  0
M  ISO  4   1 100  68 101  86 101  89 100
M  END
> <chiral flag>
0

> <version>
0

> <s_m_source_file>
/data/baiqing/PycharmProjects/Reinvent-master-3.2/result/LINK_invent/BTK/process_docking_weight1_custom_sum_contain_oxygen_bond_distance_aromatic_linkinvent_7_9_3/rearranged_h_0151.sdf

> <i_m_source_file_index>
61

> <r_mmod_Potential_Energy-OPLS-2005>
107.691749572754

> <r_mmod_Stretch_Energy-OPLS-2005>
50.6535491943359

> <r_mmod_Bend_Energy-OPLS-2005>
119.286758422852

> <r_mmod_Torsional_Energy-OPLS-2005>
371.531890869141

> <r_mmod_Improper_Torsional_Energy-OPLS-2005>
13.4210205078125

> <r_mmod_Van_der_Waal_Energy-OPLS-2005>
159.29035949707

> <r_mmod_Electrostatic_Energy-OPLS-2005>
-417.896942138672

> <r_mmod_Solvation_Energy-OPLS-2005>
-212.466125488281

> <b_mmod_Minimization_Converged-OPLS-2005>
0

> <r_mmod_RMS_Derivative-OPLS-2005>
1.29793238639832

$$$$
61
                    3D
 Structure written by MMmdl.
160169  0  0  1  0            999 V2000
  -30.5770  -14.9086   20.4502 C   0  0  0  0  0  0
  -30.4339  -12.5670   19.4994 C   0  0  0  0  0  0
  -29.5214  -12.5288   18.2530 C   0  0  0  0  0  0
  -28.0469  -12.3348   18.6594 C   0  0  0  0  0  0
  -27.6329  -13.2496   19.8427 C   0  0  2  0  0  0
  -28.6772  -13.2677   20.9794 C   0  0  0  0  0  0
  -25.2491  -13.8214   20.5712 C   0  0  0  0  0  0
  -24.1795  -13.0452   20.9187 C   0  0  0  0  0  0
  -24.6380  -11.6916   20.8698 C   0  0  0  0  0  0
  -23.9027  -10.4293   21.0345 C   0  0  0  0  0  0
  -24.3578   -9.4228   21.9148 C   0  0  0  0  0  0
  -23.6284   -8.2251   22.0727 C   0  0  0  0  0  0
  -22.4278   -8.0249   21.3509 C   0  0  0  0  0  0
  -21.9886   -9.0204   20.4607 C   0  0  0  0  0  0
  -22.7181  -10.2106   20.3007 C   0  0  0  0  0  0
  -21.6857   -6.0704   22.5254 C   0  0  0  0  0  0
  -21.4020   -6.5609   23.8185 C   0  0  0  0  0  0
  -21.3673   -5.6764   24.9148 C   0  0  0  0  0  0
  -21.6059   -4.3026   24.7198 C   0  0  0  0  0  0
  -21.8836   -3.8111   23.4319 C   0  0  0  0  0  0
  -21.9208   -4.6933   22.3376 C   0  0  0  0  0  0
  -22.7816  -13.5216   21.1839 C   0  0  0  0  0  0
  -22.1677   -4.2117   21.0953 F   0  0  0  0  0  0
  -21.5638   -3.4512   25.7711 F   0  0  0  0  0  0
  -29.9516  -13.6677   20.3793 N   0  0  0  0  0  0
  -26.2919  -12.9454   20.3271 N   0  0  0  0  0  0
  -25.9335  -11.6575   20.5730 N   0  0  0  0  0  0
  -22.0454  -12.8234   22.0393 N   0  0  0  0  0  0
  -25.4222  -15.1953   20.4169 N   0  0  0  0  0  0
  -31.7832  -14.9404   20.1737 O   0  0  0  0  0  0
  -21.6656   -6.8841   21.4210 O   0  0  0  0  0  0
  -22.3505  -14.5530   20.6665 O   0  0  0  0  0  0
  -24.6392  -31.8520   23.1939 C   0  0  0  0  0  0
  -25.9205  -32.4726   23.8302 C   0  0  1  0  0  0
  -27.1907  -27.1637   20.1464 C   0  0  0  0  0  0
  -25.5991  -33.8527   24.2235 N   0  0  0  0  0  0
  -23.4363  -30.4767   21.5408 C   0  0  2  0  0  0
  -24.8799  -28.9134   20.1048 C   0  0  0  0  0  0
  -22.7537  -29.4603   22.4890 C   0  0  0  0  0  0
  -18.0308  -28.1392   22.8482 C   0  0  0  0  0  0
  -24.1491  -36.7246   23.2640 C   0  0  0  0  0  0
  -25.9898  -30.7343   21.3872 C   0  0  0  0  0  0
  -26.0576  -29.3479   20.7290 C   0  0  0  0  0  0
  -27.2168  -28.4871   20.7382 C   0  0  0  0  0  0
  -26.0004  -26.8376   19.4616 C   0  0  0  0  0  0
  -24.8620  -27.6698   19.4566 C   0  0  0  0  0  0
  -23.6568  -29.8163   20.1552 C   0  0  0  0  0  0
  -25.4125  -36.3043   24.0320 C   0  0  1  0  0  0
  -20.5919  -28.3718   23.1251 C   0  0  2  0  0  0
  -20.6805  -26.9430   22.5406 C   0  0  0  0  0  0
  -19.5776  -26.6378   21.5220 C   0  0  0  0  0  0
  -18.1952  -26.7938   22.1619 C   0  0  0  0  0  0
  -19.1563  -28.8874   23.2864 C   0  0  0  0  0  0
  -18.9479  -30.1469   23.8885 C   0  0  0  0  0  0
  -17.6474  -30.6590   24.0562 C   0  0  0  0  0  0
  -25.9086  -34.9420   23.5080 C   0  0  0  0  0  0
  -16.5364  -29.9081   23.6335 C   0  0  0  0  0  0
  -16.7292  -28.6500   23.0358 C   0  0  0  0  0  0
  -26.4532  -31.6555   25.0718 C   0  0  0  0  0  0
  -25.3701  -31.3712   26.1388 C   0  0  0  0  0  0
  -27.0408  -30.2973   24.6246 C   0  0  0  0  0  0
  -27.6074  -32.4299   25.7508 C   0  0  0  0  0  0
  -27.5585  -37.1779   24.8464 C   0  0  0  0  0  0
  -21.4242  -29.3043   22.3620 N   0  0  0  0  0  0
  -26.4287  -37.3762   23.9421 N   0  0  0  0  0  0
  -24.7080  -31.0409   22.0961 N   0  0  0  0  0  0
  -23.4211  -28.8164   23.3028 O   0  0  0  0  0  0
  -28.2219  -26.1605   20.1726 O   0  0  0  0  0  0
  -26.5647  -34.8910   22.4643 O   0  0  0  0  0  0
  -23.5530  -32.1391   23.7197 O   0  0  0  0  0  0
  -26.6997  -23.4021   21.9441 C   0  0  0  0  0  0
  -27.3489  -22.1878   21.6173 C   0  0  0  0  0  0
  -28.7109  -23.5300   20.1674 C   0  0  0  0  0  0
  -28.4060  -22.1619   20.6607 C   0  0  0  0  0  0
  -27.9862  -24.7627   20.5590 C   0  0  0  0  0  0
  -28.9139  -18.4150   19.3247 C   0  0  0  0  0  0
  -30.0657  -18.7003   21.4184 C   0  0  0  0  0  0
  -29.7545  -17.0233   19.3031 C   0  0  0  0  0  0
  -29.9030  -17.1043   21.6792 C   0  0  0  0  0  0
  -28.9767  -19.4319   20.5484 C   0  0  0  0  0  0
  -26.8698  -20.9749   22.3892 C   0  0  0  0  0  0
  -29.8884  -23.6913   19.2307 C   0  0  0  0  0  0
  -26.9882  -24.6190   21.4461 N   0  0  0  0  0  0
  -29.8398  -16.1338   20.5158 N   0  0  0  0  0  0
  -29.1377  -20.9532   20.2397 O   0  0  0  0  0  0
  -31.4712  -12.7117   19.1939 H   0  0  0  0  0  0
  -30.4117  -11.6135   20.0287 H   0  0  0  0  0  0
  -29.8334  -11.7301   17.5791 H   0  0  0  0  0  0
  -29.6278  -13.4613   17.6964 H   0  0  0  0  0  0
  -27.9106  -11.2875   18.9306 H   0  0  0  0  0  0
  -27.3937  -12.5101   17.8037 H   0  0  0  0  0  0
  -27.5984  -14.2581   19.4288 H   0  0  0  0  0  0
  -28.7657  -12.2922   21.4591 H   0  0  0  0  0  0
  -28.3905  -13.9777   21.7566 H   0  0  0  0  0  0
  -25.2704   -9.5762   22.4744 H   0  0  0  0  0  0
  -23.9996   -7.4658   22.7469 H   0  0  0  0  0  0
  -21.0812   -8.8673   19.8929 H   0  0  0  0  0  0
  -22.3573  -10.9621   19.6123 H   0  0  0  0  0  0
  -21.2010   -7.6115   23.9677 H   0  0  0  0  0  0
  -21.1494   -6.0482   25.9050 H   0  0  0  0  0  0
  -22.0622   -2.7569   23.2805 H   0  0  0  0  0  0
  -22.4040  -11.9898   22.4822 H   0  0  0  0  0  0
  -21.1041  -13.1233   22.2512 H   0  0  0  0  0  0
  -24.6645  -15.8565   20.5377 H   0  0  0  0  0  0
  -26.2912  -15.6308   20.1346 H   0  0  0  0  0  0
  -26.7259  -32.5340   23.1024 H   0  0  0  0  0  0
  -25.0156  -33.9657   25.0397 H   0  0  0  0  0  0
  -22.7350  -31.3025   21.4000 H   0  0  0  0  0  0
  -23.3785  -35.9543   23.3262 H   0  0  0  0  0  0
  -24.3584  -36.8912   22.2061 H   0  0  0  0  0  0
  -23.7198  -37.6413   23.6693 H   0  0  0  0  0  0
  -26.1455  -31.4946   20.6202 H   0  0  0  0  0  0
  -26.8613  -30.7798   22.0275 H   0  0  0  0  0  0
  -28.1157  -28.8164   21.2407 H   0  0  0  0  0  0
  -25.9293  -25.8854   18.9557 H   0  0  0  0  0  0
  -23.9638  -27.3387   18.9525 H   0  0  0  0  0  0
  -23.7873  -30.6007   19.4085 H   0  0  0  0  0  0
  -22.7659  -29.2672   19.8442 H   0  0  0  0  0  0
  -25.1307  -36.1871   25.0811 H   0  0  0  0  0  0
  -21.0019  -28.3300   24.1370 H   0  0  0  0  0  0
  -20.5733  -26.2322   23.3620 H   0  0  0  0  0  0
  -21.6670  -26.7466   22.1180 H   0  0  0  0  0  0
  -19.6942  -25.6283   21.1270 H   0  0  0  0  0  0
  -19.6720  -27.3171   20.6737 H   0  0  0  0  0  0
  -17.4235  -26.6699   21.4008 H   0  0  0  0  0  0
  -18.0334  -26.0079   22.9010 H   0  0  0  0  0  0
  -19.7951  -30.7292   24.2250 H   0  0  0  0  0  0
  -17.5023  -31.6269   24.5165 H   0  0  0  0  0  0
  -15.5363  -30.2976   23.7673 H   0  0  0  0  0  0
  -15.8691  -28.0809   22.7084 H   0  0  0  0  0  0
  -24.5886  -30.7079   25.7659 H   0  0  0  0  0  0
  -24.8878  -32.2878   26.4795 H   0  0  0  0  0  0
  -25.7954  -30.8860   27.0183 H   0  0  0  0  0  0
  -26.3016  -29.6674   24.1282 H   0  0  0  0  0  0
  -27.4100  -29.7280   25.4790 H   0  0  0  0  0  0
  -27.8885  -30.4251   23.9511 H   0  0  0  0  0  0
  -27.2694  -33.3617   26.2053 H   0  0  0  0  0  0
  -28.3915  -32.6820   25.0355 H   0  0  0  0  0  0
  -28.0707  -31.8430   26.5453 H   0  0  0  0  0  0
  -28.2558  -38.0121   24.7578 H   0  0  0  0  0  0
  -28.1130  -36.2658   24.6213 H   0  0  0  0  0  0
  -27.2309  -37.1314   25.8865 H   0  0  0  0  0  0
  -20.9446  -29.8707   21.6765 H   0  0  0  0  0  0
  -26.0153  -38.2822   24.1454 H   0  0  0  0  0  0
  -25.9125  -23.4107   22.6844 H   0  0  0  0  0  0
  -27.8664  -18.1505   19.1780 H   0  0  0  0  0  0
  -29.1855  -18.9617   18.4204 H   0  0  0  0  0  0
  -31.0299  -18.8685   20.9379 H   0  0  0  0  0  0
  -30.1407  -19.2155   22.3760 H   0  0  0  0  0  0
  -30.7824  -17.2531   19.0116 H   0  0  0  0  0  0
  -29.3681  -16.4070   18.4884 H   0  0  0  0  0  0
  -29.0008  -16.9472   22.2719 H   0  0  0  0  0  0
  -30.7188  -16.7954   22.3339 H   0  0  0  0  0  0
  -28.0403  -19.2685   21.0604 H   0  0  0  0  0  0
  -26.1699  -21.2529   23.1801 H   0  0  0  0  0  0
  -27.7136  -20.4787   22.8697 H   0  0  0  0  0  0
  -26.3308  -20.2910   21.7351 H   0  0  0  0  0  0
  -30.1663  -22.7471   18.7621 H   0  0  0  0  0  0
  -30.7441  -24.0498   19.8026 H   0  0  0  0  0  0
  -29.6640  -24.4121   18.4448 H   0  0  0  0  0  0
  1 25  1  0  0  0
  1 30  2  0  0  0
  1 84  1  0  0  0
  2  3  1  0  0  0
  2 25  1  0  0  0
  2 86  1  0  0  0
  2 87  1  0  0  0
  3  4  1  0  0  0
  3 88  1  0  0  0
  3 89  1  0  0  0
  4  5  1  0  0  0
  4 90  1  0  0  0
  4 91  1  0  0  0
  5  6  1  0  0  0
  5 26  1  0  0  0
  5 92  1  0  0  0
  6 25  1  0  0  0
  6 93  1  0  0  0
  6 94  1  0  0  0
  7  8  2  0  0  0
  7 26  1  0  0  0
  7 29  1  0  0  0
  8  9  1  0  0  0
  8 22  1  0  0  0
  9 10  1  0  0  0
  9 27  2  0  0  0
 10 11  2  0  0  0
 10 15  1  0  0  0
 11 12  1  0  0  0
 11 95  1  0  0  0
 12 13  2  0  0  0
 12 96  1  0  0  0
 13 14  1  0  0  0
 13 31  1  0  0  0
 14 15  2  0  0  0
 14 97  1  0  0  0
 15 98  1  0  0  0
 16 17  2  0  0  0
 16 21  1  0  0  0
 16 31  1  0  0  0
 17 18  1  0  0  0
 17 99  1  0  0  0
 18 19  2  0  0  0
 18100  1  0  0  0
 19 20  1  0  0  0
 19 24  1  0  0  0
 20 21  2  0  0  0
 20101  1  0  0  0
 21 23  1  0  0  0
 22 28  1  0  0  0
 22 32  2  0  0  0
 26 27  1  0  0  0
 28102  1  0  0  0
 28103  1  0  0  0
 29104  1  0  0  0
 29105  1  0  0  0
 33 34  1  0  0  0
 33 66  1  0  0  0
 33 70  2  0  0  0
 34 36  1  0  0  0
 34 59  1  0  0  0
 34106  1  0  0  0
 35 44  2  0  0  0
 35 45  1  0  0  0
 35 68  1  0  0  0
 36 56  1  0  0  0
 36107  1  0  0  0
 37 39  1  0  0  0
 37 47  1  0  0  0
 37 66  1  0  0  0
 37108  1  0  0  0
 38 43  2  0  0  0
 38 46  1  0  0  0
 38 47  1  0  0  0
 39 64  1  0  0  0
 39 67  2  0  0  0
 40 52  1  0  0  0
 40 53  2  0  0  0
 40 58  1  0  0  0
 41109  1  0  0  0
 41110  1  0  0  0
 41111  1  0  0  0
 41 48  1  0  0  0
 42 43  1  0  0  0
 42 66  1  0  0  0
 42112  1  0  0  0
 42113  1  0  0  0
 43 44  1  0  0  0
 44114  1  0  0  0
 45 46  2  0  0  0
 45115  1  0  0  0
 46116  1  0  0  0
 47117  1  0  0  0
 47118  1  0  0  0
 48 56  1  0  0  0
 48 65  1  0  0  0
 48119  1  0  0  0
 49 50  1  0  0  0
 49 53  1  0  0  0
 49 64  1  0  0  0
 49120  1  0  0  0
 50 51  1  0  0  0
 50121  1  0  0  0
 50122  1  0  0  0
 51 52  1  0  0  0
 51123  1  0  0  0
 51124  1  0  0  0
 52125  1  0  0  0
 52126  1  0  0  0
 53 54  1  0  0  0
 54 55  2  0  0  0
 54127  1  0  0  0
 55 57  1  0  0  0
 55128  1  0  0  0
 56 69  2  0  0  0
 57 58  2  0  0  0
 57129  1  0  0  0
 58130  1  0  0  0
 59 60  1  0  0  0
 59 61  1  0  0  0
 59 62  1  0  0  0
 60131  1  0  0  0
 60132  1  0  0  0
 60133  1  0  0  0
 61134  1  0  0  0
 61135  1  0  0  0
 61136  1  0  0  0
 62137  1  0  0  0
 62138  1  0  0  0
 62139  1  0  0  0
 63 65  1  0  0  0
 63140  1  0  0  0
 63141  1  0  0  0
 63142  1  0  0  0
 64143  1  0  0  0
 65144  1  0  0  0
 68 75  1  0  0  0
 71 72  2  0  0  0
 71 83  1  0  0  0
 71145  1  0  0  0
 72 74  1  0  0  0
 72 81  1  0  0  0
 73 74  2  0  0  0
 73 75  1  0  0  0
 73 82  1  0  0  0
 74 85  1  0  0  0
 75 83  2  0  0  0
 76 78  1  0  0  0
 76 80  1  0  0  0
 76146  1  0  0  0
 76147  1  0  0  0
 77 79  1  0  0  0
 77 80  1  0  0  0
 77148  1  0  0  0
 77149  1  0  0  0
 78 84  1  0  0  0
 78150  1  0  0  0
 78151  1  0  0  0
 79 84  1  0  0  0
 79152  1  0  0  0
 79153  1  0  0  0
 80 85  1  0  0  0
 80154  1  0  0  0
 81155  1  0  0  0
 81156  1  0  0  0
 81157  1  0  0  0
 82158  1  0  0  0
 82159  1  0  0  0
 82160  1  0  0  0
M  ISO  4   1 100  68 101  75 101  84 100
M  END
> <chiral flag>
0

> <version>
0

> <s_m_source_file>
/data/baiqing/PycharmProjects/Reinvent-master-3.2/result/LINK_invent/BTK/process_docking_weight1_custom_sum_contain_oxygen_bond_distance_aromatic_linkinvent_7_9_3/rearranged_h_0151.sdf

> <i_m_source_file_index>
62

> <r_mmod_Potential_Energy-OPLS-2005>
518.601745605469

> <r_mmod_Stretch_Energy-OPLS-2005>
219.611175537109

> <r_mmod_Bend_Energy-OPLS-2005>
279.520233154297

> <r_mmod_Torsional_Energy-OPLS-2005>
343.356597900391

> <r_mmod_Improper_Torsional_Energy-OPLS-2005>
11.4601020812988

> <r_mmod_Van_der_Waal_Energy-OPLS-2005>
149.381332397461

> <r_mmod_Electrostatic_Energy-OPLS-2005>
-446.061492919922

> <r_mmod_Solvation_Energy-OPLS-2005>
-207.403884887695

> <b_mmod_Minimization_Converged-OPLS-2005>
0

> <r_mmod_RMS_Derivative-OPLS-2005>
3.56713676452637

$$$$
62
                    3D
 Structure written by MMmdl.
170180  0  0  1  0            999 V2000
  -30.7696  -14.3550   20.6976 C   0  0  0  0  0  0
  -30.4170  -12.2904   19.3918 C   0  0  0  0  0  0
  -29.4825  -12.5275   18.1913 C   0  0  0  0  0  0
  -28.0078  -12.3802   18.6092 C   0  0  0  0  0  0
  -27.6664  -13.2013   19.8798 C   0  0  2  0  0  0
  -28.7031  -12.9389   20.9941 C   0  0  0  0  0  0
  -25.2603  -13.8153   20.5668 C   0  0  0  0  0  0
  -24.1844  -13.0438   20.9158 C   0  0  0  0  0  0
  -24.6389  -11.6902   20.8720 C   0  0  0  0  0  0
  -23.9053  -10.4292   21.0397 C   0  0  0  0  0  0
  -24.3608   -9.4210   21.9178 C   0  0  0  0  0  0
  -23.6286   -8.2245   22.0751 C   0  0  0  0  0  0
  -22.4267   -8.0280   21.3542 C   0  0  0  0  0  0
  -21.9898   -9.0251   20.4646 C   0  0  0  0  0  0
  -22.7224  -10.2132   20.3051 C   0  0  0  0  0  0
  -21.6853   -6.0732   22.5278 C   0  0  0  0  0  0
  -21.4014   -6.5637   23.8211 C   0  0  0  0  0  0
  -21.3659   -5.6789   24.9173 C   0  0  0  0  0  0
  -21.6044   -4.3053   24.7224 C   0  0  0  0  0  0
  -21.8820   -3.8144   23.4345 C   0  0  0  0  0  0
  -21.9194   -4.6960   22.3401 C   0  0  0  0  0  0
  -22.7869  -13.5244   21.1829 C   0  0  0  0  0  0
  -22.1663   -4.2148   21.0979 F   0  0  0  0  0  0
  -21.5628   -3.4537   25.7737 F   0  0  0  0  0  0
  -30.0485  -13.2295   20.4610 N   0  0  0  0  0  0
  -26.3042  -12.9316   20.3374 N   0  0  0  0  0  0
  -25.9313  -11.6478   20.5748 N   0  0  0  0  0  0
  -22.0506  -12.8240   22.0385 N   0  0  0  0  0  0
  -25.4335  -15.1869   20.4087 N   0  0  0  0  0  0
  -31.7774  -14.6664   20.0550 O   0  0  0  0  0  0
  -21.6637   -6.8874   21.4239 O   0  0  0  0  0  0
  -22.3559  -14.5555   20.6686 O   0  0  0  0  0  0
  -24.6098  -31.8707   23.2131 C   0  0  0  0  0  0
  -25.9010  -32.4838   23.8411 C   0  0  1  0  0  0
  -27.2439  -27.4722   20.0989 C   0  0  0  0  0  0
  -25.5881  -33.8635   24.2344 N   0  0  0  0  0  0
  -23.3967  -30.4921   21.5522 C   0  0  2  0  0  0
  -24.8468  -28.9584   20.1201 C   0  0  0  0  0  0
  -22.7384  -29.4664   22.5015 C   0  0  0  0  0  0
  -18.0264  -28.1376   22.8493 C   0  0  0  0  0  0
  -24.1481  -36.7324   23.2634 C   0  0  0  0  0  0
  -25.9198  -30.8470   21.3613 C   0  0  0  0  0  0
  -26.0004  -29.4802   20.7190 C   0  0  0  0  0  0
  -27.2016  -28.7427   20.7133 C   0  0  0  0  0  0
  -26.0818  -26.9592   19.4901 C   0  0  0  0  0  0
  -24.8791  -27.6925   19.5062 C   0  0  0  0  0  0
  -23.6052  -29.8198   20.1677 C   0  0  0  0  0  0
  -25.4098  -36.3122   24.0341 C   0  0  1  0  0  0
  -20.5850  -28.3652   23.1339 C   0  0  2  0  0  0
  -20.6755  -26.9393   22.5432 C   0  0  0  0  0  0
  -19.5743  -26.6388   21.5214 C   0  0  0  0  0  0
  -18.1914  -26.7928   22.1613 C   0  0  0  0  0  0
  -19.1512  -28.8830   23.2914 C   0  0  0  0  0  0
  -18.9443  -30.1437   23.8924 C   0  0  0  0  0  0
  -17.6447  -30.6583   24.0569 C   0  0  0  0  0  0
  -25.9025  -34.9485   23.5140 C   0  0  0  0  0  0
  -16.5338  -29.9088   23.6323 C   0  0  0  0  0  0
  -16.7255  -28.6505   23.0344 C   0  0  0  0  0  0
  -26.4462  -31.6602   25.0718 C   0  0  0  0  0  0
  -25.3746  -31.3705   26.1482 C   0  0  0  0  0  0
  -27.0278  -30.3048   24.6058 C   0  0  0  0  0  0
  -27.6057  -32.4310   25.7462 C   0  0  0  0  0  0
  -27.5588  -37.1800   24.8450 C   0  0  0  0  0  0
  -21.4117  -29.3022   22.3748 N   0  0  0  0  0  0
  -26.4285  -37.3806   23.9418 N   0  0  0  0  0  0
  -24.6599  -31.0838   22.1013 N   0  0  0  0  0  0
  -23.4171  -28.8213   23.3051 O   0  0  0  0  0  0
  -28.3996  -26.7363   20.0225 O   0  0  0  0  0  0
  -26.5588  -34.8931   22.4702 O   0  0  0  0  0  0
  -23.5301  -32.1441   23.7548 O   0  0  0  0  0  0
  -29.4603  -21.6190   20.3607 C   0  0  0  0  0  0
  -29.6830  -20.2961   20.7810 C   0  0  0  0  0  0
  -30.3498  -22.4238   22.4683 C   0  0  0  0  0  0
  -29.7951  -22.6944   21.2015 C   0  0  0  0  0  0
  -30.2389  -20.0048   22.0505 C   0  0  0  0  0  0
  -30.5779  -21.0934   22.9114 C   0  0  0  0  0  0
  -30.8751  -24.9417   20.5760 C   0  0  0  0  0  0
  -30.5459  -26.3735   21.0312 C   0  0  0  0  0  0
  -30.5751  -16.6343   23.6524 C   0  0  0  0  0  0
  -28.6732  -24.9794   21.6327 C   0  0  0  0  0  0
  -30.7031  -18.1541   23.7511 C   0  0  0  0  0  0
  -30.4592  -17.5622   21.4320 C   0  0  0  0  0  0
  -29.5776  -24.1287   20.7295 C   0  0  2  0  0  0
  -30.9574  -16.3280   22.2005 C   0  0  2  0  0  0
  -29.0320  -26.4211   21.2613 C   0  0  2  0  0  0
  -31.4532  -21.9064   25.0153 C   0  0  0  0  0  0
  -30.4376  -18.6467   22.4066 N   0  0  0  0  0  0
  -30.3382  -15.0954   21.7249 N   0  0  0  0  0  0
  -31.1403  -20.8259   24.1450 O   0  0  0  0  0  0
  -31.4594  -12.3953   19.0854 H   0  0  0  0  0  0
  -30.3188  -11.2660   19.7544 H   0  0  0  0  0  0
  -29.7145  -11.8260   17.3889 H   0  0  0  0  0  0
  -29.6519  -13.5258   17.7846 H   0  0  0  0  0  0
  -27.8157  -11.3217   18.7892 H   0  0  0  0  0  0
  -27.3529  -12.6714   17.7870 H   0  0  0  0  0  0
  -27.7261  -14.2558   19.6091 H   0  0  0  0  0  0
  -28.6628  -11.8945   21.3066 H   0  0  0  0  0  0
  -28.4454  -13.5122   21.8845 H   0  0  0  0  0  0
  -25.2754   -9.5691   22.4750 H   0  0  0  0  0  0
  -24.0000   -7.4638   22.7471 H   0  0  0  0  0  0
  -21.0828   -8.8769   19.8952 H   0  0  0  0  0  0
  -22.3680  -10.9669   19.6161 H   0  0  0  0  0  0
  -21.2004   -7.6145   23.9715 H   0  0  0  0  0  0
  -21.1480   -6.0518   25.9077 H   0  0  0  0  0  0
  -22.0598   -2.7606   23.2846 H   0  0  0  0  0  0
  -22.4108  -11.9890   22.4764 H   0  0  0  0  0  0
  -21.1129  -13.1281   22.2596 H   0  0  0  0  0  0
  -24.6703  -15.8458   20.5197 H   0  0  0  0  0  0
  -26.2959  -15.6257   20.1105 H   0  0  0  0  0  0
  -26.7085  -32.5578   23.1187 H   0  0  0  0  0  0
  -25.0033  -33.9805   25.0490 H   0  0  0  0  0  0
  -22.6829  -31.3066   21.4125 H   0  0  0  0  0  0
  -23.3745  -35.9654   23.3290 H   0  0  0  0  0  0
  -24.3583  -36.8942   22.2050 H   0  0  0  0  0  0
  -23.7228  -37.6525   23.6650 H   0  0  0  0  0  0
  -26.0218  -31.6093   20.5878 H   0  0  0  0  0  0
  -26.8116  -30.9088   21.9729 H   0  0  0  0  0  0
  -28.0948  -29.1565   21.1604 H   0  0  0  0  0  0
  -26.1117  -25.9926   19.0073 H   0  0  0  0  0  0
  -23.9935  -27.2844   19.0390 H   0  0  0  0  0  0
  -23.7086  -30.5925   19.4048 H   0  0  0  0  0  0
  -22.7318  -29.2341   19.8755 H   0  0  0  0  0  0
  -25.1268  -36.1989   25.0832 H   0  0  0  0  0  0
  -20.9939  -28.3218   24.1461 H   0  0  0  0  0  0
  -20.5650  -26.2257   23.3612 H   0  0  0  0  0  0
  -21.6631  -26.7440   22.1233 H   0  0  0  0  0  0
  -19.6906  -25.6306   21.1226 H   0  0  0  0  0  0
  -19.6694  -27.3214   20.6757 H   0  0  0  0  0  0
  -17.4194  -26.6694   21.4001 H   0  0  0  0  0  0
  -18.0297  -26.0059   22.8993 H   0  0  0  0  0  0
  -19.7919  -30.7243   24.2308 H   0  0  0  0  0  0
  -17.5005  -31.6265   24.5167 H   0  0  0  0  0  0
  -15.5340  -30.3000   23.7635 H   0  0  0  0  0  0
  -15.8653  -28.0835   22.7045 H   0  0  0  0  0  0
  -24.5920  -30.7040   25.7838 H   0  0  0  0  0  0
  -24.8930  -32.2859   26.4933 H   0  0  0  0  0  0
  -25.8117  -30.8887   27.0236 H   0  0  0  0  0  0
  -26.2801  -29.6821   24.1130 H   0  0  0  0  0  0
  -27.4081  -29.7271   25.4493 H   0  0  0  0  0  0
  -27.8624  -30.4376   23.9169 H   0  0  0  0  0  0
  -27.2690  -33.3592   26.2091 H   0  0  0  0  0  0
  -28.3828  -32.6898   25.0256 H   0  0  0  0  0  0
  -28.0768  -31.8402   26.5327 H   0  0  0  0  0  0
  -28.2585  -38.0118   24.7540 H   0  0  0  0  0  0
  -28.1101  -36.2656   24.6206 H   0  0  0  0  0  0
  -27.2323  -37.1376   25.8855 H   0  0  0  0  0  0
  -20.9268  -29.8736   21.6970 H   0  0  0  0  0  0
  -26.0178  -38.2880   24.1450 H   0  0  0  0  0  0
  -29.0341  -21.7991   19.3835 H   0  0  0  0  0  0
  -29.4054  -19.5061   20.0993 H   0  0  0  0  0  0
  -30.6081  -23.2700   23.0859 H   0  0  0  0  0  0
  -31.6783  -24.5448   21.1980 H   0  0  0  0  0  0
  -31.2290  -24.9127   19.5448 H   0  0  0  0  0  0
  -30.8804  -27.1282   20.3185 H   0  0  0  0  0  0
  -31.0584  -26.5744   21.9731 H   0  0  0  0  0  0
  -29.5387  -16.3513   23.8451 H   0  0  0  0  0  0
  -31.2017  -16.1134   24.3778 H   0  0  0  0  0  0
  -28.9163  -24.8215   22.6836 H   0  0  0  0  0  0
  -27.6141  -24.7526   21.5059 H   0  0  0  0  0  0
  -31.7193  -18.4226   24.0449 H   0  0  0  0  0  0
  -30.0098  -18.5653   24.4869 H   0  0  0  0  0  0
  -29.4472  -17.4034   21.0550 H   0  0  0  0  0  0
  -31.1071  -17.7893   20.5833 H   0  0  0  0  0  0
  -29.1004  -24.0971   19.7478 H   0  0  0  0  0  0
  -32.0461  -16.2704   22.1301 H   0  0  0  0  0  0
  -28.7764  -27.1168   22.0622 H   0  0  0  0  0  0
  -31.8576  -21.5117   25.9473 H   0  0  0  0  0  0
  -30.5664  -22.4902   25.2660 H   0  0  0  0  0  0
  -32.2102  -22.5622   24.5833 H   0  0  0  0  0  0
  -29.5200  -14.7626   22.2121 H   0  0  0  0  0  0
  1 25  1  0  0  0
  1 30  2  0  0  0
  1 88  1  0  0  0
  2  3  1  0  0  0
  2 25  1  0  0  0
  2 90  1  0  0  0
  2 91  1  0  0  0
  3  4  1  0  0  0
  3 92  1  0  0  0
  3 93  1  0  0  0
  4  5  1  0  0  0
  4 94  1  0  0  0
  4 95  1  0  0  0
  5  6  1  0  0  0
  5 26  1  0  0  0
  5 96  1  0  0  0
  6 25  1  0  0  0
  6 97  1  0  0  0
  6 98  1  0  0  0
  7  8  2  0  0  0
  7 26  1  0  0  0
  7 29  1  0  0  0
  8  9  1  0  0  0
  8 22  1  0  0  0
  9 10  1  0  0  0
  9 27  2  0  0  0
 10 11  2  0  0  0
 10 15  1  0  0  0
 11 12  1  0  0  0
 11 99  1  0  0  0
 12 13  2  0  0  0
 12100  1  0  0  0
 13 14  1  0  0  0
 13 31  1  0  0  0
 14 15  2  0  0  0
 14101  1  0  0  0
 15102  1  0  0  0
 16 17  2  0  0  0
 16 21  1  0  0  0
 16 31  1  0  0  0
 17 18  1  0  0  0
 17103  1  0  0  0
 18 19  2  0  0  0
 18104  1  0  0  0
 19 20  1  0  0  0
 19 24  1  0  0  0
 20 21  2  0  0  0
 20105  1  0  0  0
 21 23  1  0  0  0
 22 28  1  0  0  0
 22 32  2  0  0  0
 26 27  1  0  0  0
 28106  1  0  0  0
 28107  1  0  0  0
 29108  1  0  0  0
 29109  1  0  0  0
 33 34  1  0  0  0
 33 66  1  0  0  0
 33 70  2  0  0  0
 34 36  1  0  0  0
 34 59  1  0  0  0
 34110  1  0  0  0
 35 44  2  0  0  0
 35 45  1  0  0  0
 35 68  1  0  0  0
 36 56  1  0  0  0
 36111  1  0  0  0
 37 39  1  0  0  0
 37 47  1  0  0  0
 37 66  1  0  0  0
 37112  1  0  0  0
 38 43  2  0  0  0
 38 46  1  0  0  0
 38 47  1  0  0  0
 39 64  1  0  0  0
 39 67  2  0  0  0
 40 52  1  0  0  0
 40 53  2  0  0  0
 40 58  1  0  0  0
 41113  1  0  0  0
 41114  1  0  0  0
 41115  1  0  0  0
 41 48  1  0  0  0
 42 43  1  0  0  0
 42 66  1  0  0  0
 42116  1  0  0  0
 42117  1  0  0  0
 43 44  1  0  0  0
 44118  1  0  0  0
 45 46  2  0  0  0
 45119  1  0  0  0
 46120  1  0  0  0
 47121  1  0  0  0
 47122  1  0  0  0
 48 56  1  0  0  0
 48 65  1  0  0  0
 48123  1  0  0  0
 49 50  1  0  0  0
 49 53  1  0  0  0
 49 64  1  0  0  0
 49124  1  0  0  0
 50 51  1  0  0  0
 50125  1  0  0  0
 50126  1  0  0  0
 51 52  1  0  0  0
 51127  1  0  0  0
 51128  1  0  0  0
 52129  1  0  0  0
 52130  1  0  0  0
 53 54  1  0  0  0
 54 55  2  0  0  0
 54131  1  0  0  0
 55 57  1  0  0  0
 55132  1  0  0  0
 56 69  2  0  0  0
 57 58  2  0  0  0
 57133  1  0  0  0
 58134  1  0  0  0
 59 60  1  0  0  0
 59 61  1  0  0  0
 59 62  1  0  0  0
 60135  1  0  0  0
 60136  1  0  0  0
 60137  1  0  0  0
 61138  1  0  0  0
 61139  1  0  0  0
 61140  1  0  0  0
 62141  1  0  0  0
 62142  1  0  0  0
 62143  1  0  0  0
 63 65  1  0  0  0
 63144  1  0  0  0
 63145  1  0  0  0
 63146  1  0  0  0
 64147  1  0  0  0
 65148  1  0  0  0
 68 85  1  0  0  0
 71 72  2  0  0  0
 71 74  1  0  0  0
 71149  1  0  0  0
 72 75  1  0  0  0
 72150  1  0  0  0
 73 74  2  0  0  0
 73 76  1  0  0  0
 73151  1  0  0  0
 74 83  1  0  0  0
 75 76  2  0  0  0
 75 87  1  0  0  0
 76 89  1  0  0  0
 77 78  1  0  0  0
 77 83  1  0  0  0
 77152  1  0  0  0
 77153  1  0  0  0
 78 85  1  0  0  0
 78154  1  0  0  0
 78155  1  0  0  0
 79 81  1  0  0  0
 79 84  1  0  0  0
 79156  1  0  0  0
 79157  1  0  0  0
 80 83  1  0  0  0
 80 85  1  0  0  0
 80158  1  0  0  0
 80159  1  0  0  0
 81 87  1  0  0  0
 81160  1  0  0  0
 81161  1  0  0  0
 82 84  1  0  0  0
 82 87  1  0  0  0
 82162  1  0  0  0
 82163  1  0  0  0
 83164  1  0  0  0
 84 88  1  0  0  0
 84165  1  0  0  0
 85166  1  0  0  0
 86 89  1  0  0  0
 86167  1  0  0  0
 86168  1  0  0  0
 86169  1  0  0  0
 88170  1  0  0  0
M  ISO  4   1 100  68 101  85 101  88 100
M  END
> <chiral flag>
0

> <version>
0

> <s_m_source_file>
/data/baiqing/PycharmProjects/Reinvent-master-3.2/result/LINK_invent/BTK/process_docking_weight1_custom_sum_contain_oxygen_bond_distance_aromatic_linkinvent_7_9_3/rearranged_h_0151.sdf

> <i_m_source_file_index>
63

> <r_mmod_Potential_Energy-OPLS-2005>
28.7720375061035

> <r_mmod_Stretch_Energy-OPLS-2005>
35.0063667297363

> <r_mmod_Bend_Energy-OPLS-2005>
165.413482666016

> <r_mmod_Torsional_Energy-OPLS-2005>
304.56005859375

> <r_mmod_Improper_Torsional_Energy-OPLS-2005>
1.8904333114624

> <r_mmod_Van_der_Waal_Energy-OPLS-2005>
163.346817016602

> <r_mmod_Electrostatic_Energy-OPLS-2005>
-419.928649902344

> <r_mmod_Solvation_Energy-OPLS-2005>
-227.398468017578

> <b_mmod_Minimization_Converged-OPLS-2005>
0

> <r_mmod_RMS_Derivative-OPLS-2005>
0.39455708861351

$$$$
63
                    3D
 Structure written by MMmdl.
164173  0  0  1  0            999 V2000
  -30.5919  -14.7853   20.4665 C   0  0  0  0  0  0
  -30.4353  -12.4816   19.4840 C   0  0  0  0  0  0
  -29.5120  -12.5051   18.2449 C   0  0  0  0  0  0
  -28.0367  -12.3345   18.6550 C   0  0  0  0  0  0
  -27.6389  -13.2343   19.8545 C   0  0  2  0  0  0
  -28.6810  -13.1753   20.9896 C   0  0  0  0  0  0
  -25.2526  -13.8237   20.5749 C   0  0  0  0  0  0
  -24.1787  -13.0469   20.9248 C   0  0  0  0  0  0
  -24.6364  -11.6945   20.8753 C   0  0  0  0  0  0
  -23.9038  -10.4308   21.0407 C   0  0  0  0  0  0
  -24.3617   -9.4223   21.9177 C   0  0  0  0  0  0
  -23.6309   -8.2235   22.0729 C   0  0  0  0  0  0
  -22.4275   -8.0273   21.3534 C   0  0  0  0  0  0
  -21.9901   -9.0236   20.4632 C   0  0  0  0  0  0
  -22.7212  -10.2133   20.3044 C   0  0  0  0  0  0
  -21.6861   -6.0726   22.5276 C   0  0  0  0  0  0
  -21.4007   -6.5623   23.8211 C   0  0  0  0  0  0
  -21.3671   -5.6777   24.9175 C   0  0  0  0  0  0
  -21.6065   -4.3040   24.7223 C   0  0  0  0  0  0
  -21.8820   -3.8130   23.4337 C   0  0  0  0  0  0
  -21.9204   -4.6954   22.3403 C   0  0  0  0  0  0
  -22.7820  -13.5251   21.1920 C   0  0  0  0  0  0
  -22.1688   -4.2147   21.0971 F   0  0  0  0  0  0
  -21.5649   -3.4519   25.7731 F   0  0  0  0  0  0
  -29.9744  -13.5505   20.4050 N   0  0  0  0  0  0
  -26.2927  -12.9427   20.3330 N   0  0  0  0  0  0
  -25.9296  -11.6578   20.5744 N   0  0  0  0  0  0
  -22.0454  -12.8202   22.0458 N   0  0  0  0  0  0
  -25.4282  -15.1937   20.4237 N   0  0  0  0  0  0
  -31.7696  -14.8784   20.1077 O   0  0  0  0  0  0
  -21.6652   -6.8857   21.4230 O   0  0  0  0  0  0
  -22.3489  -14.5532   20.6761 O   0  0  0  0  0  0
  -24.6395  -31.8507   23.1927 C   0  0  0  0  0  0
  -25.9186  -32.4726   23.8313 C   0  0  1  0  0  0
  -27.2170  -27.1958   20.1182 C   0  0  0  0  0  0
  -25.5973  -33.8524   24.2240 N   0  0  0  0  0  0
  -23.4391  -30.4690   21.5394 C   0  0  2  0  0  0
  -24.8864  -28.9046   20.1131 C   0  0  0  0  0  0
  -22.7573  -29.4546   22.4915 C   0  0  0  0  0  0
  -18.0309  -28.1402   22.8479 C   0  0  0  0  0  0
  -24.1489  -36.7268   23.2631 C   0  0  0  0  0  0
  -25.9915  -30.7397   21.3820 C   0  0  0  0  0  0
  -26.0627  -29.3559   20.7239 C   0  0  0  0  0  0
  -27.2309  -28.5149   20.7091 C   0  0  0  0  0  0
  -26.0124  -26.8307   19.4769 C   0  0  0  0  0  0
  -24.8700  -27.6547   19.4794 C   0  0  0  0  0  0
  -23.6632  -29.8009   20.1582 C   0  0  0  0  0  0
  -25.4121  -36.3055   24.0321 C   0  0  1  0  0  0
  -20.5923  -28.3693   23.1287 C   0  0  2  0  0  0
  -20.6799  -26.9410   22.5428 C   0  0  0  0  0  0
  -19.5761  -26.6393   21.5240 C   0  0  0  0  0  0
  -18.1943  -26.7946   22.1636 C   0  0  0  0  0  0
  -19.1565  -28.8874   23.2866 C   0  0  0  0  0  0
  -18.9479  -30.1481   23.8861 C   0  0  0  0  0  0
  -17.6465  -30.6585   24.0557 C   0  0  0  0  0  0
  -25.9074  -34.9416   23.5086 C   0  0  0  0  0  0
  -16.5357  -29.9073   23.6332 C   0  0  0  0  0  0
  -16.7296  -28.6511   23.0334 C   0  0  0  0  0  0
  -26.4536  -31.6570   25.0729 C   0  0  0  0  0  0
  -25.3734  -31.3699   26.1429 C   0  0  0  0  0  0
  -27.0401  -30.2993   24.6239 C   0  0  0  0  0  0
  -27.6097  -32.4307   25.7484 C   0  0  0  0  0  0
  -27.5580  -37.1785   24.8462 C   0  0  0  0  0  0
  -21.4273  -29.3017   22.3668 N   0  0  0  0  0  0
  -26.4289  -37.3774   23.9415 N   0  0  0  0  0  0
  -24.7096  -31.0420   22.0921 N   0  0  0  0  0  0
  -23.4252  -28.8084   23.3027 O   0  0  0  0  0  0
  -28.3072  -26.2734   20.1251 O   0  0  0  0  0  0
  -26.5639  -34.8891   22.4646 O   0  0  0  0  0  0
  -23.5520  -32.1350   23.7165 O   0  0  0  0  0  0
  -31.7226  -19.2661   19.4746 C   0  0  0  0  0  0
  -31.2637  -21.9228   18.9209 C   0  0  0  0  0  0
  -30.4460  -19.7800   19.8255 C   0  0  0  0  0  0
  -32.7365  -20.0061   18.8601 C   0  0  0  0  0  0
  -32.4751  -21.3368   18.5170 C   0  0  0  0  0  0
  -30.2160  -21.2504   19.6285 C   0  0  0  0  0  0
  -30.0386  -18.1432   21.8299 C   0  0  0  0  0  0
  -29.8020  -16.6090   21.9948 C   0  0  0  0  0  0
  -29.6493  -17.1118   19.7183 C   0  0  0  0  0  0
  -29.5785  -18.5748   20.4278 C   0  0  2  0  0  0
  -34.0776  -19.3397   18.6043 C   0  0  0  0  0  0
  -33.4878  -22.1808   17.7596 C   0  0  0  0  0  0
  -28.0819  -24.7595   20.2604 C   0  0  0  0  0  0
  -29.2042  -23.6383   19.8421 C   0  0  0  0  0  0
  -29.8240  -15.9443   20.6787 N   0  0  0  0  0  0
  -29.1291  -22.1121   20.0403 O   0  0  0  0  0  0
  -31.4775  -12.6174   19.1840 H   0  0  0  0  0  0
  -30.3996  -11.5084   19.9767 H   0  0  0  0  0  0
  -29.7931  -11.7116   17.5515 H   0  0  0  0  0  0
  -29.6448  -13.4469   17.7087 H   0  0  0  0  0  0
  -27.8980  -11.2849   18.9203 H   0  0  0  0  0  0
  -27.3766  -12.5183   17.8052 H   0  0  0  0  0  0
  -27.6294  -14.2565   19.4764 H   0  0  0  0  0  0
  -28.7265  -12.1730   21.4213 H   0  0  0  0  0  0
  -28.4027  -13.8516   21.7979 H   0  0  0  0  0  0
  -25.2774   -9.5738   22.4736 H   0  0  0  0  0  0
  -24.0074   -7.4621   22.7408 H   0  0  0  0  0  0
  -21.0860   -8.8730   19.8912 H   0  0  0  0  0  0
  -22.3676  -10.9668   19.6143 H   0  0  0  0  0  0
  -21.1959   -7.6118   23.9723 H   0  0  0  0  0  0
  -21.1527   -6.0490   25.9090 H   0  0  0  0  0  0
  -22.0586   -2.7586   23.2838 H   0  0  0  0  0  0
  -22.4111  -11.9894   22.4886 H   0  0  0  0  0  0
  -21.1040  -13.1194   22.2608 H   0  0  0  0  0  0
  -24.6699  -15.8559   20.5480 H   0  0  0  0  0  0
  -26.2965  -15.6325   20.1432 H   0  0  0  0  0  0
  -26.7214  -32.5373   23.1007 H   0  0  0  0  0  0
  -25.0103  -33.9643   25.0371 H   0  0  0  0  0  0
  -22.7365  -31.2921   21.3898 H   0  0  0  0  0  0
  -23.3778  -35.9580   23.3281 H   0  0  0  0  0  0
  -24.3557  -36.8926   22.2051 H   0  0  0  0  0  0
  -23.7219  -37.6445   23.6679 H   0  0  0  0  0  0
  -26.1371  -31.4964   20.6106 H   0  0  0  0  0  0
  -26.8643  -30.7898   22.0218 H   0  0  0  0  0  0
  -28.1338  -28.8550   21.1951 H   0  0  0  0  0  0
  -25.9217  -25.8912   18.9535 H   0  0  0  0  0  0
  -23.9701  -27.3139   18.9871 H   0  0  0  0  0  0
  -23.7939  -30.5764   19.4030 H   0  0  0  0  0  0
  -22.7800  -29.2426   19.8452 H   0  0  0  0  0  0
  -25.1307  -36.1893   25.0824 H   0  0  0  0  0  0
  -20.9986  -28.3252   24.1419 H   0  0  0  0  0  0
  -20.5758  -26.2281   23.3625 H   0  0  0  0  0  0
  -21.6656  -26.7456   22.1180 H   0  0  0  0  0  0
  -19.6917  -25.6317   21.1256 H   0  0  0  0  0  0
  -19.6707  -27.3210   20.6788 H   0  0  0  0  0  0
  -17.4233  -26.6712   21.4025 H   0  0  0  0  0  0
  -18.0300  -26.0104   22.9050 H   0  0  0  0  0  0
  -19.7944  -30.7343   24.2204 H   0  0  0  0  0  0
  -17.4996  -31.6258   24.5182 H   0  0  0  0  0  0
  -15.5341  -30.2945   23.7710 H   0  0  0  0  0  0
  -15.8704  -28.0831   22.7023 H   0  0  0  0  0  0
  -24.5941  -30.7018   25.7730 H   0  0  0  0  0  0
  -24.8874  -32.2850   26.4844 H   0  0  0  0  0  0
  -25.8052  -30.8882   27.0216 H   0  0  0  0  0  0
  -26.2984  -29.6708   24.1292 H   0  0  0  0  0  0
  -27.4117  -29.7304   25.4779 H   0  0  0  0  0  0
  -27.8856  -30.4290   23.9462 H   0  0  0  0  0  0
  -27.2746  -33.3646   26.2002 H   0  0  0  0  0  0
  -28.3929  -32.6806   25.0303 H   0  0  0  0  0  0
  -28.0735  -31.8459   26.5439 H   0  0  0  0  0  0
  -28.2596  -38.0082   24.7550 H   0  0  0  0  0  0
  -28.1094  -36.2638   24.6272 H   0  0  0  0  0  0
  -27.2295  -37.1381   25.8856 H   0  0  0  0  0  0
  -20.9508  -29.8715   21.6822 H   0  0  0  0  0  0
  -26.0181  -38.2852   24.1435 H   0  0  0  0  0  0
  -31.9636  -18.2388   19.7110 H   0  0  0  0  0  0
  -31.2086  -22.9665   18.6688 H   0  0  0  0  0  0
  -31.1105  -18.3212   21.9336 H   0  0  0  0  0  0
  -29.5609  -18.7365   22.6085 H   0  0  0  0  0  0
  -30.5323  -16.1842   22.6895 H   0  0  0  0  0  0
  -28.8146  -16.4348   22.4273 H   0  0  0  0  0  0
  -28.7085  -16.9427   19.1923 H   0  0  0  0  0  0
  -30.4000  -17.0465   18.9324 H   0  0  0  0  0  0
  -28.5351  -18.8964   20.4674 H   0  0  0  0  0  0
  -34.3000  -18.6264   19.4002 H   0  0  0  0  0  0
  -34.8959  -20.0605   18.5933 H   0  0  0  0  0  0
  -34.0746  -18.7985   17.6581 H   0  0  0  0  0  0
  -34.0218  -21.5906   17.0152 H   0  0  0  0  0  0
  -34.2215  -22.6017   18.4440 H   0  0  0  0  0  0
  -33.0030  -23.0055   17.2331 H   0  0  0  0  0  0
  -27.8314  -24.5924   21.3098 H   0  0  0  0  0  0
  -27.1900  -24.4649   19.7140 H   0  0  0  0  0  0
  -30.1294  -23.9618   20.3156 H   0  0  0  0  0  0
  -29.3298  -23.8055   18.7723 H   0  0  0  0  0  0
  1 25  1  0  0  0
  1 30  2  0  0  0
  1 85  1  0  0  0
  2  3  1  0  0  0
  2 25  1  0  0  0
  2 87  1  0  0  0
  2 88  1  0  0  0
  3  4  1  0  0  0
  3 89  1  0  0  0
  3 90  1  0  0  0
  4  5  1  0  0  0
  4 91  1  0  0  0
  4 92  1  0  0  0
  5  6  1  0  0  0
  5 26  1  0  0  0
  5 93  1  0  0  0
  6 25  1  0  0  0
  6 94  1  0  0  0
  6 95  1  0  0  0
  7  8  2  0  0  0
  7 26  1  0  0  0
  7 29  1  0  0  0
  8  9  1  0  0  0
  8 22  1  0  0  0
  9 10  1  0  0  0
  9 27  2  0  0  0
 10 11  2  0  0  0
 10 15  1  0  0  0
 11 12  1  0  0  0
 11 96  1  0  0  0
 12 13  2  0  0  0
 12 97  1  0  0  0
 13 14  1  0  0  0
 13 31  1  0  0  0
 14 15  2  0  0  0
 14 98  1  0  0  0
 15 99  1  0  0  0
 16 17  2  0  0  0
 16 21  1  0  0  0
 16 31  1  0  0  0
 17 18  1  0  0  0
 17100  1  0  0  0
 18 19  2  0  0  0
 18101  1  0  0  0
 19 20  1  0  0  0
 19 24  1  0  0  0
 20 21  2  0  0  0
 20102  1  0  0  0
 21 23  1  0  0  0
 22 28  1  0  0  0
 22 32  2  0  0  0
 26 27  1  0  0  0
 28103  1  0  0  0
 28104  1  0  0  0
 29105  1  0  0  0
 29106  1  0  0  0
 33 34  1  0  0  0
 33 66  1  0  0  0
 33 70  2  0  0  0
 34 36  1  0  0  0
 34 59  1  0  0  0
 34107  1  0  0  0
 35 44  2  0  0  0
 35 45  1  0  0  0
 35 68  1  0  0  0
 36 56  1  0  0  0
 36108  1  0  0  0
 37 39  1  0  0  0
 37 47  1  0  0  0
 37 66  1  0  0  0
 37109  1  0  0  0
 38 43  2  0  0  0
 38 46  1  0  0  0
 38 47  1  0  0  0
 39 64  1  0  0  0
 39 67  2  0  0  0
 40 52  1  0  0  0
 40 53  2  0  0  0
 40 58  1  0  0  0
 41110  1  0  0  0
 41111  1  0  0  0
 41112  1  0  0  0
 41 48  1  0  0  0
 42 43  1  0  0  0
 42 66  1  0  0  0
 42113  1  0  0  0
 42114  1  0  0  0
 43 44  1  0  0  0
 44115  1  0  0  0
 45 46  2  0  0  0
 45116  1  0  0  0
 46117  1  0  0  0
 47118  1  0  0  0
 47119  1  0  0  0
 48 56  1  0  0  0
 48 65  1  0  0  0
 48120  1  0  0  0
 49 50  1  0  0  0
 49 53  1  0  0  0
 49 64  1  0  0  0
 49121  1  0  0  0
 50 51  1  0  0  0
 50122  1  0  0  0
 50123  1  0  0  0
 51 52  1  0  0  0
 51124  1  0  0  0
 51125  1  0  0  0
 52126  1  0  0  0
 52127  1  0  0  0
 53 54  1  0  0  0
 54 55  2  0  0  0
 54128  1  0  0  0
 55 57  1  0  0  0
 55129  1  0  0  0
 56 69  2  0  0  0
 57 58  2  0  0  0
 57130  1  0  0  0
 58131  1  0  0  0
 59 60  1  0  0  0
 59 61  1  0  0  0
 59 62  1  0  0  0
 60132  1  0  0  0
 60133  1  0  0  0
 60134  1  0  0  0
 61135  1  0  0  0
 61136  1  0  0  0
 61137  1  0  0  0
 62138  1  0  0  0
 62139  1  0  0  0
 62140  1  0  0  0
 63 65  1  0  0  0
 63141  1  0  0  0
 63142  1  0  0  0
 63143  1  0  0  0
 64144  1  0  0  0
 65145  1  0  0  0
 68 83  1  0  0  0
 71 73  2  0  0  0
 71 74  1  0  0  0
 71146  1  0  0  0
 72 75  1  0  0  0
 72 76  2  0  0  0
 72147  1  0  0  0
 73 76  1  0  0  0
 73 80  1  0  0  0
 74 75  2  0  0  0
 74 81  1  0  0  0
 75 82  1  0  0  0
 76 86  1  0  0  0
 77 78  1  0  0  0
 77 80  1  0  0  0
 77148  1  0  0  0
 77149  1  0  0  0
 78 85  1  0  0  0
 78150  1  0  0  0
 78151  1  0  0  0
 79 80  1  0  0  0
 79 85  1  0  0  0
 79152  1  0  0  0
 79153  1  0  0  0
 80154  1  0  0  0
 81155  1  0  0  0
 81156  1  0  0  0
 81157  1  0  0  0
 82158  1  0  0  0
 82159  1  0  0  0
 82160  1  0  0  0
 83 84  1  0  0  0
 83161  1  0  0  0
 83162  1  0  0  0
 84 86  1  0  0  0
 84163  1  0  0  0
 84164  1  0  0  0
M  ISO  4   1 100  68 101  83 101  85 100
M  END
> <chiral flag>
0

> <version>
0

> <s_m_source_file>
/data/baiqing/PycharmProjects/Reinvent-master-3.2/result/LINK_invent/BTK/process_docking_weight1_custom_sum_contain_oxygen_bond_distance_aromatic_linkinvent_7_9_3/rearranged_h_0151.sdf

> <i_m_source_file_index>
64

> <r_mmod_Potential_Energy-OPLS-2005>
570.926696777344

> <r_mmod_Stretch_Energy-OPLS-2005>
187.544555664062

> <r_mmod_Bend_Energy-OPLS-2005>
261.747436523438

> <r_mmod_Torsional_Energy-OPLS-2005>
356.041656494141

> <r_mmod_Improper_Torsional_Energy-OPLS-2005>
9.24477672576904

> <r_mmod_Van_der_Waal_Energy-OPLS-2005>
153.702514648438

> <r_mmod_Electrostatic_Energy-OPLS-2005>
-310.577575683594

> <r_mmod_Solvation_Energy-OPLS-2005>
-198.09033203125

> <b_mmod_Minimization_Converged-OPLS-2005>
0

> <r_mmod_RMS_Derivative-OPLS-2005>
4.64580678939819

$$$$
64
                    3D
 Structure written by MMmdl.
170179  0  0  1  0            999 V2000
  -30.6897  -14.4369   20.5963 C   0  0  0  0  0  0
  -30.4219  -12.2902   19.4042 C   0  0  0  0  0  0
  -29.4948  -12.5119   18.1907 C   0  0  0  0  0  0
  -28.0123  -12.3666   18.5978 C   0  0  0  0  0  0
  -27.6626  -13.1906   19.8672 C   0  0  2  0  0  0
  -28.6989  -12.9433   20.9871 C   0  0  0  0  0  0
  -25.2622  -13.8131   20.5641 C   0  0  0  0  0  0
  -24.1833  -13.0452   20.9120 C   0  0  0  0  0  0
  -24.6342  -11.6906   20.8671 C   0  0  0  0  0  0
  -23.9003  -10.4311   21.0385 C   0  0  0  0  0  0
  -24.3571   -9.4247   21.9181 C   0  0  0  0  0  0
  -23.6265   -8.2272   22.0772 C   0  0  0  0  0  0
  -22.4245   -8.0294   21.3559 C   0  0  0  0  0  0
  -21.9852   -9.0263   20.4659 C   0  0  0  0  0  0
  -22.7174  -10.2143   20.3053 C   0  0  0  0  0  0
  -21.6857   -6.0729   22.5277 C   0  0  0  0  0  0
  -21.4032   -6.5634   23.8216 C   0  0  0  0  0  0
  -21.3648   -5.6783   24.9174 C   0  0  0  0  0  0
  -21.6024   -4.3044   24.7217 C   0  0  0  0  0  0
  -21.8819   -3.8143   23.4339 C   0  0  0  0  0  0
  -21.9202   -4.6958   22.3399 C   0  0  0  0  0  0
  -22.7874  -13.5316   21.1785 C   0  0  0  0  0  0
  -22.1686   -4.2157   21.0977 F   0  0  0  0  0  0
  -21.5605   -3.4522   25.7713 F   0  0  0  0  0  0
  -30.0350  -13.2531   20.4446 N   0  0  0  0  0  0
  -26.3013  -12.9259   20.3273 N   0  0  0  0  0  0
  -25.9253  -11.6435   20.5648 N   0  0  0  0  0  0
  -22.0472  -12.8351   22.0321 N   0  0  0  0  0  0
  -25.4380  -15.1842   20.4113 N   0  0  0  0  0  0
  -31.8006  -14.6634   20.1047 O   0  0  0  0  0  0
  -21.6637   -6.8873   21.4240 O   0  0  0  0  0  0
  -22.3603  -14.5653   20.6653 O   0  0  0  0  0  0
  -24.6194  -31.8697   23.2162 C   0  0  0  0  0  0
  -25.9090  -32.4811   23.8434 C   0  0  1  0  0  0
  -27.2098  -27.3777   20.0843 C   0  0  0  0  0  0
  -25.5970  -33.8619   24.2348 N   0  0  0  0  0  0
  -23.4046  -30.5055   21.5559 C   0  0  2  0  0  0
  -24.8461  -28.9823   20.1109 C   0  0  0  0  0  0
  -22.7415  -29.4707   22.4962 C   0  0  0  0  0  0
  -18.0285  -28.1402   22.8467 C   0  0  0  0  0  0
  -24.1486  -36.7291   23.2629 C   0  0  0  0  0  0
  -25.9471  -30.8130   21.3878 C   0  0  0  0  0  0
  -26.0164  -29.4490   20.7249 C   0  0  0  0  0  0
  -27.1934  -28.6489   20.7260 C   0  0  0  0  0  0
  -26.0285  -27.0046   19.3911 C   0  0  0  0  0  0
  -24.8523  -27.7574   19.4432 C   0  0  0  0  0  0
  -23.6143  -29.8562   20.1668 C   0  0  0  0  0  0
  -25.4103  -36.3090   24.0329 C   0  0  1  0  0  0
  -20.5882  -28.3704   23.1276 C   0  0  2  0  0  0
  -20.6771  -26.9441   22.5383 C   0  0  0  0  0  0
  -19.5749  -26.6404   21.5187 C   0  0  0  0  0  0
  -18.1939  -26.7930   22.1622 C   0  0  0  0  0  0
  -19.1537  -28.8860   23.2864 C   0  0  0  0  0  0
  -18.9469  -30.1468   23.8883 C   0  0  0  0  0  0
  -17.6480  -30.6599   24.0571 C   0  0  0  0  0  0
  -25.9048  -34.9465   23.5102 C   0  0  0  0  0  0
  -16.5363  -29.9105   23.6351 C   0  0  0  0  0  0
  -16.7275  -28.6523   23.0341 C   0  0  0  0  0  0
  -26.4501  -31.6596   25.0767 C   0  0  0  0  0  0
  -25.3797  -31.3759   26.1555 C   0  0  0  0  0  0
  -27.0285  -30.2998   24.6191 C   0  0  0  0  0  0
  -27.6073  -32.4311   25.7518 C   0  0  0  0  0  0
  -27.5562  -37.1806   24.8464 C   0  0  0  0  0  0
  -21.4146  -29.3068   22.3672 N   0  0  0  0  0  0
  -26.4272  -37.3792   23.9419 N   0  0  0  0  0  0
  -24.6741  -31.0771   22.1080 N   0  0  0  0  0  0
  -23.4169  -28.8240   23.2989 O   0  0  0  0  0  0
  -28.3159  -26.5164   20.1619 O   0  0  0  0  0  0
  -26.5586  -34.8915   22.4655 O   0  0  0  0  0  0
  -23.5378  -32.1486   23.7531 O   0  0  0  0  0  0
  -27.9919  -22.9698   20.8798 C   0  0  0  0  0  0
  -30.1323  -23.5579   19.9120 C   0  0  0  0  0  0
  -28.4339  -21.6481   21.1349 C   0  0  0  0  0  0
  -28.8046  -23.9249   20.2194 C   0  0  0  0  0  0
  -30.6011  -22.2440   20.1862 C   0  0  0  0  0  0
  -29.7424  -21.2600   20.7411 C   0  0  0  0  0  0
  -25.3051  -19.6496   22.1166 C   0  0  0  0  0  0
  -25.8652  -20.0820   23.4842 C   0  0  0  0  0  0
  -26.2330  -20.2746   21.0587 C   0  0  0  0  0  0
  -26.9240  -21.1427   23.1711 C   0  0  0  0  0  0
  -27.4978  -20.6622   21.8358 C   0  0  0  0  0  0
  -32.0357  -21.8750   19.8584 C   0  0  0  0  0  0
  -28.1297  -25.1739   19.6134 C   0  0  0  0  0  0
  -30.5540  -17.6301   20.1044 C   0  0  0  0  0  0
  -30.3092  -16.8184   21.4100 C   0  0  0  0  0  0
  -29.8126  -18.9923   19.9766 C   0  0  0  0  0  0
  -29.9768  -15.3954   21.2074 N   0  0  0  0  0  0
  -30.2192  -19.9728   20.9447 O   0  0  0  0  0  0
  -31.4665  -12.3922   19.1017 H   0  0  0  0  0  0
  -30.3259  -11.2721   19.7822 H   0  0  0  0  0  0
  -29.7443  -11.8110   17.3923 H   0  0  0  0  0  0
  -29.6655  -13.5105   17.7844 H   0  0  0  0  0  0
  -27.8174  -11.3080   18.7773 H   0  0  0  0  0  0
  -27.3632  -12.6590   17.7733 H   0  0  0  0  0  0
  -27.7188  -14.2421   19.5896 H   0  0  0  0  0  0
  -28.6611  -11.9024   21.3119 H   0  0  0  0  0  0
  -28.4497  -13.5189   21.8778 H   0  0  0  0  0  0
  -25.2730   -9.5734   22.4743 H   0  0  0  0  0  0
  -24.0000   -7.4657   22.7474 H   0  0  0  0  0  0
  -21.0807   -8.8780   19.8937 H   0  0  0  0  0  0
  -22.3675  -10.9682   19.6143 H   0  0  0  0  0  0
  -21.2066   -7.6143   23.9735 H   0  0  0  0  0  0
  -21.1446   -6.0496   25.9082 H   0  0  0  0  0  0
  -22.0598   -2.7610   23.2822 H   0  0  0  0  0  0
  -22.4072  -12.0027   22.4738 H   0  0  0  0  0  0
  -21.1078  -13.1405   22.2459 H   0  0  0  0  0  0
  -24.6698  -15.8329   20.5472 H   0  0  0  0  0  0
  -26.2872  -15.6313   20.0910 H   0  0  0  0  0  0
  -26.7151  -32.5507   23.1189 H   0  0  0  0  0  0
  -25.0190  -33.9790   25.0537 H   0  0  0  0  0  0
  -22.6946  -31.3259   21.4270 H   0  0  0  0  0  0
  -23.3735  -35.9633   23.3283 H   0  0  0  0  0  0
  -24.3583  -36.8910   22.2046 H   0  0  0  0  0  0
  -23.7251  -37.6497   23.6641 H   0  0  0  0  0  0
  -26.0903  -31.5887   20.6323 H   0  0  0  0  0  0
  -26.8209  -30.8449   22.0231 H   0  0  0  0  0  0
  -28.0761  -28.9977   21.2420 H   0  0  0  0  0  0
  -25.9547  -26.1291   18.7688 H   0  0  0  0  0  0
  -23.9691  -27.3960   18.9340 H   0  0  0  0  0  0
  -23.7369  -30.6420   19.4214 H   0  0  0  0  0  0
  -22.7319  -29.2941   19.8529 H   0  0  0  0  0  0
  -25.1289  -36.1932   25.0819 H   0  0  0  0  0  0
  -20.9982  -28.3279   24.1395 H   0  0  0  0  0  0
  -20.5673  -26.2329   23.3582 H   0  0  0  0  0  0
  -21.6652  -26.7481   22.1202 H   0  0  0  0  0  0
  -19.6915  -25.6311   21.1229 H   0  0  0  0  0  0
  -19.6668  -27.3195   20.6697 H   0  0  0  0  0  0
  -17.4194  -26.6641   21.4038 H   0  0  0  0  0  0
  -18.0375  -26.0087   22.9042 H   0  0  0  0  0  0
  -19.7955  -30.7280   24.2221 H   0  0  0  0  0  0
  -17.5056  -31.6279   24.5187 H   0  0  0  0  0  0
  -15.5371  -30.3021   23.7683 H   0  0  0  0  0  0
  -15.8664  -28.0862   22.7053 H   0  0  0  0  0  0
  -24.5870  -30.7203   25.7944 H   0  0  0  0  0  0
  -24.9140  -32.2950   26.5113 H   0  0  0  0  0  0
  -25.8207  -30.8854   27.0241 H   0  0  0  0  0  0
  -26.2816  -29.6786   24.1227 H   0  0  0  0  0  0
  -27.3964  -29.7234   25.4685 H   0  0  0  0  0  0
  -27.8722  -30.4233   23.9398 H   0  0  0  0  0  0
  -27.2691  -33.3638   26.2049 H   0  0  0  0  0  0
  -28.3918  -32.6822   25.0365 H   0  0  0  0  0  0
  -28.0674  -31.8451   26.5484 H   0  0  0  0  0  0
  -28.2597  -38.0087   24.7518 H   0  0  0  0  0  0
  -28.1046  -36.2627   24.6284 H   0  0  0  0  0  0
  -27.2283  -37.1460   25.8867 H   0  0  0  0  0  0
  -20.9300  -29.8829   21.6941 H   0  0  0  0  0  0
  -26.0134  -38.2850   24.1445 H   0  0  0  0  0  0
  -26.9754  -23.2292   21.1375 H   0  0  0  0  0  0
  -30.7702  -24.2693   19.4055 H   0  0  0  0  0  0
  -24.2748  -19.9834   21.9835 H   0  0  0  0  0  0
  -25.2995  -18.5620   22.0359 H   0  0  0  0  0  0
  -26.3541  -19.2336   23.9653 H   0  0  0  0  0  0
  -25.0927  -20.4398   24.1662 H   0  0  0  0  0  0
  -25.7475  -21.1668   20.6581 H   0  0  0  0  0  0
  -26.4313  -19.6049   20.2224 H   0  0  0  0  0  0
  -27.6772  -21.2376   23.9533 H   0  0  0  0  0  0
  -26.4323  -22.1112   23.0624 H   0  0  0  0  0  0
  -28.0489  -19.7450   22.0454 H   0  0  0  0  0  0
  -32.6216  -22.7447   19.5608 H   0  0  0  0  0  0
  -32.0709  -21.1423   19.0516 H   0  0  0  0  0  0
  -32.5150  -21.4351   20.7331 H   0  0  0  0  0  0
  -27.0966  -24.8563   19.7095 H   0  0  0  0  0  0
  -28.3435  -25.1928   18.5435 H   0  0  0  0  0  0
  -30.2808  -17.0230   19.2378 H   0  0  0  0  0  0
  -31.6269  -17.7955   19.9983 H   0  0  0  0  0  0
  -29.4904  -17.2677   21.9730 H   0  0  0  0  0  0
  -31.1861  -16.8837   22.0565 H   0  0  0  0  0  0
  -28.7366  -18.8254   20.0229 H   0  0  0  0  0  0
  -30.0133  -19.3868   18.9788 H   0  0  0  0  0  0
  -29.0838  -15.0871   21.5674 H   0  0  0  0  0  0
  1 25  1  0  0  0
  1 30  2  0  0  0
  1 87  1  0  0  0
  2  3  1  0  0  0
  2 25  1  0  0  0
  2 89  1  0  0  0
  2 90  1  0  0  0
  3  4  1  0  0  0
  3 91  1  0  0  0
  3 92  1  0  0  0
  4  5  1  0  0  0
  4 93  1  0  0  0
  4 94  1  0  0  0
  5  6  1  0  0  0
  5 26  1  0  0  0
  5 95  1  0  0  0
  6 25  1  0  0  0
  6 96  1  0  0  0
  6 97  1  0  0  0
  7  8  2  0  0  0
  7 26  1  0  0  0
  7 29  1  0  0  0
  8  9  1  0  0  0
  8 22  1  0  0  0
  9 10  1  0  0  0
  9 27  2  0  0  0
 10 11  2  0  0  0
 10 15  1  0  0  0
 11 12  1  0  0  0
 11 98  1  0  0  0
 12 13  2  0  0  0
 12 99  1  0  0  0
 13 14  1  0  0  0
 13 31  1  0  0  0
 14 15  2  0  0  0
 14100  1  0  0  0
 15101  1  0  0  0
 16 17  2  0  0  0
 16 21  1  0  0  0
 16 31  1  0  0  0
 17 18  1  0  0  0
 17102  1  0  0  0
 18 19  2  0  0  0
 18103  1  0  0  0
 19 20  1  0  0  0
 19 24  1  0  0  0
 20 21  2  0  0  0
 20104  1  0  0  0
 21 23  1  0  0  0
 22 28  1  0  0  0
 22 32  2  0  0  0
 26 27  1  0  0  0
 28105  1  0  0  0
 28106  1  0  0  0
 29107  1  0  0  0
 29108  1  0  0  0
 33 34  1  0  0  0
 33 66  1  0  0  0
 33 70  2  0  0  0
 34 36  1  0  0  0
 34 59  1  0  0  0
 34109  1  0  0  0
 35 44  2  0  0  0
 35 45  1  0  0  0
 35 68  1  0  0  0
 36 56  1  0  0  0
 36110  1  0  0  0
 37 39  1  0  0  0
 37 47  1  0  0  0
 37 66  1  0  0  0
 37111  1  0  0  0
 38 43  2  0  0  0
 38 46  1  0  0  0
 38 47  1  0  0  0
 39 64  1  0  0  0
 39 67  2  0  0  0
 40 52  1  0  0  0
 40 53  2  0  0  0
 40 58  1  0  0  0
 41112  1  0  0  0
 41113  1  0  0  0
 41114  1  0  0  0
 41 48  1  0  0  0
 42 43  1  0  0  0
 42 66  1  0  0  0
 42115  1  0  0  0
 42116  1  0  0  0
 43 44  1  0  0  0
 44117  1  0  0  0
 45 46  2  0  0  0
 45118  1  0  0  0
 46119  1  0  0  0
 47120  1  0  0  0
 47121  1  0  0  0
 48 56  1  0  0  0
 48 65  1  0  0  0
 48122  1  0  0  0
 49 50  1  0  0  0
 49 53  1  0  0  0
 49 64  1  0  0  0
 49123  1  0  0  0
 50 51  1  0  0  0
 50124  1  0  0  0
 50125  1  0  0  0
 51 52  1  0  0  0
 51126  1  0  0  0
 51127  1  0  0  0
 52128  1  0  0  0
 52129  1  0  0  0
 53 54  1  0  0  0
 54 55  2  0  0  0
 54130  1  0  0  0
 55 57  1  0  0  0
 55131  1  0  0  0
 56 69  2  0  0  0
 57 58  2  0  0  0
 57132  1  0  0  0
 58133  1  0  0  0
 59 60  1  0  0  0
 59 61  1  0  0  0
 59 62  1  0  0  0
 60134  1  0  0  0
 60135  1  0  0  0
 60136  1  0  0  0
 61137  1  0  0  0
 61138  1  0  0  0
 61139  1  0  0  0
 62140  1  0  0  0
 62141  1  0  0  0
 62142  1  0  0  0
 63 65  1  0  0  0
 63143  1  0  0  0
 63144  1  0  0  0
 63145  1  0  0  0
 64146  1  0  0  0
 65147  1  0  0  0
 68 83  1  0  0  0
 71 73  2  0  0  0
 71 74  1  0  0  0
 71148  1  0  0  0
 72 74  2  0  0  0
 72 75  1  0  0  0
 72149  1  0  0  0
 73 76  1  0  0  0
 73 81  1  0  0  0
 74 83  1  0  0  0
 75 76  2  0  0  0
 75 82  1  0  0  0
 76 88  1  0  0  0
 77 78  1  0  0  0
 77 79  1  0  0  0
 77150  1  0  0  0
 77151  1  0  0  0
 78 80  1  0  0  0
 78152  1  0  0  0
 78153  1  0  0  0
 79 81  1  0  0  0
 79154  1  0  0  0
 79155  1  0  0  0
 80 81  1  0  0  0
 80156  1  0  0  0
 80157  1  0  0  0
 81158  1  0  0  0
 82159  1  0  0  0
 82160  1  0  0  0
 82161  1  0  0  0
 83162  1  0  0  0
 83163  1  0  0  0
 84 85  1  0  0  0
 84 86  1  0  0  0
 84164  1  0  0  0
 84165  1  0  0  0
 85 87  1  0  0  0
 85166  1  0  0  0
 85167  1  0  0  0
 86 88  1  0  0  0
 86168  1  0  0  0
 86169  1  0  0  0
 87170  1  0  0  0
M  ISO  4   1 100  68 101  83 101  87 100
M  END
> <chiral flag>
0

> <version>
0

> <s_m_source_file>
/data/baiqing/PycharmProjects/Reinvent-master-3.2/result/LINK_invent/BTK/process_docking_weight1_custom_sum_contain_oxygen_bond_distance_aromatic_linkinvent_7_9_3/rearranged_h_0151.sdf

> <i_m_source_file_index>
65

> <r_mmod_Potential_Energy-OPLS-2005>
119.853073120117

> <r_mmod_Stretch_Energy-OPLS-2005>
48.8277435302734

> <r_mmod_Bend_Energy-OPLS-2005>
151.285858154297

> <r_mmod_Torsional_Energy-OPLS-2005>
304.013549804688

> <r_mmod_Improper_Torsional_Energy-OPLS-2005>
5.09501981735229

> <r_mmod_Van_der_Waal_Energy-OPLS-2005>
161.991668701172

> <r_mmod_Electrostatic_Energy-OPLS-2005>
-367.555541992188

> <r_mmod_Solvation_Energy-OPLS-2005>
-207.782577514648

> <b_mmod_Minimization_Converged-OPLS-2005>
0

> <r_mmod_RMS_Derivative-OPLS-2005>
4.59119081497192

$$$$
65
                    3D
 Structure written by MMmdl.
164173  0  0  1  0            999 V2000
  -30.6275  -14.8871   20.4344 C   0  0  0  0  0  0
  -30.4188  -12.5583   19.4826 C   0  0  0  0  0  0
  -29.5038  -12.5164   18.2413 C   0  0  0  0  0  0
  -28.0378  -12.3205   18.6665 C   0  0  0  0  0  0
  -27.6254  -13.2533   19.8371 C   0  0  2  0  0  0
  -28.6748  -13.2780   20.9681 C   0  0  0  0  0  0
  -25.2449  -13.8241   20.5733 C   0  0  0  0  0  0
  -24.1766  -13.0457   20.9228 C   0  0  0  0  0  0
  -24.6393  -11.6945   20.8765 C   0  0  0  0  0  0
  -23.9081  -10.4304   21.0413 C   0  0  0  0  0  0
  -24.3629   -9.4217   21.9189 C   0  0  0  0  0  0
  -23.6303   -8.2250   22.0757 C   0  0  0  0  0  0
  -22.4284   -8.0286   21.3545 C   0  0  0  0  0  0
  -21.9928   -9.0261   20.4643 C   0  0  0  0  0  0
  -22.7259  -10.2139   20.3057 C   0  0  0  0  0  0
  -21.6857   -6.0742   22.5281 C   0  0  0  0  0  0
  -21.4017   -6.5643   23.8216 C   0  0  0  0  0  0
  -21.3657   -5.6793   24.9173 C   0  0  0  0  0  0
  -21.6036   -4.3054   24.7223 C   0  0  0  0  0  0
  -21.8825   -3.8150   23.4346 C   0  0  0  0  0  0
  -21.9199   -4.6969   22.3401 C   0  0  0  0  0  0
  -22.7787  -13.5218   21.1880 C   0  0  0  0  0  0
  -22.1666   -4.2155   21.0980 F   0  0  0  0  0  0
  -21.5627   -3.4538   25.7735 F   0  0  0  0  0  0
  -29.9449  -13.6762   20.3503 N   0  0  0  0  0  0
  -26.2872  -12.9485   20.3283 N   0  0  0  0  0  0
  -25.9328  -11.6606   20.5774 N   0  0  0  0  0  0
  -22.0436  -12.8192   22.0426 N   0  0  0  0  0  0
  -25.4134  -15.1968   20.4158 N   0  0  0  0  0  0
  -31.8376  -14.8338   20.1837 O   0  0  0  0  0  0
  -21.6646   -6.8886   21.4243 O   0  0  0  0  0  0
  -22.3468  -14.5521   20.6728 O   0  0  0  0  0  0
  -24.6407  -31.8484   23.1915 C   0  0  0  0  0  0
  -25.9194  -32.4727   23.8290 C   0  0  1  0  0  0
  -27.2032  -27.1543   20.1395 C   0  0  0  0  0  0
  -25.5950  -33.8532   24.2208 N   0  0  0  0  0  0
  -23.4418  -30.4713   21.5389 C   0  0  2  0  0  0
  -24.8884  -28.9105   20.1048 C   0  0  0  0  0  0
  -22.7551  -29.4567   22.4886 C   0  0  0  0  0  0
  -18.0293  -28.1393   22.8488 C   0  0  0  0  0  0
  -24.1479  -36.7258   23.2645 C   0  0  0  0  0  0
  -25.9986  -30.7246   21.3916 C   0  0  0  0  0  0
  -26.0654  -29.3399   20.7304 C   0  0  0  0  0  0
  -27.2206  -28.4746   20.7414 C   0  0  0  0  0  0
  -26.0112  -26.8454   19.4427 C   0  0  0  0  0  0
  -24.8734  -27.6749   19.4466 C   0  0  0  0  0  0
  -23.6652  -29.8094   20.1544 C   0  0  0  0  0  0
  -25.4118  -36.3062   24.0325 C   0  0  1  0  0  0
  -20.5911  -28.3704   23.1253 C   0  0  2  0  0  0
  -20.6785  -26.9422   22.5401 C   0  0  0  0  0  0
  -19.5752  -26.6378   21.5218 C   0  0  0  0  0  0
  -18.1932  -26.7944   22.1621 C   0  0  0  0  0  0
  -19.1558  -28.8873   23.2863 C   0  0  0  0  0  0
  -18.9484  -30.1479   23.8875 C   0  0  0  0  0  0
  -17.6478  -30.6598   24.0559 C   0  0  0  0  0  0
  -25.9065  -34.9427   23.5074 C   0  0  0  0  0  0
  -16.5367  -29.9081   23.6346 C   0  0  0  0  0  0
  -16.7279  -28.6500   23.0375 C   0  0  0  0  0  0
  -26.4504  -31.6595   25.0727 C   0  0  0  0  0  0
  -25.3673  -31.3777   26.1414 C   0  0  0  0  0  0
  -27.0374  -30.2999   24.6297 C   0  0  0  0  0  0
  -27.6047  -32.4356   25.7510 C   0  0  0  0  0  0
  -27.5568  -37.1793   24.8475 C   0  0  0  0  0  0
  -21.4248  -29.3038   22.3638 N   0  0  0  0  0  0
  -26.4274  -37.3785   23.9418 N   0  0  0  0  0  0
  -24.7140  -31.0357   22.0953 N   0  0  0  0  0  0
  -23.4212  -28.8111   23.3023 O   0  0  0  0  0  0
  -28.2314  -26.1507   20.2581 O   0  0  0  0  0  0
  -26.5667  -34.8919   22.4656 O   0  0  0  0  0  0
  -23.5534  -32.1345   23.7147 O   0  0  0  0  0  0
  -28.8787  -23.0335   21.8330 C   0  0  0  0  0  0
  -28.5870  -23.2928   20.4562 C   0  0  0  0  0  0
  -29.2178  -21.7016   22.0137 C   0  0  0  0  0  0
  -28.7895  -22.0080   19.8716 C   0  0  0  0  0  0
  -30.0988  -18.7563   19.4366 C   0  0  0  0  0  0
  -28.5562  -18.3218   21.2039 C   0  0  0  0  0  0
  -30.7332  -17.2911   19.6395 C   0  0  0  0  0  0
  -29.0986  -16.8049   21.3886 C   0  0  0  0  0  0
  -29.5678  -19.4373   20.7324 C   0  0  0  0  0  0
  -28.7942  -24.0475   22.9487 C   0  0  0  0  0  0
  -29.6010  -21.0333   23.3036 C   0  0  0  0  0  0
  -28.6278  -21.6297   18.4350 C   0  0  0  0  0  0
  -27.9830  -24.6871   19.8155 C   0  0  0  0  0  0
  -29.1834  -20.9818   20.8118 N   0  0  0  0  0  0
  -29.9961  -16.1725   20.3561 N   0  0  0  0  0  0
  -31.4550  -12.6769   19.1637 H   0  0  0  0  0  0
  -30.3871  -11.6098   20.0208 H   0  0  0  0  0  0
  -29.8106  -11.7144   17.5676 H   0  0  0  0  0  0
  -29.6026  -13.4465   17.6800 H   0  0  0  0  0  0
  -27.9235  -11.2790   18.9698 H   0  0  0  0  0  0
  -27.3725  -12.4616   17.8139 H   0  0  0  0  0  0
  -27.5911  -14.2570   19.4123 H   0  0  0  0  0  0
  -28.7586  -12.3018   21.4481 H   0  0  0  0  0  0
  -28.3890  -13.9764   21.7532 H   0  0  0  0  0  0
  -25.2775   -9.5693   22.4766 H   0  0  0  0  0  0
  -24.0013   -7.4644   22.7478 H   0  0  0  0  0  0
  -21.0863   -8.8774   19.8945 H   0  0  0  0  0  0
  -22.3719  -10.9673   19.6158 H   0  0  0  0  0  0
  -21.2006   -7.6153   23.9720 H   0  0  0  0  0  0
  -21.1469   -6.0520   25.9075 H   0  0  0  0  0  0
  -22.0605   -2.7616   23.2842 H   0  0  0  0  0  0
  -22.4070  -11.9856   22.4802 H   0  0  0  0  0  0
  -21.1045  -13.1200   22.2633 H   0  0  0  0  0  0
  -24.6467  -15.8509   20.5281 H   0  0  0  0  0  0
  -26.2667  -15.6363   20.0968 H   0  0  0  0  0  0
  -26.7254  -32.5332   23.1009 H   0  0  0  0  0  0
  -25.0103  -33.9654   25.0367 H   0  0  0  0  0  0
  -22.7439  -31.2985   21.3890 H   0  0  0  0  0  0
  -23.3765  -35.9565   23.3320 H   0  0  0  0  0  0
  -24.3562  -36.8874   22.2055 H   0  0  0  0  0  0
  -23.7193  -37.6438   23.6673 H   0  0  0  0  0  0
  -26.1596  -31.4806   20.6209 H   0  0  0  0  0  0
  -26.8713  -30.7710   22.0329 H   0  0  0  0  0  0
  -28.1092  -28.7906   21.2692 H   0  0  0  0  0  0
  -25.9041  -25.9241   18.8926 H   0  0  0  0  0  0
  -23.9790  -27.3479   18.9323 H   0  0  0  0  0  0
  -23.7946  -30.5878   19.4015 H   0  0  0  0  0  0
  -22.7800  -29.2499   19.8463 H   0  0  0  0  0  0
  -25.1307  -36.1901   25.0821 H   0  0  0  0  0  0
  -21.0006  -28.3292   24.1372 H   0  0  0  0  0  0
  -20.5712  -26.2318   23.3616 H   0  0  0  0  0  0
  -21.6654  -26.7444   22.1187 H   0  0  0  0  0  0
  -19.6910  -25.6286   21.1252 H   0  0  0  0  0  0
  -19.6694  -27.3196   20.6761 H   0  0  0  0  0  0
  -17.4214  -26.6712   21.4012 H   0  0  0  0  0  0
  -18.0298  -26.0090   22.9024 H   0  0  0  0  0  0
  -19.7967  -30.7290   24.2246 H   0  0  0  0  0  0
  -17.5041  -31.6284   24.5147 H   0  0  0  0  0  0
  -15.5378  -30.2980   23.7683 H   0  0  0  0  0  0
  -15.8682  -28.0794   22.7131 H   0  0  0  0  0  0
  -24.5883  -30.7097   25.7724 H   0  0  0  0  0  0
  -24.8823  -32.2954   26.4751 H   0  0  0  0  0  0
  -25.7946  -30.9006   27.0249 H   0  0  0  0  0  0
  -26.2988  -29.6733   24.1279 H   0  0  0  0  0  0
  -27.3992  -29.7281   25.4857 H   0  0  0  0  0  0
  -27.8898  -30.4271   23.9619 H   0  0  0  0  0  0
  -27.2662  -33.3701   26.2001 H   0  0  0  0  0  0
  -28.3898  -32.6844   25.0358 H   0  0  0  0  0  0
  -28.0664  -31.8528   26.5491 H   0  0  0  0  0  0
  -28.2610  -38.0073   24.7551 H   0  0  0  0  0  0
  -28.1045  -36.2610   24.6288 H   0  0  0  0  0  0
  -27.2295  -37.1435   25.8882 H   0  0  0  0  0  0
  -20.9458  -29.8743   21.6807 H   0  0  0  0  0  0
  -26.0148  -38.2860   24.1431 H   0  0  0  0  0  0
  -29.2959  -18.6989   18.7003 H   0  0  0  0  0  0
  -30.8580  -19.3992   18.9899 H   0  0  0  0  0  0
  -28.0906  -18.6265   22.1401 H   0  0  0  0  0  0
  -27.7301  -18.2998   20.4913 H   0  0  0  0  0  0
  -31.6764  -17.4351   20.1703 H   0  0  0  0  0  0
  -31.0192  -16.9165   18.6552 H   0  0  0  0  0  0
  -28.2294  -16.1641   21.5255 H   0  0  0  0  0  0
  -29.6415  -16.7588   22.3340 H   0  0  0  0  0  0
  -30.4149  -19.3556   21.4140 H   0  0  0  0  0  0
  -28.6060  -25.0525   22.5751 H   0  0  0  0  0  0
  -29.7253  -24.0689   23.5165 H   0  0  0  0  0  0
  -27.9866  -23.7835   23.6331 H   0  0  0  0  0  0
  -29.4097  -21.6757   24.1623 H   0  0  0  0  0  0
  -30.6619  -20.7834   23.3155 H   0  0  0  0  0  0
  -29.0383  -20.1175   23.4732 H   0  0  0  0  0  0
  -28.2248  -22.4533   17.8470 H   0  0  0  0  0  0
  -27.9493  -20.7836   18.3248 H   0  0  0  0  0  0
  -29.5879  -21.3573   17.9973 H   0  0  0  0  0  0
  -26.9211  -24.4841   19.9275 H   0  0  0  0  0  0
  -28.1836  -24.6587   18.7448 H   0  0  0  0  0  0
  1 25  1  0  0  0
  1 30  2  0  0  0
  1 85  1  0  0  0
  2  3  1  0  0  0
  2 25  1  0  0  0
  2 86  1  0  0  0
  2 87  1  0  0  0
  3  4  1  0  0  0
  3 88  1  0  0  0
  3 89  1  0  0  0
  4  5  1  0  0  0
  4 90  1  0  0  0
  4 91  1  0  0  0
  5  6  1  0  0  0
  5 26  1  0  0  0
  5 92  1  0  0  0
  6 25  1  0  0  0
  6 93  1  0  0  0
  6 94  1  0  0  0
  7  8  2  0  0  0
  7 26  1  0  0  0
  7 29  1  0  0  0
  8  9  1  0  0  0
  8 22  1  0  0  0
  9 10  1  0  0  0
  9 27  2  0  0  0
 10 11  2  0  0  0
 10 15  1  0  0  0
 11 12  1  0  0  0
 11 95  1  0  0  0
 12 13  2  0  0  0
 12 96  1  0  0  0
 13 14  1  0  0  0
 13 31  1  0  0  0
 14 15  2  0  0  0
 14 97  1  0  0  0
 15 98  1  0  0  0
 16 17  2  0  0  0
 16 21  1  0  0  0
 16 31  1  0  0  0
 17 18  1  0  0  0
 17 99  1  0  0  0
 18 19  2  0  0  0
 18100  1  0  0  0
 19 20  1  0  0  0
 19 24  1  0  0  0
 20 21  2  0  0  0
 20101  1  0  0  0
 21 23  1  0  0  0
 22 28  1  0  0  0
 22 32  2  0  0  0
 26 27  1  0  0  0
 28102  1  0  0  0
 28103  1  0  0  0
 29104  1  0  0  0
 29105  1  0  0  0
 33 34  1  0  0  0
 33 66  1  0  0  0
 33 70  2  0  0  0
 34 36  1  0  0  0
 34 59  1  0  0  0
 34106  1  0  0  0
 35 44  2  0  0  0
 35 45  1  0  0  0
 35 68  1  0  0  0
 36 56  1  0  0  0
 36107  1  0  0  0
 37 39  1  0  0  0
 37 47  1  0  0  0
 37 66  1  0  0  0
 37108  1  0  0  0
 38 43  2  0  0  0
 38 46  1  0  0  0
 38 47  1  0  0  0
 39 64  1  0  0  0
 39 67  2  0  0  0
 40 52  1  0  0  0
 40 53  2  0  0  0
 40 58  1  0  0  0
 41109  1  0  0  0
 41110  1  0  0  0
 41111  1  0  0  0
 41 48  1  0  0  0
 42 43  1  0  0  0
 42 66  1  0  0  0
 42112  1  0  0  0
 42113  1  0  0  0
 43 44  1  0  0  0
 44114  1  0  0  0
 45 46  2  0  0  0
 45115  1  0  0  0
 46116  1  0  0  0
 47117  1  0  0  0
 47118  1  0  0  0
 48 56  1  0  0  0
 48 65  1  0  0  0
 48119  1  0  0  0
 49 50  1  0  0  0
 49 53  1  0  0  0
 49 64  1  0  0  0
 49120  1  0  0  0
 50 51  1  0  0  0
 50121  1  0  0  0
 50122  1  0  0  0
 51 52  1  0  0  0
 51123  1  0  0  0
 51124  1  0  0  0
 52125  1  0  0  0
 52126  1  0  0  0
 53 54  1  0  0  0
 54 55  2  0  0  0
 54127  1  0  0  0
 55 57  1  0  0  0
 55128  1  0  0  0
 56 69  2  0  0  0
 57 58  2  0  0  0
 57129  1  0  0  0
 58130  1  0  0  0
 59 60  1  0  0  0
 59 61  1  0  0  0
 59 62  1  0  0  0
 60131  1  0  0  0
 60132  1  0  0  0
 60133  1  0  0  0
 61134  1  0  0  0
 61135  1  0  0  0
 61136  1  0  0  0
 62137  1  0  0  0
 62138  1  0  0  0
 62139  1  0  0  0
 63 65  1  0  0  0
 63140  1  0  0  0
 63141  1  0  0  0
 63142  1  0  0  0
 64143  1  0  0  0
 65144  1  0  0  0
 68 83  1  0  0  0
 71 72  1  0  0  0
 71 73  2  0  0  0
 71 80  1  0  0  0
 72 74  2  0  0  0
 72 83  1  0  0  0
 73 81  1  0  0  0
 73 84  1  0  0  0
 74 82  1  0  0  0
 74 84  1  0  0  0
 75 77  1  0  0  0
 75 79  1  0  0  0
 75145  1  0  0  0
 75146  1  0  0  0
 76 78  1  0  0  0
 76 79  1  0  0  0
 76147  1  0  0  0
 76148  1  0  0  0
 77 85  1  0  0  0
 77149  1  0  0  0
 77150  1  0  0  0
 78 85  1  0  0  0
 78151  1  0  0  0
 78152  1  0  0  0
 79 84  1  0  0  0
 79153  1  0  0  0
 80154  1  0  0  0
 80155  1  0  0  0
 80156  1  0  0  0
 81157  1  0  0  0
 81158  1  0  0  0
 81159  1  0  0  0
 82160  1  0  0  0
 82161  1  0  0  0
 82162  1  0  0  0
 83163  1  0  0  0
 83164  1  0  0  0
M  ISO  4   1 100  68 101  83 101  85 100
M  END
> <chiral flag>
0

> <version>
0

> <s_m_source_file>
/data/baiqing/PycharmProjects/Reinvent-master-3.2/result/LINK_invent/BTK/process_docking_weight1_custom_sum_contain_oxygen_bond_distance_aromatic_linkinvent_7_9_3/rearranged_h_0151.sdf

> <i_m_source_file_index>
66

> <r_mmod_Potential_Energy-OPLS-2005>
647.111938476562

> <r_mmod_Stretch_Energy-OPLS-2005>
211.496994018555

> <r_mmod_Bend_Energy-OPLS-2005>
285.943939208984

> <r_mmod_Torsional_Energy-OPLS-2005>
340.594024658203

> <r_mmod_Improper_Torsional_Energy-OPLS-2005>
16.4128189086914

> <r_mmod_Van_der_Waal_Energy-OPLS-2005>
122.040428161621

> <r_mmod_Electrostatic_Energy-OPLS-2005>
-292.825622558594

> <r_mmod_Solvation_Energy-OPLS-2005>
-206.168899536133

> <b_mmod_Minimization_Converged-OPLS-2005>
0

> <r_mmod_RMS_Derivative-OPLS-2005>
2.05293893814087

$$$$
66
                    3D
 Structure written by MMmdl.
161170  0  0  1  0            999 V2000
  -30.7086  -14.6470   20.5050 C   0  0  0  0  0  0
  -30.4173  -12.3998   19.4847 C   0  0  0  0  0  0
  -29.5051  -12.5020   18.2446 C   0  0  0  0  0  0
  -28.0295  -12.3457   18.6538 C   0  0  0  0  0  0
  -27.6508  -13.2362   19.8656 C   0  0  2  0  0  0
  -28.6956  -13.1699   21.0044 C   0  0  0  0  0  0
  -25.2555  -13.8224   20.5729 C   0  0  0  0  0  0
  -24.1838  -13.0471   20.9197 C   0  0  0  0  0  0
  -24.6437  -11.6950   20.8775 C   0  0  0  0  0  0
  -23.9119  -10.4314   21.0422 C   0  0  0  0  0  0
  -24.3659   -9.4216   21.9198 C   0  0  0  0  0  0
  -23.6324   -8.2257   22.0762 C   0  0  0  0  0  0
  -22.4304   -8.0305   21.3543 C   0  0  0  0  0  0
  -21.9957   -9.0279   20.4639 C   0  0  0  0  0  0
  -22.7300  -10.2155   20.3056 C   0  0  0  0  0  0
  -21.6856   -6.0762   22.5277 C   0  0  0  0  0  0
  -21.4019   -6.5658   23.8209 C   0  0  0  0  0  0
  -21.3657   -5.6806   24.9163 C   0  0  0  0  0  0
  -21.6041   -4.3066   24.7209 C   0  0  0  0  0  0
  -21.8821   -3.8168   23.4324 C   0  0  0  0  0  0
  -21.9197   -4.6994   22.3390 C   0  0  0  0  0  0
  -22.7846  -13.5225   21.1844 C   0  0  0  0  0  0
  -22.1664   -4.2178   21.0966 F   0  0  0  0  0  0
  -21.5626   -3.4547   25.7717 F   0  0  0  0  0  0
  -30.0134  -13.4659   20.4266 N   0  0  0  0  0  0
  -26.3001  -12.9447   20.3383 N   0  0  0  0  0  0
  -25.9383  -11.6583   20.5849 N   0  0  0  0  0  0
  -22.0514  -12.8187   22.0394 N   0  0  0  0  0  0
  -25.4258  -15.1956   20.4139 N   0  0  0  0  0  0
  -31.8729  -14.7186   20.1117 O   0  0  0  0  0  0
  -21.6653   -6.8913   21.4241 O   0  0  0  0  0  0
  -22.3522  -14.5541   20.6713 O   0  0  0  0  0  0
  -24.6277  -31.8604   23.2100 C   0  0  0  0  0  0
  -25.9132  -32.4770   23.8388 C   0  0  1  0  0  0
  -27.2170  -27.3226   20.0878 C   0  0  0  0  0  0
  -25.5951  -33.8567   24.2308 N   0  0  0  0  0  0
  -23.4193  -30.4942   21.5503 C   0  0  2  0  0  0
  -24.8625  -28.9652   20.1061 C   0  0  0  0  0  0
  -22.7480  -29.4640   22.4905 C   0  0  0  0  0  0
  -18.0281  -28.1413   22.8482 C   0  0  0  0  0  0
  -24.1455  -36.7225   23.2650 C   0  0  0  0  0  0
  -25.9656  -30.7855   21.3923 C   0  0  0  0  0  0
  -26.0332  -29.4178   20.7281 C   0  0  0  0  0  0
  -27.2047  -28.6011   20.7278 C   0  0  0  0  0  0
  -26.0268  -26.9603   19.4005 C   0  0  0  0  0  0
  -24.8625  -27.7381   19.4394 C   0  0  0  0  0  0
  -23.6354  -29.8472   20.1609 C   0  0  0  0  0  0
  -25.4085  -36.3051   24.0340 C   0  0  1  0  0  0
  -20.5898  -28.3695   23.1259 C   0  0  2  0  0  0
  -20.6773  -26.9409   22.5405 C   0  0  0  0  0  0
  -19.5748  -26.6391   21.5217 C   0  0  0  0  0  0
  -18.1918  -26.7962   22.1611 C   0  0  0  0  0  0
  -19.1550  -28.8870   23.2873 C   0  0  0  0  0  0
  -18.9487  -30.1474   23.8891 C   0  0  0  0  0  0
  -17.6492  -30.6607   24.0582 C   0  0  0  0  0  0
  -25.9039  -34.9437   23.5103 C   0  0  0  0  0  0
  -16.5371  -29.9109   23.6375 C   0  0  0  0  0  0
  -16.7274  -28.6538   23.0366 C   0  0  0  0  0  0
  -26.4545  -31.6589   25.0750 C   0  0  0  0  0  0
  -25.3780  -31.3708   26.1476 C   0  0  0  0  0  0
  -27.0429  -30.3023   24.6207 C   0  0  0  0  0  0
  -27.6095  -32.4357   25.7506 C   0  0  0  0  0  0
  -27.5546  -37.1768   24.8498 C   0  0  0  0  0  0
  -21.4197  -29.3054   22.3658 N   0  0  0  0  0  0
  -26.4255  -37.3756   23.9450 N   0  0  0  0  0  0
  -24.6892  -31.0625   22.1056 N   0  0  0  0  0  0
  -23.4198  -28.8151   23.2975 O   0  0  0  0  0  0
  -28.3165  -26.4386   20.1618 O   0  0  0  0  0  0
  -26.5601  -34.8910   22.4662 O   0  0  0  0  0  0
  -23.5432  -32.1401   23.7421 O   0  0  0  0  0  0
  -28.1086  -22.8192   20.7915 C   0  0  0  0  0  0
  -30.6077  -22.0445   19.9315 C   0  0  0  0  0  0
  -28.5374  -21.4775   21.0367 C   0  0  0  0  0  0
  -28.8695  -23.7951   20.0966 C   0  0  0  0  0  0
  -30.1582  -23.3784   19.6788 C   0  0  0  0  0  0
  -29.8197  -21.0428   20.5704 C   0  0  0  0  0  0
  -26.5205  -21.1276   22.7044 C   0  0  0  0  0  0
  -27.6681  -20.3070   23.2371 C   0  0  0  0  0  0
  -27.5679  -20.5759   21.7526 C   0  0  0  0  0  0
  -31.0366  -24.3354   18.8899 C   0  0  0  0  0  0
  -28.1491  -25.0890   19.5752 C   0  0  0  0  0  0
  -30.6073  -17.1944   20.6154 C   0  0  0  0  0  0
  -29.7148  -18.4835   20.9213 C   0  0  0  0  0  0
  -30.0454  -15.8039   20.8236 N   0  0  0  0  0  0
  -30.4084  -19.7553   20.6712 O   0  0  0  0  0  0
  -31.4626  -12.4775   19.1862 H   0  0  0  0  0  0
  -30.3142  -11.4235   19.9620 H   0  0  0  0  0  0
  -29.7729  -11.7380   17.5141 H   0  0  0  0  0  0
  -29.6467  -13.4649   17.7525 H   0  0  0  0  0  0
  -27.8670  -11.2954   18.9017 H   0  0  0  0  0  0
  -27.3741  -12.5662   17.8086 H   0  0  0  0  0  0
  -27.6527  -14.2598   19.4916 H   0  0  0  0  0  0
  -28.7026  -12.1911   21.4882 H   0  0  0  0  0  0
  -28.4444  -13.8929   21.7821 H   0  0  0  0  0  0
  -25.2810   -9.5677   22.4765 H   0  0  0  0  0  0
  -24.0026   -7.4648   22.7482 H   0  0  0  0  0  0
  -21.0897   -8.8818   19.8923 H   0  0  0  0  0  0
  -22.3798  -10.9701   19.6152 H   0  0  0  0  0  0
  -21.2020   -7.6164   23.9713 H   0  0  0  0  0  0
  -21.1468   -6.0533   25.9060 H   0  0  0  0  0  0
  -22.0605   -2.7631   23.2811 H   0  0  0  0  0  0
  -22.4181  -11.9816   22.4684 H   0  0  0  0  0  0
  -21.1134  -13.1163   22.2647 H   0  0  0  0  0  0
  -24.6602  -15.8529   20.5152 H   0  0  0  0  0  0
  -26.2843  -15.6317   20.1024 H   0  0  0  0  0  0
  -26.7167  -32.5448   23.1104 H   0  0  0  0  0  0
  -25.0211  -33.9718   25.0529 H   0  0  0  0  0  0
  -22.7129  -31.3170   21.4144 H   0  0  0  0  0  0
  -23.3747  -35.9537   23.3343 H   0  0  0  0  0  0
  -24.3548  -36.8813   22.2069 H   0  0  0  0  0  0
  -23.7165  -37.6413   23.6644 H   0  0  0  0  0  0
  -26.1133  -31.5512   20.6293 H   0  0  0  0  0  0
  -26.8409  -30.8170   22.0299 H   0  0  0  0  0  0
  -28.0926  -28.9357   21.2460 H   0  0  0  0  0  0
  -25.9341  -26.0699   18.8002 H   0  0  0  0  0  0
  -23.9751  -27.3981   18.9236 H   0  0  0  0  0  0
  -23.7622  -30.6362   19.4174 H   0  0  0  0  0  0
  -22.7523  -29.2881   19.8461 H   0  0  0  0  0  0
  -25.1251  -36.1900   25.0828 H   0  0  0  0  0  0
  -21.0001  -28.3281   24.1381 H   0  0  0  0  0  0
  -20.5704  -26.2292   23.3611 H   0  0  0  0  0  0
  -21.6624  -26.7445   22.1180 H   0  0  0  0  0  0
  -19.6913  -25.6314   21.1228 H   0  0  0  0  0  0
  -19.6700  -27.3227   20.6783 H   0  0  0  0  0  0
  -17.4191  -26.6753   21.3992 H   0  0  0  0  0  0
  -18.0275  -26.0096   22.8997 H   0  0  0  0  0  0
  -19.7975  -30.7295   24.2227 H   0  0  0  0  0  0
  -17.5056  -31.6294   24.5192 H   0  0  0  0  0  0
  -15.5378  -30.3016   23.7721 H   0  0  0  0  0  0
  -15.8665  -28.0866   22.7083 H   0  0  0  0  0  0
  -24.6034  -30.6936   25.7833 H   0  0  0  0  0  0
  -24.8867  -32.2856   26.4807 H   0  0  0  0  0  0
  -25.8135  -30.9004   27.0302 H   0  0  0  0  0  0
  -26.3024  -29.6728   24.1250 H   0  0  0  0  0  0
  -27.4200  -29.7302   25.4701 H   0  0  0  0  0  0
  -27.8837  -30.4332   23.9387 H   0  0  0  0  0  0
  -27.2712  -33.3722   26.1947 H   0  0  0  0  0  0
  -28.3960  -32.6820   25.0352 H   0  0  0  0  0  0
  -28.0671  -31.8554   26.5533 H   0  0  0  0  0  0
  -28.2595  -38.0037   24.7533 H   0  0  0  0  0  0
  -28.1006  -36.2580   24.6325 H   0  0  0  0  0  0
  -27.2275  -37.1415   25.8905 H   0  0  0  0  0  0
  -20.9372  -29.8772   21.6869 H   0  0  0  0  0  0
  -26.0135  -38.2802   24.1542 H   0  0  0  0  0  0
  -27.1095  -23.1042   21.0867 H   0  0  0  0  0  0
  -31.5858  -21.7588   19.5720 H   0  0  0  0  0  0
  -26.5280  -22.1822   22.9779 H   0  0  0  0  0  0
  -25.5340  -20.6691   22.6725 H   0  0  0  0  0  0
  -27.4143  -19.3133   23.6041 H   0  0  0  0  0  0
  -28.4346  -20.8362   23.7997 H   0  0  0  0  0  0
  -27.2303  -19.7735   21.1007 H   0  0  0  0  0  0
  -32.0404  -23.9362   18.7490 H   0  0  0  0  0  0
  -31.1267  -25.2934   19.4053 H   0  0  0  0  0  0
  -30.6126  -24.5209   17.9018 H   0  0  0  0  0  0
  -27.1194  -24.7673   19.6845 H   0  0  0  0  0  0
  -28.3213  -25.1677   18.5021 H   0  0  0  0  0  0
  -31.5294  -17.2685   21.1960 H   0  0  0  0  0  0
  -30.9246  -17.2604   19.5723 H   0  0  0  0  0  0
  -29.4071  -18.4501   21.9663 H   0  0  0  0  0  0
  -28.8199  -18.4444   20.3032 H   0  0  0  0  0  0
  -29.0887  -15.7233   21.1330 H   0  0  0  0  0  0
  1 25  1  0  0  0
  1 30  2  0  0  0
  1 84  1  0  0  0
  2  3  1  0  0  0
  2 25  1  0  0  0
  2 86  1  0  0  0
  2 87  1  0  0  0
  3  4  1  0  0  0
  3 88  1  0  0  0
  3 89  1  0  0  0
  4  5  1  0  0  0
  4 90  1  0  0  0
  4 91  1  0  0  0
  5  6  1  0  0  0
  5 26  1  0  0  0
  5 92  1  0  0  0
  6 25  1  0  0  0
  6 93  1  0  0  0
  6 94  1  0  0  0
  7  8  2  0  0  0
  7 26  1  0  0  0
  7 29  1  0  0  0
  8  9  1  0  0  0
  8 22  1  0  0  0
  9 10  1  0  0  0
  9 27  2  0  0  0
 10 11  2  0  0  0
 10 15  1  0  0  0
 11 12  1  0  0  0
 11 95  1  0  0  0
 12 13  2  0  0  0
 12 96  1  0  0  0
 13 14  1  0  0  0
 13 31  1  0  0  0
 14 15  2  0  0  0
 14 97  1  0  0  0
 15 98  1  0  0  0
 16 17  2  0  0  0
 16 21  1  0  0  0
 16 31  1  0  0  0
 17 18  1  0  0  0
 17 99  1  0  0  0
 18 19  2  0  0  0
 18100  1  0  0  0
 19 20  1  0  0  0
 19 24  1  0  0  0
 20 21  2  0  0  0
 20101  1  0  0  0
 21 23  1  0  0  0
 22 28  1  0  0  0
 22 32  2  0  0  0
 26 27  1  0  0  0
 28102  1  0  0  0
 28103  1  0  0  0
 29104  1  0  0  0
 29105  1  0  0  0
 33 34  1  0  0  0
 33 66  1  0  0  0
 33 70  2  0  0  0
 34 36  1  0  0  0
 34 59  1  0  0  0
 34106  1  0  0  0
 35 44  2  0  0  0
 35 45  1  0  0  0
 35 68  1  0  0  0
 36 56  1  0  0  0
 36107  1  0  0  0
 37 39  1  0  0  0
 37 47  1  0  0  0
 37 66  1  0  0  0
 37108  1  0  0  0
 38 43  2  0  0  0
 38 46  1  0  0  0
 38 47  1  0  0  0
 39 64  1  0  0  0
 39 67  2  0  0  0
 40 52  1  0  0  0
 40 53  2  0  0  0
 40 58  1  0  0  0
 41109  1  0  0  0
 41110  1  0  0  0
 41111  1  0  0  0
 41 48  1  0  0  0
 42 43  1  0  0  0
 42 66  1  0  0  0
 42112  1  0  0  0
 42113  1  0  0  0
 43 44  1  0  0  0
 44114  1  0  0  0
 45 46  2  0  0  0
 45115  1  0  0  0
 46116  1  0  0  0
 47117  1  0  0  0
 47118  1  0  0  0
 48 56  1  0  0  0
 48 65  1  0  0  0
 48119  1  0  0  0
 49 50  1  0  0  0
 49 53  1  0  0  0
 49 64  1  0  0  0
 49120  1  0  0  0
 50 51  1  0  0  0
 50121  1  0  0  0
 50122  1  0  0  0
 51 52  1  0  0  0
 51123  1  0  0  0
 51124  1  0  0  0
 52125  1  0  0  0
 52126  1  0  0  0
 53 54  1  0  0  0
 54 55  2  0  0  0
 54127  1  0  0  0
 55 57  1  0  0  0
 55128  1  0  0  0
 56 69  2  0  0  0
 57 58  2  0  0  0
 57129  1  0  0  0
 58130  1  0  0  0
 59 60  1  0  0  0
 59 61  1  0  0  0
 59 62  1  0  0  0
 60131  1  0  0  0
 60132  1  0  0  0
 60133  1  0  0  0
 61134  1  0  0  0
 61135  1  0  0  0
 61136  1  0  0  0
 62137  1  0  0  0
 62138  1  0  0  0
 62139  1  0  0  0
 63 65  1  0  0  0
 63140  1  0  0  0
 63141  1  0  0  0
 63142  1  0  0  0
 64143  1  0  0  0
 65144  1  0  0  0
 68 81  1  0  0  0
 71 73  2  0  0  0
 71 74  1  0  0  0
 71145  1  0  0  0
 72 75  1  0  0  0
 72 76  2  0  0  0
 72146  1  0  0  0
 73 76  1  0  0  0
 73 79  1  0  0  0
 74 75  2  0  0  0
 74 81  1  0  0  0
 75 80  1  0  0  0
 76 85  1  0  0  0
 77 78  1  0  0  0
 77 79  1  0  0  0
 77147  1  0  0  0
 77148  1  0  0  0
 78 79  1  0  0  0
 78149  1  0  0  0
 78150  1  0  0  0
 79151  1  0  0  0
 80152  1  0  0  0
 80153  1  0  0  0
 80154  1  0  0  0
 81155  1  0  0  0
 81156  1  0  0  0
 82 83  1  0  0  0
 82 84  1  0  0  0
 82157  1  0  0  0
 82158  1  0  0  0
 83 85  1  0  0  0
 83159  1  0  0  0
 83160  1  0  0  0
 84161  1  0  0  0
M  ISO  4   1 100  68 101  81 101  84 100
M  END
> <chiral flag>
0

> <version>
0

> <s_m_source_file>
/data/baiqing/PycharmProjects/Reinvent-master-3.2/result/LINK_invent/BTK/process_docking_weight1_custom_sum_contain_oxygen_bond_distance_aromatic_linkinvent_7_9_3/rearranged_h_0151.sdf

> <i_m_source_file_index>
67

> <r_mmod_Potential_Energy-OPLS-2005>
115.189682006836

> <r_mmod_Stretch_Energy-OPLS-2005>
83.7452850341797

> <r_mmod_Bend_Energy-OPLS-2005>
174.508728027344

> <r_mmod_Torsional_Energy-OPLS-2005>
246.025436401367

> <r_mmod_Improper_Torsional_Energy-OPLS-2005>
6.80399084091187

> <r_mmod_Van_der_Waal_Energy-OPLS-2005>
160.49169921875

> <r_mmod_Electrostatic_Energy-OPLS-2005>
-399.733032226562

> <r_mmod_Solvation_Energy-OPLS-2005>
-214.283355712891

> <b_mmod_Minimization_Converged-OPLS-2005>
0

> <r_mmod_RMS_Derivative-OPLS-2005>
3.59205150604248

$$$$
67
                    3D
 Structure written by MMmdl.
164173  0  0  1  0            999 V2000
  -30.6571  -14.6779   20.4772 C   0  0  0  0  0  0
  -30.4254  -12.4199   19.4518 C   0  0  0  0  0  0
  -29.4978  -12.4968   18.2216 C   0  0  0  0  0  0
  -28.0256  -12.3227   18.6428 C   0  0  0  0  0  0
  -27.6388  -13.2155   19.8513 C   0  0  2  0  0  0
  -28.6906  -13.1477   20.9797 C   0  0  0  0  0  0
  -25.2516  -13.8150   20.5719 C   0  0  0  0  0  0
  -24.1790  -13.0418   20.9215 C   0  0  0  0  0  0
  -24.6367  -11.6891   20.8766 C   0  0  0  0  0  0
  -23.9046  -10.4280   21.0421 C   0  0  0  0  0  0
  -24.3606   -9.4196   21.9193 C   0  0  0  0  0  0
  -23.6286   -8.2229   22.0755 C   0  0  0  0  0  0
  -22.4269   -8.0269   21.3543 C   0  0  0  0  0  0
  -21.9902   -9.0243   20.4647 C   0  0  0  0  0  0
  -22.7224  -10.2124   20.3063 C   0  0  0  0  0  0
  -21.6849   -6.0730   22.5281 C   0  0  0  0  0  0
  -21.4010   -6.5635   23.8213 C   0  0  0  0  0  0
  -21.3658   -5.6790   24.9178 C   0  0  0  0  0  0
  -21.6045   -4.3054   24.7230 C   0  0  0  0  0  0
  -21.8819   -3.8144   23.4353 C   0  0  0  0  0  0
  -21.9192   -4.6959   22.3407 C   0  0  0  0  0  0
  -22.7817  -13.5219   21.1872 C   0  0  0  0  0  0
  -22.1662   -4.2145   21.0984 F   0  0  0  0  0  0
  -21.5631   -3.4539   25.7743 F   0  0  0  0  0  0
  -29.9949  -13.4772   20.3897 N   0  0  0  0  0  0
  -26.2926  -12.9320   20.3327 N   0  0  0  0  0  0
  -25.9294  -11.6481   20.5789 N   0  0  0  0  0  0
  -22.0457  -12.8214   22.0428 N   0  0  0  0  0  0
  -25.4231  -15.1870   20.4142 N   0  0  0  0  0  0
  -31.8515  -14.7569   20.1766 O   0  0  0  0  0  0
  -21.6634   -6.8866   21.4239 O   0  0  0  0  0  0
  -22.3510  -14.5531   20.6721 O   0  0  0  0  0  0
  -24.6267  -31.8589   23.2012 C   0  0  0  0  0  0
  -25.9110  -32.4774   23.8347 C   0  0  1  0  0  0
  -27.2218  -27.3125   20.1291 C   0  0  0  0  0  0
  -25.5923  -33.8576   24.2273 N   0  0  0  0  0  0
  -23.4208  -30.4813   21.5435 C   0  0  2  0  0  0
  -24.8686  -28.9327   20.1123 C   0  0  0  0  0  0
  -22.7469  -29.4625   22.4935 C   0  0  0  0  0  0
  -18.0284  -28.1386   22.8487 C   0  0  0  0  0  0
  -24.1489  -36.7295   23.2638 C   0  0  0  0  0  0
  -25.9614  -30.7887   21.3722 C   0  0  0  0  0  0
  -26.0374  -29.4143   20.7171 C   0  0  0  0  0  0
  -27.2207  -28.6168   20.7129 C   0  0  0  0  0  0
  -26.0365  -26.8858   19.4940 C   0  0  0  0  0  0
  -24.8702  -27.6740   19.4904 C   0  0  0  0  0  0
  -23.6358  -29.8124   20.1601 C   0  0  0  0  0  0
  -25.4113  -36.3083   24.0327 C   0  0  1  0  0  0
  -20.5882  -28.3695   23.1279 C   0  0  2  0  0  0
  -20.6773  -26.9417   22.5410 C   0  0  0  0  0  0
  -19.5750  -26.6386   21.5212 C   0  0  0  0  0  0
  -18.1929  -26.7930   22.1622 C   0  0  0  0  0  0
  -19.1535  -28.8857   23.2879 C   0  0  0  0  0  0
  -18.9459  -30.1459   23.8897 C   0  0  0  0  0  0
  -17.6460  -30.6590   24.0564 C   0  0  0  0  0  0
  -25.9049  -34.9451   23.5100 C   0  0  0  0  0  0
  -16.5352  -29.9087   23.6332 C   0  0  0  0  0  0
  -16.7271  -28.6502   23.0357 C   0  0  0  0  0  0
  -26.4492  -31.6591   25.0723 C   0  0  0  0  0  0
  -25.3728  -31.3730   26.1453 C   0  0  0  0  0  0
  -27.0335  -30.3014   24.6183 C   0  0  0  0  0  0
  -27.6051  -32.4328   25.7493 C   0  0  0  0  0  0
  -27.5581  -37.1798   24.8458 C   0  0  0  0  0  0
  -21.4183  -29.3050   22.3675 N   0  0  0  0  0  0
  -26.4289  -37.3780   23.9411 N   0  0  0  0  0  0
  -24.6885  -31.0596   22.0962 N   0  0  0  0  0  0
  -23.4188  -28.8166   23.3020 O   0  0  0  0  0  0
  -28.3236  -26.4463   20.1492 O   0  0  0  0  0  0
  -26.5619  -34.8917   22.4669 O   0  0  0  0  0  0
  -23.5428  -32.1387   23.7338 O   0  0  0  0  0  0
  -28.7593  -22.5266   20.7251 C   0  0  0  0  0  0
  -28.7441  -23.7918   20.0349 C   0  0  0  0  0  0
  -29.2796  -23.7685   18.7209 C   0  0  0  0  0  0
  -29.3020  -21.3369   20.1369 C   0  0  0  0  0  0
  -29.8037  -22.5569   18.2078 C   0  0  0  0  0  0
  -30.8737  -18.1323   21.4556 C   0  0  0  0  0  0
  -29.5737  -17.9384   19.2984 C   0  0  0  0  0  0
  -30.2599  -16.7529   21.8787 C   0  0  0  0  0  0
  -29.0587  -16.5432   19.8127 C   0  0  0  0  0  0
  -30.1678  -18.9500   20.3281 C   0  0  0  0  0  0
  -29.2814  -25.0192   17.8502 C   0  0  0  0  0  0
  -30.8597  -21.3222   16.4220 C   0  0  0  0  0  0
  -28.0954  -25.0784   20.6892 C   0  0  0  0  0  0
  -29.8140  -21.3896   18.8932 N   0  0  0  0  0  0
  -29.9391  -15.8265   20.7697 N   0  0  0  0  0  0
  -29.3180  -20.0750   20.7877 O   0  0  0  0  0  0
  -30.3307  -22.5438   16.9322 O   0  0  0  0  0  0
  -31.4660  -12.5344   19.1434 H   0  0  0  0  0  0
  -30.3596  -11.4401   19.9269 H   0  0  0  0  0  0
  -29.7709  -11.7313   17.4941 H   0  0  0  0  0  0
  -29.6268  -13.4567   17.7191 H   0  0  0  0  0  0
  -27.8796  -11.2728   18.8989 H   0  0  0  0  0  0
  -27.3644  -12.5228   17.7987 H   0  0  0  0  0  0
  -27.6205  -14.2318   19.4711 H   0  0  0  0  0  0
  -28.7166  -12.1543   21.4292 H   0  0  0  0  0  0
  -28.4358  -13.8422   21.7823 H   0  0  0  0  0  0
  -25.2749   -9.5677   22.4772 H   0  0  0  0  0  0
  -23.9997   -7.4619   22.7473 H   0  0  0  0  0  0
  -21.0834   -8.8758   19.8953 H   0  0  0  0  0  0
  -22.3680  -10.9666   19.6177 H   0  0  0  0  0  0
  -21.1998   -7.6143   23.9715 H   0  0  0  0  0  0
  -21.1481   -6.0523   25.9079 H   0  0  0  0  0  0
  -22.0601   -2.7606   23.2857 H   0  0  0  0  0  0
  -22.4066  -11.9872   22.4815 H   0  0  0  0  0  0
  -21.1077  -13.1241   22.2637 H   0  0  0  0  0  0
  -24.6610  -15.8455   20.5330 H   0  0  0  0  0  0
  -26.2827  -15.6255   20.1117 H   0  0  0  0  0  0
  -26.7179  -32.5439   23.1097 H   0  0  0  0  0  0
  -25.0071  -33.9722   25.0418 H   0  0  0  0  0  0
  -22.7157  -31.3023   21.3979 H   0  0  0  0  0  0
  -23.3753  -35.9623   23.3288 H   0  0  0  0  0  0
  -24.3583  -36.8932   22.2055 H   0  0  0  0  0  0
  -23.7235  -37.6489   23.6671 H   0  0  0  0  0  0
  -26.0911  -31.5499   20.6017 H   0  0  0  0  0  0
  -26.8423  -30.8401   22.0006 H   0  0  0  0  0  0
  -28.1189  -28.9810   21.1919 H   0  0  0  0  0  0
  -26.0035  -25.9214   19.0067 H   0  0  0  0  0  0
  -23.9759  -27.3004   19.0106 H   0  0  0  0  0  0
  -23.7521  -30.5861   19.4003 H   0  0  0  0  0  0
  -22.7567  -29.2389   19.8609 H   0  0  0  0  0  0
  -25.1295  -36.1933   25.0818 H   0  0  0  0  0  0
  -20.9977  -28.3272   24.1400 H   0  0  0  0  0  0
  -20.5674  -26.2307   23.3613 H   0  0  0  0  0  0
  -21.6643  -26.7448   22.1205 H   0  0  0  0  0  0
  -19.6913  -25.6294   21.1249 H   0  0  0  0  0  0
  -19.6690  -27.3191   20.6736 H   0  0  0  0  0  0
  -17.4202  -26.6681   21.4022 H   0  0  0  0  0  0
  -18.0330  -26.0071   22.9014 H   0  0  0  0  0  0
  -19.7935  -30.7274   24.2269 H   0  0  0  0  0  0
  -17.5015  -31.6271   24.5163 H   0  0  0  0  0  0
  -15.5355  -30.2991   23.7655 H   0  0  0  0  0  0
  -15.8669  -28.0820   22.7082 H   0  0  0  0  0  0
  -24.5900  -30.7082   25.7783 H   0  0  0  0  0  0
  -24.8925  -32.2897   26.4886 H   0  0  0  0  0  0
  -25.8056  -30.8903   27.0225 H   0  0  0  0  0  0
  -26.2908  -29.6766   24.1208 H   0  0  0  0  0  0
  -27.4026  -29.7273   25.4692 H   0  0  0  0  0  0
  -27.8780  -30.4298   23.9408 H   0  0  0  0  0  0
  -27.2662  -33.3628   26.2068 H   0  0  0  0  0  0
  -28.3861  -32.6890   25.0322 H   0  0  0  0  0  0
  -28.0719  -31.8457   26.5412 H   0  0  0  0  0  0
  -28.2586  -38.0109   24.7530 H   0  0  0  0  0  0
  -28.1093  -36.2643   24.6254 H   0  0  0  0  0  0
  -27.2305  -37.1408   25.8861 H   0  0  0  0  0  0
  -20.9363  -29.8772   21.6883 H   0  0  0  0  0  0
  -26.0170  -38.2850   24.1427 H   0  0  0  0  0  0
  -28.3433  -22.4663   21.7217 H   0  0  0  0  0  0
  -31.8886  -17.9224   21.1136 H   0  0  0  0  0  0
  -31.0012  -18.7648   22.3348 H   0  0  0  0  0  0
  -28.7962  -18.4304   18.7131 H   0  0  0  0  0  0
  -30.3661  -17.7239   18.5794 H   0  0  0  0  0  0
  -29.3411  -16.9316   22.4388 H   0  0  0  0  0  0
  -30.9364  -16.2601   22.5796 H   0  0  0  0  0  0
  -28.8832  -15.9179   18.9373 H   0  0  0  0  0  0
  -28.0887  -16.6777   20.2916 H   0  0  0  0  0  0
  -31.0044  -19.4311   19.8201 H   0  0  0  0  0  0
  -29.9395  -25.7779   18.2737 H   0  0  0  0  0  0
  -28.2759  -25.4328   17.7719 H   0  0  0  0  0  0
  -29.6213  -24.8295   16.8324 H   0  0  0  0  0  0
  -31.2216  -21.4815   15.4067 H   0  0  0  0  0  0
  -30.0996  -20.5405   16.3818 H   0  0  0  0  0  0
  -31.7012  -20.9717   17.0214 H   0  0  0  0  0  0
  -28.4606  -25.1107   21.7159 H   0  0  0  0  0  0
  -27.0312  -24.8660   20.7902 H   0  0  0  0  0  0
  1 25  1  0  0  0
  1 30  2  0  0  0
  1 85  1  0  0  0
  2  3  1  0  0  0
  2 25  1  0  0  0
  2 88  1  0  0  0
  2 89  1  0  0  0
  3  4  1  0  0  0
  3 90  1  0  0  0
  3 91  1  0  0  0
  4  5  1  0  0  0
  4 92  1  0  0  0
  4 93  1  0  0  0
  5  6  1  0  0  0
  5 26  1  0  0  0
  5 94  1  0  0  0
  6 25  1  0  0  0
  6 95  1  0  0  0
  6 96  1  0  0  0
  7  8  2  0  0  0
  7 26  1  0  0  0
  7 29  1  0  0  0
  8  9  1  0  0  0
  8 22  1  0  0  0
  9 10  1  0  0  0
  9 27  2  0  0  0
 10 11  2  0  0  0
 10 15  1  0  0  0
 11 12  1  0  0  0
 11 97  1  0  0  0
 12 13  2  0  0  0
 12 98  1  0  0  0
 13 14  1  0  0  0
 13 31  1  0  0  0
 14 15  2  0  0  0
 14 99  1  0  0  0
 15100  1  0  0  0
 16 17  2  0  0  0
 16 21  1  0  0  0
 16 31  1  0  0  0
 17 18  1  0  0  0
 17101  1  0  0  0
 18 19  2  0  0  0
 18102  1  0  0  0
 19 20  1  0  0  0
 19 24  1  0  0  0
 20 21  2  0  0  0
 20103  1  0  0  0
 21 23  1  0  0  0
 22 28  1  0  0  0
 22 32  2  0  0  0
 26 27  1  0  0  0
 28104  1  0  0  0
 28105  1  0  0  0
 29106  1  0  0  0
 29107  1  0  0  0
 33 34  1  0  0  0
 33 66  1  0  0  0
 33 70  2  0  0  0
 34 36  1  0  0  0
 34 59  1  0  0  0
 34108  1  0  0  0
 35 44  2  0  0  0
 35 45  1  0  0  0
 35 68  1  0  0  0
 36 56  1  0  0  0
 36109  1  0  0  0
 37 39  1  0  0  0
 37 47  1  0  0  0
 37 66  1  0  0  0
 37110  1  0  0  0
 38 43  2  0  0  0
 38 46  1  0  0  0
 38 47  1  0  0  0
 39 64  1  0  0  0
 39 67  2  0  0  0
 40 52  1  0  0  0
 40 53  2  0  0  0
 40 58  1  0  0  0
 41111  1  0  0  0
 41112  1  0  0  0
 41113  1  0  0  0
 41 48  1  0  0  0
 42 43  1  0  0  0
 42 66  1  0  0  0
 42114  1  0  0  0
 42115  1  0  0  0
 43 44  1  0  0  0
 44116  1  0  0  0
 45 46  2  0  0  0
 45117  1  0  0  0
 46118  1  0  0  0
 47119  1  0  0  0
 47120  1  0  0  0
 48 56  1  0  0  0
 48 65  1  0  0  0
 48121  1  0  0  0
 49 50  1  0  0  0
 49 53  1  0  0  0
 49 64  1  0  0  0
 49122  1  0  0  0
 50 51  1  0  0  0
 50123  1  0  0  0
 50124  1  0  0  0
 51 52  1  0  0  0
 51125  1  0  0  0
 51126  1  0  0  0
 52127  1  0  0  0
 52128  1  0  0  0
 53 54  1  0  0  0
 54 55  2  0  0  0
 54129  1  0  0  0
 55 57  1  0  0  0
 55130  1  0  0  0
 56 69  2  0  0  0
 57 58  2  0  0  0
 57131  1  0  0  0
 58132  1  0  0  0
 59 60  1  0  0  0
 59 61  1  0  0  0
 59 62  1  0  0  0
 60133  1  0  0  0
 60134  1  0  0  0
 60135  1  0  0  0
 61136  1  0  0  0
 61137  1  0  0  0
 61138  1  0  0  0
 62139  1  0  0  0
 62140  1  0  0  0
 62141  1  0  0  0
 63 65  1  0  0  0
 63142  1  0  0  0
 63143  1  0  0  0
 63144  1  0  0  0
 64145  1  0  0  0
 65146  1  0  0  0
 68 83  1  0  0  0
 71 72  2  0  0  0
 71 74  1  0  0  0
 71147  1  0  0  0
 72 73  1  0  0  0
 72 83  1  0  0  0
 73 75  2  0  0  0
 73 81  1  0  0  0
 74 84  2  0  0  0
 74 86  1  0  0  0
 75 84  1  0  0  0
 75 87  1  0  0  0
 76 78  1  0  0  0
 76 80  1  0  0  0
 76148  1  0  0  0
 76149  1  0  0  0
 77 79  1  0  0  0
 77 80  1  0  0  0
 77150  1  0  0  0
 77151  1  0  0  0
 78 85  1  0  0  0
 78152  1  0  0  0
 78153  1  0  0  0
 79 85  1  0  0  0
 79154  1  0  0  0
 79155  1  0  0  0
 80 86  1  0  0  0
 80156  1  0  0  0
 81157  1  0  0  0
 81158  1  0  0  0
 81159  1  0  0  0
 82 87  1  0  0  0
 82160  1  0  0  0
 82161  1  0  0  0
 82162  1  0  0  0
 83163  1  0  0  0
 83164  1  0  0  0
M  ISO  4   1 100  68 101  83 101  85 100
M  END
> <chiral flag>
0

> <version>
0

> <s_m_source_file>
/data/baiqing/PycharmProjects/Reinvent-master-3.2/result/LINK_invent/BTK/process_docking_weight1_custom_sum_contain_oxygen_bond_distance_aromatic_linkinvent_7_9_3/rearranged_h_0151.sdf

> <i_m_source_file_index>
68

> <r_mmod_Potential_Energy-OPLS-2005>
140.559295654297

> <r_mmod_Stretch_Energy-OPLS-2005>
88.3653106689453

> <r_mmod_Bend_Energy-OPLS-2005>
170.384902954102

> <r_mmod_Torsional_Energy-OPLS-2005>
347.847045898438

> <r_mmod_Improper_Torsional_Energy-OPLS-2005>
3.9427056312561

> <r_mmod_Van_der_Waal_Energy-OPLS-2005>
158.233032226562

> <r_mmod_Electrostatic_Energy-OPLS-2005>
-491.427612304688

> <r_mmod_Solvation_Energy-OPLS-2005>
-197.165557861328

> <b_mmod_Minimization_Converged-OPLS-2005>
0

> <r_mmod_RMS_Derivative-OPLS-2005>
0.51652467250824

$$$$
68
                    3D
 Structure written by MMmdl.
169178  0  0  1  0            999 V2000
  -30.6681  -14.5420   20.5168 C   0  0  0  0  0  0
  -30.4233  -12.3347   19.4390 C   0  0  0  0  0  0
  -29.4987  -12.4978   18.2142 C   0  0  0  0  0  0
  -28.0203  -12.3518   18.6261 C   0  0  0  0  0  0
  -27.6540  -13.2122   19.8652 C   0  0  2  0  0  0
  -28.6967  -13.0410   20.9928 C   0  0  0  0  0  0
  -25.2563  -13.8172   20.5683 C   0  0  0  0  0  0
  -24.1821  -13.0448   20.9187 C   0  0  0  0  0  0
  -24.6377  -11.6912   20.8733 C   0  0  0  0  0  0
  -23.9050  -10.4298   21.0404 C   0  0  0  0  0  0
  -24.3602   -9.4215   21.9183 C   0  0  0  0  0  0
  -23.6279   -8.2248   22.0754 C   0  0  0  0  0  0
  -22.4263   -8.0281   21.3544 C   0  0  0  0  0  0
  -21.9895   -9.0257   20.4651 C   0  0  0  0  0  0
  -22.7222  -10.2136   20.3057 C   0  0  0  0  0  0
  -21.6854   -6.0728   22.5274 C   0  0  0  0  0  0
  -21.4018   -6.5632   23.8207 C   0  0  0  0  0  0
  -21.3662   -5.6786   24.9170 C   0  0  0  0  0  0
  -21.6043   -4.3050   24.7221 C   0  0  0  0  0  0
  -21.8820   -3.8139   23.4345 C   0  0  0  0  0  0
  -21.9195   -4.6957   22.3401 C   0  0  0  0  0  0
  -22.7845  -13.5250   21.1846 C   0  0  0  0  0  0
  -22.1661   -4.2144   21.0978 F   0  0  0  0  0  0
  -21.5633   -3.4533   25.7736 F   0  0  0  0  0  0
  -30.0192  -13.3470   20.4290 N   0  0  0  0  0  0
  -26.2984  -12.9344   20.3320 N   0  0  0  0  0  0
  -25.9303  -11.6504   20.5748 N   0  0  0  0  0  0
  -22.0473  -12.8252   22.0402 N   0  0  0  0  0  0
  -25.4293  -15.1886   20.4098 N   0  0  0  0  0  0
  -31.8400  -14.6792   20.1574 O   0  0  0  0  0  0
  -21.6636   -6.8870   21.4235 O   0  0  0  0  0  0
  -22.3539  -14.5559   20.6695 O   0  0  0  0  0  0
  -24.6181  -31.8647   23.2065 C   0  0  0  0  0  0
  -25.9065  -32.4800   23.8371 C   0  0  1  0  0  0
  -27.2349  -27.3913   20.1058 C   0  0  0  0  0  0
  -25.5911  -33.8598   24.2305 N   0  0  0  0  0  0
  -23.4069  -30.4869   21.5477 C   0  0  2  0  0  0
  -24.8519  -28.9418   20.1173 C   0  0  0  0  0  0
  -22.7425  -29.4644   22.4978 C   0  0  0  0  0  0
  -18.0274  -28.1378   22.8489 C   0  0  0  0  0  0
  -24.1487  -36.7305   23.2638 C   0  0  0  0  0  0
  -25.9387  -30.8163   21.3652 C   0  0  0  0  0  0
  -26.0128  -29.4460   20.7150 C   0  0  0  0  0  0
  -27.2033  -28.6782   20.7038 C   0  0  0  0  0  0
  -26.0489  -26.9050   19.5115 C   0  0  0  0  0  0
  -24.8666  -27.6719   19.5134 C   0  0  0  0  0  0
  -23.6171  -29.8156   20.1636 C   0  0  0  0  0  0
  -25.4108  -36.3095   24.0333 C   0  0  1  0  0  0
  -20.5866  -28.3670   23.1310 C   0  0  2  0  0  0
  -20.6766  -26.9404   22.5414 C   0  0  0  0  0  0
  -19.5744  -26.6386   21.5210 C   0  0  0  0  0  0
  -18.1923  -26.7924   22.1622 C   0  0  0  0  0  0
  -19.1524  -28.8841   23.2896 C   0  0  0  0  0  0
  -18.9453  -30.1448   23.8907 C   0  0  0  0  0  0
  -17.6454  -30.6584   24.0566 C   0  0  0  0  0  0
  -25.9040  -34.9463   23.5117 C   0  0  0  0  0  0
  -16.5345  -29.9085   23.6327 C   0  0  0  0  0  0
  -16.7264  -28.6502   23.0348 C   0  0  0  0  0  0
  -26.4485  -31.6592   25.0715 C   0  0  0  0  0  0
  -25.3751  -31.3711   26.1468 C   0  0  0  0  0  0
  -27.0322  -30.3029   24.6117 C   0  0  0  0  0  0
  -27.6059  -32.4318   25.7475 C   0  0  0  0  0  0
  -27.5579  -37.1805   24.8463 C   0  0  0  0  0  0
  -21.4148  -29.3034   22.3718 N   0  0  0  0  0  0
  -26.4291  -37.3784   23.9408 N   0  0  0  0  0  0
  -24.6728  -31.0720   22.0977 N   0  0  0  0  0  0
  -23.4181  -28.8194   23.3040 O   0  0  0  0  0  0
  -28.4271  -26.6808   20.0994 O   0  0  0  0  0  0
  -26.5602  -34.8921   22.4678 O   0  0  0  0  0  0
  -23.5367  -32.1418   23.7444 O   0  0  0  0  0  0
  -29.4581  -23.1323   20.6661 C   0  0  0  0  0  0
  -28.3170  -24.7145   18.6522 C   0  0  0  0  0  0
  -29.3202  -22.5703   19.3733 C   0  0  0  0  0  0
  -29.0735  -24.4766   20.9351 C   0  0  0  0  0  0
  -28.6800  -23.3716   18.3801 C   0  0  0  0  0  0
  -28.5359  -25.3029   19.9149 C   0  0  0  0  0  0
  -31.0841  -18.9211   19.1414 C   0  0  0  0  0  0
  -28.9211  -19.3473   20.3720 C   0  0  0  0  0  0
  -30.5932  -17.4605   19.2395 C   0  0  0  0  0  0
  -29.1519  -18.0383   21.2133 C   0  0  0  0  0  0
  -30.2309  -20.0121   19.8738 C   0  0  2  0  0  0
  -30.2534  -17.0596   20.6843 C   0  0  1  0  0  0
  -29.3311  -25.0663   22.3084 C   0  0  0  0  0  0
  -28.4570  -22.8609   16.9644 C   0  0  0  0  0  0
  -31.5185  -21.8089   18.5648 C   0  0  0  0  0  0
  -30.1094  -21.2952   18.9502 C   0  0  2  0  0  0
  -29.8914  -15.6193   20.8028 N   0  0  0  0  0  0
  -31.4686  -12.4356   19.1411 H   0  0  0  0  0  0
  -30.3276  -11.3343   19.8640 H   0  0  0  0  0  0
  -29.7476  -11.7590   17.4515 H   0  0  0  0  0  0
  -29.6594  -13.4758   17.7568 H   0  0  0  0  0  0
  -27.8413  -11.2982   18.8435 H   0  0  0  0  0  0
  -27.3698  -12.6030   17.7880 H   0  0  0  0  0  0
  -27.6827  -14.2512   19.5370 H   0  0  0  0  0  0
  -28.6849  -12.0194   21.3751 H   0  0  0  0  0  0
  -28.4609  -13.6814   21.8449 H   0  0  0  0  0  0
  -25.2743   -9.5695   22.4763 H   0  0  0  0  0  0
  -23.9992   -7.4641   22.7473 H   0  0  0  0  0  0
  -21.0824   -8.8773   19.8958 H   0  0  0  0  0  0
  -22.3673  -10.9674   19.6171 H   0  0  0  0  0  0
  -21.2005   -7.6140   23.9710 H   0  0  0  0  0  0
  -21.1485   -6.0515   25.9074 H   0  0  0  0  0  0
  -22.0594   -2.7602   23.2845 H   0  0  0  0  0  0
  -22.4072  -11.9914   22.4807 H   0  0  0  0  0  0
  -21.1099  -13.1302   22.2603 H   0  0  0  0  0  0
  -24.6648  -15.8452   20.5240 H   0  0  0  0  0  0
  -26.2774  -15.6260   20.0730 H   0  0  0  0  0  0
  -26.7133  -32.5494   23.1127 H   0  0  0  0  0  0
  -25.0079  -33.9756   25.0463 H   0  0  0  0  0  0
  -22.6970  -31.3042   21.4057 H   0  0  0  0  0  0
  -23.3744  -35.9643   23.3308 H   0  0  0  0  0  0
  -24.3582  -36.8915   22.2051 H   0  0  0  0  0  0
  -23.7247  -37.6513   23.6652 H   0  0  0  0  0  0
  -26.0579  -31.5795   20.5948 H   0  0  0  0  0  0
  -26.8243  -30.8694   21.9870 H   0  0  0  0  0  0
  -28.1025  -29.0679   21.1601 H   0  0  0  0  0  0
  -26.0202  -25.9316   19.0464 H   0  0  0  0  0  0
  -23.9724  -27.2751   19.0529 H   0  0  0  0  0  0
  -23.7309  -30.5886   19.4027 H   0  0  0  0  0  0
  -22.7392  -29.2391   19.8663 H   0  0  0  0  0  0
  -25.1286  -36.1954   25.0827 H   0  0  0  0  0  0
  -20.9954  -28.3237   24.1431 H   0  0  0  0  0  0
  -20.5670  -26.2277   23.3602 H   0  0  0  0  0  0
  -21.6638  -26.7449   22.1206 H   0  0  0  0  0  0
  -19.6908  -25.6300   21.1231 H   0  0  0  0  0  0
  -19.6680  -27.3203   20.6745 H   0  0  0  0  0  0
  -17.4192  -26.6673   21.4024 H   0  0  0  0  0  0
  -18.0323  -26.0063   22.9014 H   0  0  0  0  0  0
  -19.7930  -30.7260   24.2278 H   0  0  0  0  0  0
  -17.5012  -31.6265   24.5167 H   0  0  0  0  0  0
  -15.5347  -30.2992   23.7647 H   0  0  0  0  0  0
  -15.8663  -28.0826   22.7059 H   0  0  0  0  0  0
  -24.5903  -30.7083   25.7807 H   0  0  0  0  0  0
  -24.8972  -32.2874   26.4942 H   0  0  0  0  0  0
  -25.8103  -30.8854   27.0211 H   0  0  0  0  0  0
  -26.2870  -29.6777   24.1184 H   0  0  0  0  0  0
  -27.4097  -29.7281   25.4585 H   0  0  0  0  0  0
  -27.8703  -30.4339   23.9268 H   0  0  0  0  0  0
  -27.2683  -33.3619   26.2060 H   0  0  0  0  0  0
  -28.3862  -32.6878   25.0295 H   0  0  0  0  0  0
  -28.0736  -31.8440   26.5384 H   0  0  0  0  0  0
  -28.2598  -38.0100   24.7510 H   0  0  0  0  0  0
  -28.1072  -36.2632   24.6286 H   0  0  0  0  0  0
  -27.2300  -37.1453   25.8868 H   0  0  0  0  0  0
  -20.9316  -29.8755   21.6935 H   0  0  0  0  0  0
  -26.0176  -38.2861   24.1408 H   0  0  0  0  0  0
  -29.9582  -22.5609   21.4354 H   0  0  0  0  0  0
  -27.9294  -25.3312   17.8534 H   0  0  0  0  0  0
  -31.1381  -19.1303   18.0728 H   0  0  0  0  0  0
  -32.1118  -18.9790   19.5028 H   0  0  0  0  0  0
  -28.3446  -20.0610   20.9618 H   0  0  0  0  0  0
  -28.2987  -19.1112   19.5078 H   0  0  0  0  0  0
  -31.3648  -16.8159   18.8190 H   0  0  0  0  0  0
  -29.7166  -17.3232   18.6043 H   0  0  0  0  0  0
  -28.1962  -17.5182   21.2863 H   0  0  0  0  0  0
  -29.4048  -18.3165   22.2377 H   0  0  0  0  0  0
  -30.7783  -20.3091   20.7702 H   0  0  0  0  0  0
  -31.1528  -17.2103   21.2850 H   0  0  0  0  0  0
  -29.5851  -24.2942   23.0350 H   0  0  0  0  0  0
  -28.4462  -25.5913   22.6700 H   0  0  0  0  0  0
  -30.1552  -25.7787   22.2642 H   0  0  0  0  0  0
  -27.9014  -23.5793   16.3610 H   0  0  0  0  0  0
  -27.8801  -21.9360   16.9764 H   0  0  0  0  0  0
  -29.4060  -22.6753   16.4612 H   0  0  0  0  0  0
  -31.4564  -22.6493   17.8727 H   0  0  0  0  0  0
  -32.1439  -21.0645   18.0758 H   0  0  0  0  0  0
  -32.0590  -22.1579   19.4453 H   0  0  0  0  0  0
  -29.6432  -20.9170   18.0426 H   0  0  0  0  0  0
  -28.9396  -15.4111   21.0643 H   0  0  0  0  0  0
  1 25  1  0  0  0
  1 30  2  0  0  0
  1 87  1  0  0  0
  2  3  1  0  0  0
  2 25  1  0  0  0
  2 88  1  0  0  0
  2 89  1  0  0  0
  3  4  1  0  0  0
  3 90  1  0  0  0
  3 91  1  0  0  0
  4  5  1  0  0  0
  4 92  1  0  0  0
  4 93  1  0  0  0
  5  6  1  0  0  0
  5 26  1  0  0  0
  5 94  1  0  0  0
  6 25  1  0  0  0
  6 95  1  0  0  0
  6 96  1  0  0  0
  7  8  2  0  0  0
  7 26  1  0  0  0
  7 29  1  0  0  0
  8  9  1  0  0  0
  8 22  1  0  0  0
  9 10  1  0  0  0
  9 27  2  0  0  0
 10 11  2  0  0  0
 10 15  1  0  0  0
 11 12  1  0  0  0
 11 97  1  0  0  0
 12 13  2  0  0  0
 12 98  1  0  0  0
 13 14  1  0  0  0
 13 31  1  0  0  0
 14 15  2  0  0  0
 14 99  1  0  0  0
 15100  1  0  0  0
 16 17  2  0  0  0
 16 21  1  0  0  0
 16 31  1  0  0  0
 17 18  1  0  0  0
 17101  1  0  0  0
 18 19  2  0  0  0
 18102  1  0  0  0
 19 20  1  0  0  0
 19 24  1  0  0  0
 20 21  2  0  0  0
 20103  1  0  0  0
 21 23  1  0  0  0
 22 28  1  0  0  0
 22 32  2  0  0  0
 26 27  1  0  0  0
 28104  1  0  0  0
 28105  1  0  0  0
 29106  1  0  0  0
 29107  1  0  0  0
 33 34  1  0  0  0
 33 66  1  0  0  0
 33 70  2  0  0  0
 34 36  1  0  0  0
 34 59  1  0  0  0
 34108  1  0  0  0
 35 44  2  0  0  0
 35 45  1  0  0  0
 35 68  1  0  0  0
 36 56  1  0  0  0
 36109  1  0  0  0
 37 39  1  0  0  0
 37 47  1  0  0  0
 37 66  1  0  0  0
 37110  1  0  0  0
 38 43  2  0  0  0
 38 46  1  0  0  0
 38 47  1  0  0  0
 39 64  1  0  0  0
 39 67  2  0  0  0
 40 52  1  0  0  0
 40 53  2  0  0  0
 40 58  1  0  0  0
 41111  1  0  0  0
 41112  1  0  0  0
 41113  1  0  0  0
 41 48  1  0  0  0
 42 43  1  0  0  0
 42 66  1  0  0  0
 42114  1  0  0  0
 42115  1  0  0  0
 43 44  1  0  0  0
 44116  1  0  0  0
 45 46  2  0  0  0
 45117  1  0  0  0
 46118  1  0  0  0
 47119  1  0  0  0
 47120  1  0  0  0
 48 56  1  0  0  0
 48 65  1  0  0  0
 48121  1  0  0  0
 49 50  1  0  0  0
 49 53  1  0  0  0
 49 64  1  0  0  0
 49122  1  0  0  0
 50 51  1  0  0  0
 50123  1  0  0  0
 50124  1  0  0  0
 51 52  1  0  0  0
 51125  1  0  0  0
 51126  1  0  0  0
 52127  1  0  0  0
 52128  1  0  0  0
 53 54  1  0  0  0
 54 55  2  0  0  0
 54129  1  0  0  0
 55 57  1  0  0  0
 55130  1  0  0  0
 56 69  2  0  0  0
 57 58  2  0  0  0
 57131  1  0  0  0
 58132  1  0  0  0
 59 60  1  0  0  0
 59 61  1  0  0  0
 59 62  1  0  0  0
 60133  1  0  0  0
 60134  1  0  0  0
 60135  1  0  0  0
 61136  1  0  0  0
 61137  1  0  0  0
 61138  1  0  0  0
 62139  1  0  0  0
 62140  1  0  0  0
 62141  1  0  0  0
 63 65  1  0  0  0
 63142  1  0  0  0
 63143  1  0  0  0
 63144  1  0  0  0
 64145  1  0  0  0
 65146  1  0  0  0
 68 76  1  0  0  0
 71 73  2  0  0  0
 71 74  1  0  0  0
 71147  1  0  0  0
 72 75  2  0  0  0
 72 76  1  0  0  0
 72148  1  0  0  0
 73 75  1  0  0  0
 73 86  1  0  0  0
 74 76  2  0  0  0
 74 83  1  0  0  0
 75 84  1  0  0  0
 77 79  1  0  0  0
 77149  1  0  0  0
 77150  1  0  0  0
 77 81  1  0  0  0
 78 80  1  0  0  0
 78 81  1  0  0  0
 78151  1  0  0  0
 78152  1  0  0  0
 79 82  1  0  0  0
 79153  1  0  0  0
 79154  1  0  0  0
 80 82  1  0  0  0
 80155  1  0  0  0
 80156  1  0  0  0
 81 86  1  0  0  0
 81157  1  0  0  0
 82 87  1  0  0  0
 82158  1  0  0  0
 83159  1  0  0  0
 83160  1  0  0  0
 83161  1  0  0  0
 84162  1  0  0  0
 84163  1  0  0  0
 84164  1  0  0  0
 85165  1  0  0  0
 85166  1  0  0  0
 85167  1  0  0  0
 85 86  1  0  0  0
 86168  1  0  0  0
 87169  1  0  0  0
M  ISO  4   1 100  68 101  76 101  87 100
M  END
> <chiral flag>
0

> <version>
0

> <s_m_source_file>
/data/baiqing/PycharmProjects/Reinvent-master-3.2/result/LINK_invent/BTK/process_docking_weight1_custom_sum_contain_oxygen_bond_distance_aromatic_linkinvent_7_9_3/rearranged_h_0151.sdf

> <i_m_source_file_index>
69

> <r_mmod_Potential_Energy-OPLS-2005>
55.6617546081543

> <r_mmod_Stretch_Energy-OPLS-2005>
54.6678657531738

> <r_mmod_Bend_Energy-OPLS-2005>
133.334030151367

> <r_mmod_Torsional_Energy-OPLS-2005>
260.573608398438

> <r_mmod_Improper_Torsional_Energy-OPLS-2005>
8.64188098907471

> <r_mmod_Van_der_Waal_Energy-OPLS-2005>
156.980621337891

> <r_mmod_Electrostatic_Energy-OPLS-2005>
-388.613037109375

> <r_mmod_Solvation_Energy-OPLS-2005>
-192.512161254883

> <b_mmod_Minimization_Converged-OPLS-2005>
0

> <r_mmod_RMS_Derivative-OPLS-2005>
0.78267502784729

$$$$
69
                    3D
 Structure written by MMmdl.
173182  0  0  1  0            999 V2000
  -30.6863  -14.5652   20.5165 C   0  0  0  0  0  0
  -30.4172  -12.3545   19.4398 C   0  0  0  0  0  0
  -29.4944  -12.4975   18.2124 C   0  0  0  0  0  0
  -28.0165  -12.3546   18.6245 C   0  0  0  0  0  0
  -27.6492  -13.2214   19.8593 C   0  0  2  0  0  0
  -28.6917  -13.0731   20.9861 C   0  0  0  0  0  0
  -25.2546  -13.8193   20.5696 C   0  0  0  0  0  0
  -24.1815  -13.0448   20.9179 C   0  0  0  0  0  0
  -24.6386  -11.6921   20.8721 C   0  0  0  0  0  0
  -23.9060  -10.4301   21.0398 C   0  0  0  0  0  0
  -24.3618   -9.4222   21.9171 C   0  0  0  0  0  0
  -23.6299   -8.2248   22.0749 C   0  0  0  0  0  0
  -22.4277   -8.0278   21.3542 C   0  0  0  0  0  0
  -21.9911   -9.0249   20.4640 C   0  0  0  0  0  0
  -22.7234  -10.2134   20.3048 C   0  0  0  0  0  0
  -21.6859   -6.0739   22.5283 C   0  0  0  0  0  0
  -21.4013   -6.5639   23.8216 C   0  0  0  0  0  0
  -21.3657   -5.6788   24.9177 C   0  0  0  0  0  0
  -21.6054   -4.3056   24.7226 C   0  0  0  0  0  0
  -21.8819   -3.8150   23.4345 C   0  0  0  0  0  0
  -21.9191   -4.6965   22.3402 C   0  0  0  0  0  0
  -22.7843  -13.5234   21.1855 C   0  0  0  0  0  0
  -22.1666   -4.2154   21.0981 F   0  0  0  0  0  0
  -21.5628   -3.4537   25.7739 F   0  0  0  0  0  0
  -30.0060  -13.3846   20.4131 N   0  0  0  0  0  0
  -26.2969  -12.9382   20.3313 N   0  0  0  0  0  0
  -25.9316  -11.6528   20.5747 N   0  0  0  0  0  0
  -22.0495  -12.8209   22.0412 N   0  0  0  0  0  0
  -25.4261  -15.1911   20.4129 N   0  0  0  0  0  0
  -31.8703  -14.6414   20.1688 O   0  0  0  0  0  0
  -21.6641   -6.8879   21.4243 O   0  0  0  0  0  0
  -22.3518  -14.5542   20.6721 O   0  0  0  0  0  0
  -24.6202  -31.8615   23.2044 C   0  0  0  0  0  0
  -25.9072  -32.4796   23.8359 C   0  0  1  0  0  0
  -27.2299  -27.3745   20.1262 C   0  0  0  0  0  0
  -25.5908  -33.8590   24.2286 N   0  0  0  0  0  0
  -23.4148  -30.4854   21.5430 C   0  0  2  0  0  0
  -24.8646  -28.9374   20.1196 C   0  0  0  0  0  0
  -22.7458  -29.4650   22.4944 C   0  0  0  0  0  0
  -18.0293  -28.1395   22.8486 C   0  0  0  0  0  0
  -24.1502  -36.7291   23.2641 C   0  0  0  0  0  0
  -25.9486  -30.8097   21.3685 C   0  0  0  0  0  0
  -26.0259  -29.4372   20.7214 C   0  0  0  0  0  0
  -27.2153  -28.6615   20.7244 C   0  0  0  0  0  0
  -26.0563  -26.8996   19.5119 C   0  0  0  0  0  0
  -24.8748  -27.6674   19.5131 C   0  0  0  0  0  0
  -23.6306  -29.8134   20.1606 C   0  0  0  0  0  0
  -25.4126  -36.3092   24.0340 C   0  0  1  0  0  0
  -20.5897  -28.3684   23.1292 C   0  0  2  0  0  0
  -20.6795  -26.9412   22.5421 C   0  0  0  0  0  0
  -19.5761  -26.6391   21.5226 C   0  0  0  0  0  0
  -18.1932  -26.7947   22.1620 C   0  0  0  0  0  0
  -19.1547  -28.8848   23.2885 C   0  0  0  0  0  0
  -18.9474  -30.1448   23.8902 C   0  0  0  0  0  0
  -17.6479  -30.6587   24.0558 C   0  0  0  0  0  0
  -25.9054  -34.9463   23.5114 C   0  0  0  0  0  0
  -16.5366  -29.9096   23.6330 C   0  0  0  0  0  0
  -16.7282  -28.6519   23.0339 C   0  0  0  0  0  0
  -26.4478  -31.6615   25.0722 C   0  0  0  0  0  0
  -25.3720  -31.3753   26.1458 C   0  0  0  0  0  0
  -27.0322  -30.3054   24.6149 C   0  0  0  0  0  0
  -27.6034  -32.4354   25.7493 C   0  0  0  0  0  0
  -27.5596  -37.1801   24.8465 C   0  0  0  0  0  0
  -21.4183  -29.3041   22.3687 N   0  0  0  0  0  0
  -26.4305  -37.3786   23.9417 N   0  0  0  0  0  0
  -24.6787  -31.0688   22.0962 N   0  0  0  0  0  0
  -23.4203  -28.8179   23.3006 O   0  0  0  0  0  0
  -28.3607  -26.5776   20.0790 O   0  0  0  0  0  0
  -26.5626  -34.8918   22.4683 O   0  0  0  0  0  0
  -23.5374  -32.1388   23.7412 O   0  0  0  0  0  0
  -27.1523  -23.5074   21.4321 C   0  0  0  0  0  0
  -29.0784  -21.8469   20.2702 C   0  0  0  0  0  0
  -26.9565  -22.1037   21.4052 C   0  0  0  0  0  0
  -29.2720  -23.2609   20.3007 C   0  0  0  0  0  0
  -28.3069  -24.1192   20.9019 C   0  0  0  0  0  0
  -27.9288  -21.2300   20.8262 C   0  0  0  0  0  0
  -29.2027  -17.9106   19.5117 C   0  0  0  0  0  0
  -28.6017  -17.4746   21.8641 C   0  0  0  0  0  0
  -30.2778  -16.7966   19.6359 C   0  0  0  0  0  0
  -29.6755  -16.3404   21.9125 C   0  0  0  0  0  0
  -28.8844  -18.6242   20.8471 C   0  0  0  0  0  0
  -25.6750  -21.5770   22.0347 C   0  0  0  0  0  0
  -30.5520  -23.8337   19.7175 C   0  0  0  0  0  0
  -27.4264  -20.0379   17.6515 C   0  0  0  0  0  0
  -28.5374  -25.6362   21.1677 C   0  0  0  0  0  0
  -26.3370  -20.0151   18.7305 C   0  0  0  0  0  0
  -27.6937  -19.6765   20.7834 C   0  0  2  0  0  0
  -29.9425  -15.7193   20.5994 N   0  0  0  0  0  0
  -26.6730  -19.2280   19.8761 O   0  0  0  0  0  0
  -31.4603  -12.4513   19.1319 H   0  0  0  0  0  0
  -30.3283  -11.3585   19.8772 H   0  0  0  0  0  0
  -29.7456  -11.7496   17.4594 H   0  0  0  0  0  0
  -29.6532  -13.4693   17.7416 H   0  0  0  0  0  0
  -27.8369  -11.3020   18.8425 H   0  0  0  0  0  0
  -27.3666  -12.6050   17.7856 H   0  0  0  0  0  0
  -27.6697  -14.2602   19.5270 H   0  0  0  0  0  0
  -28.6867  -12.0577   21.3854 H   0  0  0  0  0  0
  -28.4473  -13.7277   21.8211 H   0  0  0  0  0  0
  -25.2769   -9.5696   22.4742 H   0  0  0  0  0  0
  -24.0017   -7.4640   22.7465 H   0  0  0  0  0  0
  -21.0848   -8.8756   19.8944 H   0  0  0  0  0  0
  -22.3688  -10.9664   19.6153 H   0  0  0  0  0  0
  -21.2005   -7.6147   23.9721 H   0  0  0  0  0  0
  -21.1480   -6.0520   25.9080 H   0  0  0  0  0  0
  -22.0600   -2.7612   23.2844 H   0  0  0  0  0  0
  -22.4115  -11.9863   22.4788 H   0  0  0  0  0  0
  -21.1112  -13.1226   22.2630 H   0  0  0  0  0  0
  -24.6651  -15.8508   20.5297 H   0  0  0  0  0  0
  -26.2905  -15.6320   20.1247 H   0  0  0  0  0  0
  -26.7149  -32.5490   23.1113 H   0  0  0  0  0  0
  -25.0089  -33.9734   25.0459 H   0  0  0  0  0  0
  -22.7064  -31.3035   21.3933 H   0  0  0  0  0  0
  -23.3775  -35.9613   23.3314 H   0  0  0  0  0  0
  -24.3590  -36.8898   22.2052 H   0  0  0  0  0  0
  -23.7248  -37.6496   23.6647 H   0  0  0  0  0  0
  -26.0761  -31.5734   20.6006 H   0  0  0  0  0  0
  -26.8343  -30.8605   21.9932 H   0  0  0  0  0  0
  -28.1138  -29.0409   21.1892 H   0  0  0  0  0  0
  -26.0589  -25.9251   19.0440 H   0  0  0  0  0  0
  -23.9825  -27.2750   19.0457 H   0  0  0  0  0  0
  -23.7490  -30.5853   19.3983 H   0  0  0  0  0  0
  -22.7548  -29.2392   19.8583 H   0  0  0  0  0  0
  -25.1306  -36.1952   25.0836 H   0  0  0  0  0  0
  -20.9970  -28.3251   24.1411 H   0  0  0  0  0  0
  -20.5733  -26.2278   23.3608 H   0  0  0  0  0  0
  -21.6653  -26.7478   22.1170 H   0  0  0  0  0  0
  -19.6939  -25.6309   21.1229 H   0  0  0  0  0  0
  -19.6702  -27.3219   20.6765 H   0  0  0  0  0  0
  -17.4213  -26.6701   21.4004 H   0  0  0  0  0  0
  -18.0292  -26.0109   22.9021 H   0  0  0  0  0  0
  -19.7956  -30.7248   24.2278 H   0  0  0  0  0  0
  -17.5039  -31.6268   24.5152 H   0  0  0  0  0  0
  -15.5360  -30.2977   23.7670 H   0  0  0  0  0  0
  -15.8689  -28.0829   22.7041 H   0  0  0  0  0  0
  -24.5868  -30.7134   25.7796 H   0  0  0  0  0  0
  -24.8929  -32.2916   26.4912 H   0  0  0  0  0  0
  -25.8033  -30.8905   27.0226 H   0  0  0  0  0  0
  -26.2881  -29.6812   24.1181 H   0  0  0  0  0  0
  -27.4068  -29.7304   25.4631 H   0  0  0  0  0  0
  -27.8728  -30.4384   23.9332 H   0  0  0  0  0  0
  -27.2647  -33.3653   26.2078 H   0  0  0  0  0  0
  -28.3837  -32.6934   25.0320 H   0  0  0  0  0  0
  -28.0718  -31.8486   26.5411 H   0  0  0  0  0  0
  -28.2590  -38.0119   24.7545 H   0  0  0  0  0  0
  -28.1112  -36.2653   24.6253 H   0  0  0  0  0  0
  -27.2306  -37.1403   25.8861 H   0  0  0  0  0  0
  -20.9359  -29.8748   21.6890 H   0  0  0  0  0  0
  -26.0195  -38.2860   24.1437 H   0  0  0  0  0  0
  -26.4133  -24.1340   21.9133 H   0  0  0  0  0  0
  -29.8276  -21.2150   19.8139 H   0  0  0  0  0  0
  -28.2944  -17.4667   19.1011 H   0  0  0  0  0  0
  -29.5448  -18.6464   18.7848 H   0  0  0  0  0  0
  -28.4960  -17.8957   22.8656 H   0  0  0  0  0  0
  -27.6363  -17.0223   21.6319 H   0  0  0  0  0  0
  -31.2277  -17.2493   19.9262 H   0  0  0  0  0  0
  -30.4378  -16.3596   18.6475 H   0  0  0  0  0  0
  -29.3639  -15.5834   22.6320 H   0  0  0  0  0  0
  -30.6114  -16.7441   22.3026 H   0  0  0  0  0  0
  -29.7794  -19.1440   21.1919 H   0  0  0  0  0  0
  -25.8683  -21.2400   23.0532 H   0  0  0  0  0  0
  -25.2498  -20.7517   21.4638 H   0  0  0  0  0  0
  -24.9097  -22.3533   22.0832 H   0  0  0  0  0  0
  -31.0430  -23.1210   19.0532 H   0  0  0  0  0  0
  -31.2483  -24.0871   20.5166 H   0  0  0  0  0  0
  -30.3505  -24.7347   19.1361 H   0  0  0  0  0  0
  -27.1108  -20.6320   16.7936 H   0  0  0  0  0  0
  -27.6377  -19.0333   17.2889 H   0  0  0  0  0  0
  -28.3559  -20.4721   18.0137 H   0  0  0  0  0  0
  -29.5618  -25.7481   21.5240 H   0  0  0  0  0  0
  -27.9239  -25.9359   22.0197 H   0  0  0  0  0  0
  -25.4441  -19.5647   18.2949 H   0  0  0  0  0  0
  -26.0397  -21.0258   19.0067 H   0  0  0  0  0  0
  -27.2216  -19.5188   21.7515 H   0  0  0  0  0  0
  1 25  1  0  0  0
  1 30  2  0  0  0
  1 88  1  0  0  0
  2  3  1  0  0  0
  2 25  1  0  0  0
  2 90  1  0  0  0
  2 91  1  0  0  0
  3  4  1  0  0  0
  3 92  1  0  0  0
  3 93  1  0  0  0
  4  5  1  0  0  0
  4 94  1  0  0  0
  4 95  1  0  0  0
  5  6  1  0  0  0
  5 26  1  0  0  0
  5 96  1  0  0  0
  6 25  1  0  0  0
  6 97  1  0  0  0
  6 98  1  0  0  0
  7  8  2  0  0  0
  7 26  1  0  0  0
  7 29  1  0  0  0
  8  9  1  0  0  0
  8 22  1  0  0  0
  9 10  1  0  0  0
  9 27  2  0  0  0
 10 11  2  0  0  0
 10 15  1  0  0  0
 11 12  1  0  0  0
 11 99  1  0  0  0
 12 13  2  0  0  0
 12100  1  0  0  0
 13 14  1  0  0  0
 13 31  1  0  0  0
 14 15  2  0  0  0
 14101  1  0  0  0
 15102  1  0  0  0
 16 17  2  0  0  0
 16 21  1  0  0  0
 16 31  1  0  0  0
 17 18  1  0  0  0
 17103  1  0  0  0
 18 19  2  0  0  0
 18104  1  0  0  0
 19 20  1  0  0  0
 19 24  1  0  0  0
 20 21  2  0  0  0
 20105  1  0  0  0
 21 23  1  0  0  0
 22 28  1  0  0  0
 22 32  2  0  0  0
 26 27  1  0  0  0
 28106  1  0  0  0
 28107  1  0  0  0
 29108  1  0  0  0
 29109  1  0  0  0
 33 34  1  0  0  0
 33 66  1  0  0  0
 33 70  2  0  0  0
 34 36  1  0  0  0
 34 59  1  0  0  0
 34110  1  0  0  0
 35 44  2  0  0  0
 35 45  1  0  0  0
 35 68  1  0  0  0
 36 56  1  0  0  0
 36111  1  0  0  0
 37 39  1  0  0  0
 37 47  1  0  0  0
 37 66  1  0  0  0
 37112  1  0  0  0
 38 43  2  0  0  0
 38 46  1  0  0  0
 38 47  1  0  0  0
 39 64  1  0  0  0
 39 67  2  0  0  0
 40 52  1  0  0  0
 40 53  2  0  0  0
 40 58  1  0  0  0
 41113  1  0  0  0
 41114  1  0  0  0
 41115  1  0  0  0
 41 48  1  0  0  0
 42 43  1  0  0  0
 42 66  1  0  0  0
 42116  1  0  0  0
 42117  1  0  0  0
 43 44  1  0  0  0
 44118  1  0  0  0
 45 46  2  0  0  0
 45119  1  0  0  0
 46120  1  0  0  0
 47121  1  0  0  0
 47122  1  0  0  0
 48 56  1  0  0  0
 48 65  1  0  0  0
 48123  1  0  0  0
 49 50  1  0  0  0
 49 53  1  0  0  0
 49 64  1  0  0  0
 49124  1  0  0  0
 50 51  1  0  0  0
 50125  1  0  0  0
 50126  1  0  0  0
 51 52  1  0  0  0
 51127  1  0  0  0
 51128  1  0  0  0
 52129  1  0  0  0
 52130  1  0  0  0
 53 54  1  0  0  0
 54 55  2  0  0  0
 54131  1  0  0  0
 55 57  1  0  0  0
 55132  1  0  0  0
 56 69  2  0  0  0
 57 58  2  0  0  0
 57133  1  0  0  0
 58134  1  0  0  0
 59 60  1  0  0  0
 59 61  1  0  0  0
 59 62  1  0  0  0
 60135  1  0  0  0
 60136  1  0  0  0
 60137  1  0  0  0
 61138  1  0  0  0
 61139  1  0  0  0
 61140  1  0  0  0
 62141  1  0  0  0
 62142  1  0  0  0
 62143  1  0  0  0
 63 65  1  0  0  0
 63144  1  0  0  0
 63145  1  0  0  0
 63146  1  0  0  0
 64147  1  0  0  0
 65148  1  0  0  0
 68 85  1  0  0  0
 71 73  2  0  0  0
 71 75  1  0  0  0
 71149  1  0  0  0
 72 74  1  0  0  0
 72 76  2  0  0  0
 72150  1  0  0  0
 73 76  1  0  0  0
 73 82  1  0  0  0
 74 75  2  0  0  0
 74 83  1  0  0  0
 75 85  1  0  0  0
 76 87  1  0  0  0
 77 79  1  0  0  0
 77151  1  0  0  0
 77152  1  0  0  0
 77 81  1  0  0  0
 78 80  1  0  0  0
 78 81  1  0  0  0
 78153  1  0  0  0
 78154  1  0  0  0
 79 88  1  0  0  0
 79155  1  0  0  0
 79156  1  0  0  0
 80 88  1  0  0  0
 80157  1  0  0  0
 80158  1  0  0  0
 81 87  1  0  0  0
 81159  1  0  0  0
 82160  1  0  0  0
 82161  1  0  0  0
 82162  1  0  0  0
 83163  1  0  0  0
 83164  1  0  0  0
 83165  1  0  0  0
 84 86  1  0  0  0
 84166  1  0  0  0
 84167  1  0  0  0
 84168  1  0  0  0
 85169  1  0  0  0
 85170  1  0  0  0
 86 89  1  0  0  0
 86171  1  0  0  0
 86172  1  0  0  0
 87 89  1  0  0  0
 87173  1  0  0  0
M  ISO  4   1 100  68 101  85 101  88 100
M  END
> <chiral flag>
0

> <version>
0

> <s_m_source_file>
/data/baiqing/PycharmProjects/Reinvent-master-3.2/result/LINK_invent/BTK/process_docking_weight1_custom_sum_contain_oxygen_bond_distance_aromatic_linkinvent_7_9_3/rearranged_h_0151.sdf

> <i_m_source_file_index>
70

> <r_mmod_Potential_Energy-OPLS-2005>
318.184326171875

> <r_mmod_Stretch_Energy-OPLS-2005>
63.2347221374512

> <r_mmod_Bend_Energy-OPLS-2005>
152.276702880859

> <r_mmod_Torsional_Energy-OPLS-2005>
376.536376953125

> <r_mmod_Improper_Torsional_Energy-OPLS-2005>
16.8554077148438

> <r_mmod_Van_der_Waal_Energy-OPLS-2005>
141.826110839844

> <r_mmod_Electrostatic_Energy-OPLS-2005>
-281.669677734375

> <r_mmod_Solvation_Energy-OPLS-2005>
-180.530197143555

> <b_mmod_Minimization_Converged-OPLS-2005>
0

> <r_mmod_RMS_Derivative-OPLS-2005>
2.50039839744568

$$$$
70
                    3D
 Structure written by MMmdl.
168178  0  0  1  0            999 V2000
  -30.6819  -14.6010   20.4871 C   0  0  0  0  0  0
  -30.4169  -12.3667   19.4537 C   0  0  0  0  0  0
  -29.4988  -12.4937   18.2216 C   0  0  0  0  0  0
  -28.0221  -12.3433   18.6354 C   0  0  0  0  0  0
  -27.6475  -13.2263   19.8572 C   0  0  2  0  0  0
  -28.6931  -13.1168   20.9887 C   0  0  0  0  0  0
  -25.2546  -13.8204   20.5712 C   0  0  0  0  0  0
  -24.1822  -13.0450   20.9198 C   0  0  0  0  0  0
  -24.6406  -11.6923   20.8743 C   0  0  0  0  0  0
  -23.9087  -10.4296   21.0401 C   0  0  0  0  0  0
  -24.3634   -9.4211   21.9181 C   0  0  0  0  0  0
  -23.6306   -8.2246   22.0752 C   0  0  0  0  0  0
  -22.4288   -8.0285   21.3548 C   0  0  0  0  0  0
  -21.9928   -9.0254   20.4647 C   0  0  0  0  0  0
  -22.7257  -10.2131   20.3052 C   0  0  0  0  0  0
  -21.6856   -6.0746   22.5286 C   0  0  0  0  0  0
  -21.4014   -6.5645   23.8219 C   0  0  0  0  0  0
  -21.3659   -5.6798   24.9183 C   0  0  0  0  0  0
  -21.6044   -4.3064   24.7232 C   0  0  0  0  0  0
  -21.8817   -3.8162   23.4352 C   0  0  0  0  0  0
  -21.9193   -4.6977   22.3410 C   0  0  0  0  0  0
  -22.7842  -13.5228   21.1855 C   0  0  0  0  0  0
  -22.1656   -4.2164   21.0983 F   0  0  0  0  0  0
  -21.5634   -3.4546   25.7743 F   0  0  0  0  0  0
  -30.0055  -13.4152   20.4066 N   0  0  0  0  0  0
  -26.2975  -12.9400   20.3332 N   0  0  0  0  0  0
  -25.9341  -11.6546   20.5780 N   0  0  0  0  0  0
  -22.0487  -12.8210   22.0408 N   0  0  0  0  0  0
  -25.4280  -15.1925   20.4143 N   0  0  0  0  0  0
  -31.8693  -14.6750   20.1560 O   0  0  0  0  0  0
  -21.6644   -6.8888   21.4249 O   0  0  0  0  0  0
  -22.3521  -14.5531   20.6707 O   0  0  0  0  0  0
  -24.6223  -31.8624   23.2033 C   0  0  0  0  0  0
  -25.9087  -32.4796   23.8362 C   0  0  1  0  0  0
  -27.2266  -27.3599   20.1148 C   0  0  0  0  0  0
  -25.5908  -33.8592   24.2290 N   0  0  0  0  0  0
  -23.4152  -30.4844   21.5451 C   0  0  2  0  0  0
  -24.8659  -28.9449   20.1084 C   0  0  0  0  0  0
  -22.7457  -29.4636   22.4951 C   0  0  0  0  0  0
  -18.0283  -28.1389   22.8485 C   0  0  0  0  0  0
  -24.1488  -36.7305   23.2637 C   0  0  0  0  0  0
  -25.9526  -30.8056   21.3690 C   0  0  0  0  0  0
  -26.0313  -29.4358   20.7124 C   0  0  0  0  0  0
  -27.2200  -28.6527   20.7099 C   0  0  0  0  0  0
  -26.0481  -26.9093   19.4868 C   0  0  0  0  0  0
  -24.8731  -27.6848   19.4870 C   0  0  0  0  0  0
  -23.6286  -29.8177   20.1603 C   0  0  0  0  0  0
  -25.4112  -36.3098   24.0330 C   0  0  1  0  0  0
  -20.5878  -28.3687   23.1288 C   0  0  2  0  0  0
  -20.6774  -26.9413   22.5413 C   0  0  0  0  0  0
  -19.5753  -26.6387   21.5215 C   0  0  0  0  0  0
  -18.1930  -26.7933   22.1624 C   0  0  0  0  0  0
  -19.1532  -28.8855   23.2886 C   0  0  0  0  0  0
  -18.9463  -30.1460   23.8901 C   0  0  0  0  0  0
  -17.6460  -30.6587   24.0566 C   0  0  0  0  0  0
  -25.9043  -34.9465   23.5113 C   0  0  0  0  0  0
  -16.5348  -29.9087   23.6330 C   0  0  0  0  0  0
  -16.7269  -28.6506   23.0348 C   0  0  0  0  0  0
  -26.4482  -31.6589   25.0718 C   0  0  0  0  0  0
  -25.3726  -31.3711   26.1450 C   0  0  0  0  0  0
  -27.0309  -30.3013   24.6143 C   0  0  0  0  0  0
  -27.6047  -32.4314   25.7491 C   0  0  0  0  0  0
  -27.5584  -37.1804   24.8461 C   0  0  0  0  0  0
  -21.4175  -29.3042   22.3686 N   0  0  0  0  0  0
  -26.4294  -37.3790   23.9408 N   0  0  0  0  0  0
  -24.6819  -31.0657   22.0973 N   0  0  0  0  0  0
  -23.4189  -28.8182   23.3032 O   0  0  0  0  0  0
  -28.3038  -26.4792   20.1643 O   0  0  0  0  0  0
  -26.5622  -34.8921   22.4686 O   0  0  0  0  0  0
  -23.5393  -32.1414   23.7383 O   0  0  0  0  0  0
  -28.9614  -23.3629   19.7440 C   0  0  0  0  0  0
  -28.6299  -23.1221   22.1120 C   0  0  0  0  0  0
  -29.3416  -21.9826   19.6620 C   0  0  0  0  0  0
  -28.6075  -23.9671   20.9759 C   0  0  0  0  0  0
  -28.9920  -21.7497   22.0478 C   0  0  0  0  0  0
  -29.3475  -21.1409   20.8160 C   0  0  0  0  0  0
  -31.1128  -20.8236   18.1101 C   0  0  0  0  0  0
  -30.7317  -22.1178   17.4324 C   0  0  0  0  0  0
  -28.9658  -17.8449   19.4707 C   0  0  0  0  0  0
  -28.9985  -17.7020   21.9597 C   0  0  0  0  0  0
  -30.0531  -16.7258   19.4730 C   0  0  0  0  0  0
  -30.0555  -16.5563   21.8361 C   0  0  0  0  0  0
  -29.7385  -21.4154   18.3309 C   0  0  0  0  0  0
  -28.8836  -18.6969   20.7632 C   0  0  0  0  0  0
  -29.0222  -20.9519   23.3361 C   0  0  0  0  0  0
  -28.1264  -25.4427   21.1820 C   0  0  0  0  0  0
  -29.9426  -15.7591   20.5962 N   0  0  0  0  0  0
  -29.8190  -19.8147   20.7629 O   0  0  0  0  0  0
  -31.4627  -12.4552   19.1549 H   0  0  0  0  0  0
  -30.3177  -11.3809   19.9104 H   0  0  0  0  0  0
  -29.7580  -11.7405   17.4773 H   0  0  0  0  0  0
  -29.6524  -13.4618   17.7423 H   0  0  0  0  0  0
  -27.8551  -11.2921   18.8729 H   0  0  0  0  0  0
  -27.3686  -12.5688   17.7913 H   0  0  0  0  0  0
  -27.6577  -14.2574   19.5031 H   0  0  0  0  0  0
  -28.6931  -12.1169   21.4244 H   0  0  0  0  0  0
  -28.4566  -13.8087   21.7987 H   0  0  0  0  0  0
  -25.2773   -9.5688   22.4764 H   0  0  0  0  0  0
  -24.0019   -7.4639   22.7467 H   0  0  0  0  0  0
  -21.0864   -8.8771   19.8948 H   0  0  0  0  0  0
  -22.3715  -10.9671   19.6165 H   0  0  0  0  0  0
  -21.1993   -7.6146   23.9732 H   0  0  0  0  0  0
  -21.1486   -6.0526   25.9087 H   0  0  0  0  0  0
  -22.0596   -2.7628   23.2853 H   0  0  0  0  0  0
  -22.4106  -11.9864   22.4785 H   0  0  0  0  0  0
  -21.1107  -13.1231   22.2611 H   0  0  0  0  0  0
  -24.6703  -15.8553   20.5347 H   0  0  0  0  0  0
  -26.2964  -15.6282   20.1304 H   0  0  0  0  0  0
  -26.7155  -32.5483   23.1114 H   0  0  0  0  0  0
  -25.0041  -33.9748   25.0423 H   0  0  0  0  0  0
  -22.7087  -31.3044   21.4022 H   0  0  0  0  0  0
  -23.3753  -35.9635   23.3297 H   0  0  0  0  0  0
  -24.3580  -36.8930   22.2053 H   0  0  0  0  0  0
  -23.7234  -37.6500   23.6661 H   0  0  0  0  0  0
  -26.0768  -31.5701   20.6005 H   0  0  0  0  0  0
  -26.8352  -30.8580   21.9942 H   0  0  0  0  0  0
  -28.1142  -29.0195   21.1946 H   0  0  0  0  0  0
  -26.0314  -25.9334   19.0223 H   0  0  0  0  0  0
  -23.9787  -27.3019   19.0151 H   0  0  0  0  0  0
  -23.7387  -30.5936   19.4017 H   0  0  0  0  0  0
  -22.7514  -29.2397   19.8637 H   0  0  0  0  0  0
  -25.1294  -36.1958   25.0820 H   0  0  0  0  0  0
  -20.9974  -28.3266   24.1405 H   0  0  0  0  0  0
  -20.5682  -26.2299   23.3613 H   0  0  0  0  0  0
  -21.6647  -26.7452   22.1199 H   0  0  0  0  0  0
  -19.6914  -25.6300   21.1245 H   0  0  0  0  0  0
  -19.6690  -27.3198   20.6749 H   0  0  0  0  0  0
  -17.4203  -26.6685   21.4024 H   0  0  0  0  0  0
  -18.0325  -26.0073   22.9015 H   0  0  0  0  0  0
  -19.7939  -30.7285   24.2263 H   0  0  0  0  0  0
  -17.5012  -31.6269   24.5169 H   0  0  0  0  0  0
  -15.5350  -30.2994   23.7653 H   0  0  0  0  0  0
  -15.8670  -28.0831   22.7057 H   0  0  0  0  0  0
  -24.5895  -30.7074   25.7773 H   0  0  0  0  0  0
  -24.8928  -32.2872   26.4902 H   0  0  0  0  0  0
  -25.8059  -30.8865   27.0208 H   0  0  0  0  0  0
  -26.2867  -29.6775   24.1176 H   0  0  0  0  0  0
  -27.4021  -29.7256   25.4634 H   0  0  0  0  0  0
  -27.8735  -30.4299   23.9344 H   0  0  0  0  0  0
  -27.2660  -33.3604   26.2083 H   0  0  0  0  0  0
  -28.3851  -32.6885   25.0319 H   0  0  0  0  0  0
  -28.0718  -31.8428   26.5394 H   0  0  0  0  0  0
  -28.2596  -38.0107   24.7525 H   0  0  0  0  0  0
  -28.1088  -36.2641   24.6272 H   0  0  0  0  0  0
  -27.2304  -37.1434   25.8865 H   0  0  0  0  0  0
  -20.9352  -29.8750   21.6884 H   0  0  0  0  0  0
  -26.0181  -38.2865   24.1417 H   0  0  0  0  0  0
  -28.9443  -23.9658   18.8469 H   0  0  0  0  0  0
  -28.3608  -23.5467   23.0694 H   0  0  0  0  0  0
  -31.8299  -20.8792   18.9272 H   0  0  0  0  0  0
  -31.1873  -19.9368   17.4837 H   0  0  0  0  0  0
  -30.5661  -22.0754   16.3578 H   0  0  0  0  0  0
  -31.2085  -23.0258   17.7975 H   0  0  0  0  0  0
  -27.9970  -17.3670   19.3162 H   0  0  0  0  0  0
  -29.1083  -18.4977   18.6093 H   0  0  0  0  0  0
  -29.1588  -18.2380   22.8927 H   0  0  0  0  0  0
  -28.0246  -17.2230   22.0732 H   0  0  0  0  0  0
  -31.0438  -17.1860   19.4834 H   0  0  0  0  0  0
  -29.9901  -16.1844   18.5266 H   0  0  0  0  0  0
  -29.9569  -15.8936   22.6973 H   0  0  0  0  0  0
  -31.0583  -16.9811   21.9008 H   0  0  0  0  0  0
  -28.8935  -20.9189   17.8572 H   0  0  0  0  0  0
  -27.8860  -19.1375   20.8021 H   0  0  0  0  0  0
  -28.9941  -21.6012   24.2112 H   0  0  0  0  0  0
  -29.9335  -20.3575   23.3983 H   0  0  0  0  0  0
  -28.1608  -20.2857   23.3854 H   0  0  0  0  0  0
  -28.6337  -25.8177   22.0723 H   0  0  0  0  0  0
  -27.0769  -25.3659   21.4723 H   0  0  0  0  0  0
  1 25  1  0  0  0
  1 30  2  0  0  0
  1 87  1  0  0  0
  2  3  1  0  0  0
  2 25  1  0  0  0
  2 89  1  0  0  0
  2 90  1  0  0  0
  3  4  1  0  0  0
  3 91  1  0  0  0
  3 92  1  0  0  0
  4  5  1  0  0  0
  4 93  1  0  0  0
  4 94  1  0  0  0
  5  6  1  0  0  0
  5 26  1  0  0  0
  5 95  1  0  0  0
  6 25  1  0  0  0
  6 96  1  0  0  0
  6 97  1  0  0  0
  7  8  2  0  0  0
  7 26  1  0  0  0
  7 29  1  0  0  0
  8  9  1  0  0  0
  8 22  1  0  0  0
  9 10  1  0  0  0
  9 27  2  0  0  0
 10 11  2  0  0  0
 10 15  1  0  0  0
 11 12  1  0  0  0
 11 98  1  0  0  0
 12 13  2  0  0  0
 12 99  1  0  0  0
 13 14  1  0  0  0
 13 31  1  0  0  0
 14 15  2  0  0  0
 14100  1  0  0  0
 15101  1  0  0  0
 16 17  2  0  0  0
 16 21  1  0  0  0
 16 31  1  0  0  0
 17 18  1  0  0  0
 17102  1  0  0  0
 18 19  2  0  0  0
 18103  1  0  0  0
 19 20  1  0  0  0
 19 24  1  0  0  0
 20 21  2  0  0  0
 20104  1  0  0  0
 21 23  1  0  0  0
 22 28  1  0  0  0
 22 32  2  0  0  0
 26 27  1  0  0  0
 28105  1  0  0  0
 28106  1  0  0  0
 29107  1  0  0  0
 29108  1  0  0  0
 33 34  1  0  0  0
 33 66  1  0  0  0
 33 70  2  0  0  0
 34 36  1  0  0  0
 34 59  1  0  0  0
 34109  1  0  0  0
 35 44  2  0  0  0
 35 45  1  0  0  0
 35 68  1  0  0  0
 36 56  1  0  0  0
 36110  1  0  0  0
 37 39  1  0  0  0
 37 47  1  0  0  0
 37 66  1  0  0  0
 37111  1  0  0  0
 38 43  2  0  0  0
 38 46  1  0  0  0
 38 47  1  0  0  0
 39 64  1  0  0  0
 39 67  2  0  0  0
 40 52  1  0  0  0
 40 53  2  0  0  0
 40 58  1  0  0  0
 41112  1  0  0  0
 41113  1  0  0  0
 41114  1  0  0  0
 41 48  1  0  0  0
 42 43  1  0  0  0
 42 66  1  0  0  0
 42115  1  0  0  0
 42116  1  0  0  0
 43 44  1  0  0  0
 44117  1  0  0  0
 45 46  2  0  0  0
 45118  1  0  0  0
 46119  1  0  0  0
 47120  1  0  0  0
 47121  1  0  0  0
 48 56  1  0  0  0
 48 65  1  0  0  0
 48122  1  0  0  0
 49 50  1  0  0  0
 49 53  1  0  0  0
 49 64  1  0  0  0
 49123  1  0  0  0
 50 51  1  0  0  0
 50124  1  0  0  0
 50125  1  0  0  0
 51 52  1  0  0  0
 51126  1  0  0  0
 51127  1  0  0  0
 52128  1  0  0  0
 52129  1  0  0  0
 53 54  1  0  0  0
 54 55  2  0  0  0
 54130  1  0  0  0
 55 57  1  0  0  0
 55131  1  0  0  0
 56 69  2  0  0  0
 57 58  2  0  0  0
 57132  1  0  0  0
 58133  1  0  0  0
 59 60  1  0  0  0
 59 61  1  0  0  0
 59 62  1  0  0  0
 60134  1  0  0  0
 60135  1  0  0  0
 60136  1  0  0  0
 61137  1  0  0  0
 61138  1  0  0  0
 61139  1  0  0  0
 62140  1  0  0  0
 62141  1  0  0  0
 62142  1  0  0  0
 63 65  1  0  0  0
 63143  1  0  0  0
 63144  1  0  0  0
 63145  1  0  0  0
 64146  1  0  0  0
 65147  1  0  0  0
 68 86  1  0  0  0
 71 73  2  0  0  0
 71 74  1  0  0  0
 71148  1  0  0  0
 72 74  2  0  0  0
 72 75  1  0  0  0
 72149  1  0  0  0
 73 76  1  0  0  0
 73 83  1  0  0  0
 74 86  1  0  0  0
 75 76  2  0  0  0
 75 85  1  0  0  0
 76 88  1  0  0  0
 77 78  1  0  0  0
 77 83  1  0  0  0
 77150  1  0  0  0
 77151  1  0  0  0
 78 83  1  0  0  0
 78152  1  0  0  0
 78153  1  0  0  0
 79 81  1  0  0  0
 79 84  1  0  0  0
 79154  1  0  0  0
 79155  1  0  0  0
 80 82  1  0  0  0
 80 84  1  0  0  0
 80156  1  0  0  0
 80157  1  0  0  0
 81 87  1  0  0  0
 81158  1  0  0  0
 81159  1  0  0  0
 82 87  1  0  0  0
 82160  1  0  0  0
 82161  1  0  0  0
 83162  1  0  0  0
 84 88  1  0  0  0
 84163  1  0  0  0
 85164  1  0  0  0
 85165  1  0  0  0
 85166  1  0  0  0
 86167  1  0  0  0
 86168  1  0  0  0
M  ISO  4   1 100  68 101  86 101  87 100
M  END
> <chiral flag>
0

> <version>
0

> <s_m_source_file>
/data/baiqing/PycharmProjects/Reinvent-master-3.2/result/LINK_invent/BTK/process_docking_weight1_custom_sum_contain_oxygen_bond_distance_aromatic_linkinvent_7_9_3/rearranged_h_0151.sdf

> <i_m_source_file_index>
71

> <r_mmod_Potential_Energy-OPLS-2005>
331.038146972656

> <r_mmod_Stretch_Energy-OPLS-2005>
65.9587478637695

> <r_mmod_Bend_Energy-OPLS-2005>
145.456268310547

> <r_mmod_Torsional_Energy-OPLS-2005>
420.580932617188

> <r_mmod_Improper_Torsional_Energy-OPLS-2005>
14.6696624755859

> <r_mmod_Van_der_Waal_Energy-OPLS-2005>
132.011337280273

> <r_mmod_Electrostatic_Energy-OPLS-2005>
-298.222900390625

> <r_mmod_Solvation_Energy-OPLS-2005>
-192.159820556641

> <b_mmod_Minimization_Converged-OPLS-2005>
0

> <r_mmod_RMS_Derivative-OPLS-2005>
1.26691079139709

$$$$
71
                    3D
 Structure written by MMmdl.
171180  0  0  1  0            999 V2000
  -30.7856  -14.3972   20.6477 C   0  0  0  0  0  0
  -30.4012  -12.2910   19.4229 C   0  0  0  0  0  0
  -29.4876  -12.5262   18.2061 C   0  0  0  0  0  0
  -28.0124  -12.3669   18.6139 C   0  0  0  0  0  0
  -27.6604  -13.2015   19.8722 C   0  0  2  0  0  0
  -28.6991  -12.9948   21.0022 C   0  0  0  0  0  0
  -25.2580  -13.8137   20.5659 C   0  0  0  0  0  0
  -24.1834  -13.0423   20.9167 C   0  0  0  0  0  0
  -24.6382  -11.6885   20.8734 C   0  0  0  0  0  0
  -23.9053  -10.4276   21.0410 C   0  0  0  0  0  0
  -24.3615   -9.4197   21.9188 C   0  0  0  0  0  0
  -23.6297   -8.2222   22.0761 C   0  0  0  0  0  0
  -22.4275   -8.0256   21.3544 C   0  0  0  0  0  0
  -21.9904   -9.0230   20.4646 C   0  0  0  0  0  0
  -22.7230  -10.2116   20.3064 C   0  0  0  0  0  0
  -21.6850   -6.0719   22.5285 C   0  0  0  0  0  0
  -21.3995   -6.5627   23.8210 C   0  0  0  0  0  0
  -21.3663   -5.6786   24.9177 C   0  0  0  0  0  0
  -21.6050   -4.3049   24.7237 C   0  0  0  0  0  0
  -21.8822   -3.8130   23.4357 C   0  0  0  0  0  0
  -21.9191   -4.6945   22.3411 C   0  0  0  0  0  0
  -22.7859  -13.5225   21.1834 C   0  0  0  0  0  0
  -22.1662   -4.2125   21.0990 F   0  0  0  0  0  0
  -21.5654   -3.4533   25.7752 F   0  0  0  0  0  0
  -30.0414  -13.2708   20.4628 N   0  0  0  0  0  0
  -26.3005  -12.9297   20.3341 N   0  0  0  0  0  0
  -25.9305  -11.6461   20.5755 N   0  0  0  0  0  0
  -22.0498  -12.8224   22.0398 N   0  0  0  0  0  0
  -25.4335  -15.1844   20.4068 N   0  0  0  0  0  0
  -31.8411  -14.5841   20.0324 O   0  0  0  0  0  0
  -21.6643   -6.8855   21.4242 O   0  0  0  0  0  0
  -22.3551  -14.5537   20.6693 O   0  0  0  0  0  0
  -24.6087  -31.8719   23.2126 C   0  0  0  0  0  0
  -25.9000  -32.4850   23.8411 C   0  0  1  0  0  0
  -27.2507  -27.4678   20.1091 C   0  0  0  0  0  0
  -25.5883  -33.8641   24.2352 N   0  0  0  0  0  0
  -23.3958  -30.4935   21.5524 C   0  0  2  0  0  0
  -24.8473  -28.9611   20.1218 C   0  0  0  0  0  0
  -22.7383  -29.4666   22.5009 C   0  0  0  0  0  0
  -18.0264  -28.1370   22.8486 C   0  0  0  0  0  0
  -24.1473  -36.7307   23.2630 C   0  0  0  0  0  0
  -25.9193  -30.8475   21.3616 C   0  0  0  0  0  0
  -26.0016  -29.4812   20.7189 C   0  0  0  0  0  0
  -27.2061  -28.7460   20.7145 C   0  0  0  0  0  0
  -26.0809  -26.9601   19.5068 C   0  0  0  0  0  0
  -24.8795  -27.6939   19.5140 C   0  0  0  0  0  0
  -23.6059  -29.8234   20.1679 C   0  0  0  0  0  0
  -25.4087  -36.3122   24.0357 C   0  0  1  0  0  0
  -20.5854  -28.3636   23.1338 C   0  0  2  0  0  0
  -20.6756  -26.9375   22.5432 C   0  0  0  0  0  0
  -19.5751  -26.6370   21.5214 C   0  0  0  0  0  0
  -18.1916  -26.7921   22.1600 C   0  0  0  0  0  0
  -19.1516  -28.8820   23.2912 C   0  0  0  0  0  0
  -18.9444  -30.1433   23.8911 C   0  0  0  0  0  0
  -17.6449  -30.6576   24.0562 C   0  0  0  0  0  0
  -25.9026  -34.9494   23.5146 C   0  0  0  0  0  0
  -16.5339  -29.9076   23.6332 C   0  0  0  0  0  0
  -16.7255  -28.6501   23.0337 C   0  0  0  0  0  0
  -26.4440  -31.6614   25.0719 C   0  0  0  0  0  0
  -25.3739  -31.3741   26.1506 C   0  0  0  0  0  0
  -27.0233  -30.3049   24.6061 C   0  0  0  0  0  0
  -27.6054  -32.4316   25.7455 C   0  0  0  0  0  0
  -27.5609  -37.1764   24.8430 C   0  0  0  0  0  0
  -21.4117  -29.3012   22.3749 N   0  0  0  0  0  0
  -26.4256  -37.3829   23.9474 N   0  0  0  0  0  0
  -24.6595  -31.0840   22.1017 N   0  0  0  0  0  0
  -23.4181  -28.8227   23.3045 O   0  0  0  0  0  0
  -28.3757  -26.6782   20.0190 O   0  0  0  0  0  0
  -26.5580  -34.8946   22.4702 O   0  0  0  0  0  0
  -23.5288  -32.1452   23.7539 O   0  0  0  0  0  0
  -29.9781  -22.1113   20.1550 C   0  0  0  0  0  0
  -30.1793  -20.7609   20.4917 C   0  0  0  0  0  0
  -30.4747  -22.7538   22.4381 C   0  0  0  0  0  0
  -30.6972  -21.3977   22.7857 C   0  0  0  0  0  0
  -30.1106  -23.1231   21.1206 C   0  0  0  0  0  0
  -30.5372  -20.3808   21.8093 C   0  0  0  0  0  0
  -32.0942  -17.0942   21.8061 C   0  0  0  0  0  0
  -29.8585  -17.4321   20.5674 C   0  0  0  0  0  0
  -31.4115  -15.8868   22.4976 C   0  0  0  0  0  0
  -29.3297  -16.2379   21.3929 C   0  0  0  0  0  0
  -31.1089  -18.1113   21.1856 C   0  0  0  0  0  0
  -30.4293  -21.7480   25.3157 C   0  0  0  0  0  0
  -32.7134  -21.3268   24.2889 C   0  0  0  0  0  0
  -29.4199  -26.7836   20.9891 C   0  0  0  0  0  0
  -29.6247  -25.4200   21.6732 C   0  0  0  0  0  0
  -31.2060  -21.0483   24.1866 C   0  0  0  0  0  0
  -30.4041  -15.2625   21.6233 N   0  0  0  0  0  0
  -30.7471  -19.0645   22.1854 O   0  0  0  0  0  0
  -29.9093  -24.4206   20.6957 O   0  0  0  0  0  0
  -31.4509  -12.3498   19.1305 H   0  0  0  0  0  0
  -30.2671  -11.2800   19.8091 H   0  0  0  0  0  0
  -29.7360  -11.8300   17.4041 H   0  0  0  0  0  0
  -29.6544  -13.5279   17.8067 H   0  0  0  0  0  0
  -27.8282  -11.3094   18.8028 H   0  0  0  0  0  0
  -27.3597  -12.6425   17.7841 H   0  0  0  0  0  0
  -27.6954  -14.2420   19.5548 H   0  0  0  0  0  0
  -28.6621  -11.9677   21.3642 H   0  0  0  0  0  0
  -28.4574  -13.6133   21.8664 H   0  0  0  0  0  0
  -25.2757   -9.5683   22.4761 H   0  0  0  0  0  0
  -24.0005   -7.4624   22.7495 H   0  0  0  0  0  0
  -21.0824   -8.8754   19.8963 H   0  0  0  0  0  0
  -22.3685  -10.9656   19.6182 H   0  0  0  0  0  0
  -21.1962   -7.6140   23.9708 H   0  0  0  0  0  0
  -21.1491   -6.0515   25.9082 H   0  0  0  0  0  0
  -22.0597   -2.7591   23.2866 H   0  0  0  0  0  0
  -22.4092  -11.9869   22.4767 H   0  0  0  0  0  0
  -21.1125  -13.1270   22.2611 H   0  0  0  0  0  0
  -24.6736  -15.8460   20.5220 H   0  0  0  0  0  0
  -26.2909  -15.6185   20.0895 H   0  0  0  0  0  0
  -26.7081  -32.5580   23.1189 H   0  0  0  0  0  0
  -25.0093  -33.9805   25.0541 H   0  0  0  0  0  0
  -22.6817  -31.3077   21.4126 H   0  0  0  0  0  0
  -23.3805  -35.9561   23.3158 H   0  0  0  0  0  0
  -24.3631  -36.9044   22.2077 H   0  0  0  0  0  0
  -23.7107  -37.6426   23.6714 H   0  0  0  0  0  0
  -26.0211  -31.6099   20.5882 H   0  0  0  0  0  0
  -26.8103  -30.9086   21.9749 H   0  0  0  0  0  0
  -28.0866  -29.1853   21.1591 H   0  0  0  0  0  0
  -26.1038  -25.9884   19.0333 H   0  0  0  0  0  0
  -23.9932  -27.2831   19.0486 H   0  0  0  0  0  0
  -23.7133  -30.5981   19.4080 H   0  0  0  0  0  0
  -22.7317  -29.2411   19.8724 H   0  0  0  0  0  0
  -25.1247  -36.1962   25.0846 H   0  0  0  0  0  0
  -20.9938  -28.3180   24.1460 H   0  0  0  0  0  0
  -20.5636  -26.2242   23.3614 H   0  0  0  0  0  0
  -21.6630  -26.7415   22.1221 H   0  0  0  0  0  0
  -19.6908  -25.6280   21.1239 H   0  0  0  0  0  0
  -19.6726  -27.3186   20.6752 H   0  0  0  0  0  0
  -17.4211  -26.6704   21.3972 H   0  0  0  0  0  0
  -18.0285  -26.0048   22.8973 H   0  0  0  0  0  0
  -19.7928  -30.7244   24.2277 H   0  0  0  0  0  0
  -17.5009  -31.6266   24.5149 H   0  0  0  0  0  0
  -15.5334  -30.2981   23.7660 H   0  0  0  0  0  0
  -15.8658  -28.0835   22.7023 H   0  0  0  0  0  0
  -24.5855  -30.7141   25.7855 H   0  0  0  0  0  0
  -24.9003  -32.2922   26.5000 H   0  0  0  0  0  0
  -25.8102  -30.8867   27.0236 H   0  0  0  0  0  0
  -26.2743  -29.6834   24.1138 H   0  0  0  0  0  0
  -27.4030  -29.7247   25.4475 H   0  0  0  0  0  0
  -27.8568  -30.4349   23.9159 H   0  0  0  0  0  0
  -27.2712  -33.3646   26.2006 H   0  0  0  0  0  0
  -28.3865  -32.6825   25.0266 H   0  0  0  0  0  0
  -28.0711  -31.8455   26.5387 H   0  0  0  0  0  0
  -28.2488  -38.0196   24.7702 H   0  0  0  0  0  0
  -28.1249  -36.2763   24.5944 H   0  0  0  0  0  0
  -27.2409  -37.1010   25.8836 H   0  0  0  0  0  0
  -20.9260  -29.8734   21.6985 H   0  0  0  0  0  0
  -26.0145  -38.2872   24.1641 H   0  0  0  0  0  0
  -29.7130  -22.3701   19.1399 H   0  0  0  0  0  0
  -30.0581  -20.0325   19.7043 H   0  0  0  0  0  0
  -30.6297  -23.5095   23.1908 H   0  0  0  0  0  0
  -32.7490  -16.7277   21.0154 H   0  0  0  0  0  0
  -32.7632  -17.5978   22.5058 H   0  0  0  0  0  0
  -29.0559  -18.1565   20.4302 H   0  0  0  0  0  0
  -30.1129  -17.0804   19.5664 H   0  0  0  0  0  0
  -30.9398  -16.2101   23.4262 H   0  0  0  0  0  0
  -32.1609  -15.1496   22.7879 H   0  0  0  0  0  0
  -28.4819  -15.7884   20.8836 H   0  0  0  0  0  0
  -28.9396  -16.5872   22.3498 H   0  0  0  0  0  0
  -31.6685  -18.6253   20.4023 H   0  0  0  0  0  0
  -29.3671  -21.5061   25.2714 H   0  0  0  0  0  0
  -30.5294  -22.8319   25.2845 H   0  0  0  0  0  0
  -30.7974  -21.4238   26.2897 H   0  0  0  0  0  0
  -33.2639  -20.7730   23.5263 H   0  0  0  0  0  0
  -33.1071  -21.0251   25.2597 H   0  0  0  0  0  0
  -32.9357  -22.3857   24.1535 H   0  0  0  0  0  0
  -30.3357  -27.0878   20.4817 H   0  0  0  0  0  0
  -29.2341  -27.5195   21.7686 H   0  0  0  0  0  0
  -28.7354  -25.1463   22.2434 H   0  0  0  0  0  0
  -30.4551  -25.5148   22.3727 H   0  0  0  0  0  0
  -31.0684  -19.9791   24.3527 H   0  0  0  0  0  0
  1 25  1  0  0  0
  1 30  2  0  0  0
  1 87  1  0  0  0
  2  3  1  0  0  0
  2 25  1  0  0  0
  2 90  1  0  0  0
  2 91  1  0  0  0
  3  4  1  0  0  0
  3 92  1  0  0  0
  3 93  1  0  0  0
  4  5  1  0  0  0
  4 94  1  0  0  0
  4 95  1  0  0  0
  5  6  1  0  0  0
  5 26  1  0  0  0
  5 96  1  0  0  0
  6 25  1  0  0  0
  6 97  1  0  0  0
  6 98  1  0  0  0
  7  8  2  0  0  0
  7 26  1  0  0  0
  7 29  1  0  0  0
  8  9  1  0  0  0
  8 22  1  0  0  0
  9 10  1  0  0  0
  9 27  2  0  0  0
 10 11  2  0  0  0
 10 15  1  0  0  0
 11 12  1  0  0  0
 11 99  1  0  0  0
 12 13  2  0  0  0
 12100  1  0  0  0
 13 14  1  0  0  0
 13 31  1  0  0  0
 14 15  2  0  0  0
 14101  1  0  0  0
 15102  1  0  0  0
 16 17  2  0  0  0
 16 21  1  0  0  0
 16 31  1  0  0  0
 17 18  1  0  0  0
 17103  1  0  0  0
 18 19  2  0  0  0
 18104  1  0  0  0
 19 20  1  0  0  0
 19 24  1  0  0  0
 20 21  2  0  0  0
 20105  1  0  0  0
 21 23  1  0  0  0
 22 28  1  0  0  0
 22 32  2  0  0  0
 26 27  1  0  0  0
 28106  1  0  0  0
 28107  1  0  0  0
 29108  1  0  0  0
 29109  1  0  0  0
 33 34  1  0  0  0
 33 66  1  0  0  0
 33 70  2  0  0  0
 34 36  1  0  0  0
 34 59  1  0  0  0
 34110  1  0  0  0
 35 44  2  0  0  0
 35 45  1  0  0  0
 35 68  1  0  0  0
 36 56  1  0  0  0
 36111  1  0  0  0
 37 39  1  0  0  0
 37 47  1  0  0  0
 37 66  1  0  0  0
 37112  1  0  0  0
 38 43  2  0  0  0
 38 46  1  0  0  0
 38 47  1  0  0  0
 39 64  1  0  0  0
 39 67  2  0  0  0
 40 52  1  0  0  0
 40 53  2  0  0  0
 40 58  1  0  0  0
 41113  1  0  0  0
 41114  1  0  0  0
 41115  1  0  0  0
 41 48  1  0  0  0
 42 43  1  0  0  0
 42 66  1  0  0  0
 42116  1  0  0  0
 42117  1  0  0  0
 43 44  1  0  0  0
 44118  1  0  0  0
 45 46  2  0  0  0
 45119  1  0  0  0
 46120  1  0  0  0
 47121  1  0  0  0
 47122  1  0  0  0
 48 56  1  0  0  0
 48 65  1  0  0  0
 48123  1  0  0  0
 49 50  1  0  0  0
 49 53  1  0  0  0
 49 64  1  0  0  0
 49124  1  0  0  0
 50 51  1  0  0  0
 50125  1  0  0  0
 50126  1  0  0  0
 51 52  1  0  0  0
 51127  1  0  0  0
 51128  1  0  0  0
 52129  1  0  0  0
 52130  1  0  0  0
 53 54  1  0  0  0
 54 55  2  0  0  0
 54131  1  0  0  0
 55 57  1  0  0  0
 55132  1  0  0  0
 56 69  2  0  0  0
 57 58  2  0  0  0
 57133  1  0  0  0
 58134  1  0  0  0
 59 60  1  0  0  0
 59 61  1  0  0  0
 59 62  1  0  0  0
 60135  1  0  0  0
 60136  1  0  0  0
 60137  1  0  0  0
 61138  1  0  0  0
 61139  1  0  0  0
 61140  1  0  0  0
 62141  1  0  0  0
 62142  1  0  0  0
 62143  1  0  0  0
 63 65  1  0  0  0
 63144  1  0  0  0
 63145  1  0  0  0
 63146  1  0  0  0
 64147  1  0  0  0
 65148  1  0  0  0
 68 84  1  0  0  0
 71 72  2  0  0  0
 71 75  1  0  0  0
 71149  1  0  0  0
 72 76  1  0  0  0
 72150  1  0  0  0
 73 74  1  0  0  0
 73 75  2  0  0  0
 73151  1  0  0  0
 74 76  2  0  0  0
 74 86  1  0  0  0
 75 89  1  0  0  0
 76 88  1  0  0  0
 77 79  1  0  0  0
 77 81  1  0  0  0
 77152  1  0  0  0
 77153  1  0  0  0
 78 80  1  0  0  0
 78 81  1  0  0  0
 78154  1  0  0  0
 78155  1  0  0  0
 79 87  1  0  0  0
 79156  1  0  0  0
 79157  1  0  0  0
 80 87  1  0  0  0
 80158  1  0  0  0
 80159  1  0  0  0
 81 88  1  0  0  0
 81160  1  0  0  0
 82161  1  0  0  0
 82162  1  0  0  0
 82163  1  0  0  0
 82 86  1  0  0  0
 83 86  1  0  0  0
 83164  1  0  0  0
 83165  1  0  0  0
 83166  1  0  0  0
 84 85  1  0  0  0
 84167  1  0  0  0
 84168  1  0  0  0
 85 89  1  0  0  0
 85169  1  0  0  0
 85170  1  0  0  0
 86171  1  0  0  0
M  ISO  4   1 100  68 101  84 101  87 100
M  END
> <chiral flag>
0

> <version>
0

> <s_m_source_file>
/data/baiqing/PycharmProjects/Reinvent-master-3.2/result/LINK_invent/BTK/process_docking_weight1_custom_sum_contain_oxygen_bond_distance_aromatic_linkinvent_7_9_3/rearranged_h_0151.sdf

> <i_m_source_file_index>
72

> <r_mmod_Potential_Energy-OPLS-2005>
162.378341674805

> <r_mmod_Stretch_Energy-OPLS-2005>
39.4698829650879

> <r_mmod_Bend_Energy-OPLS-2005>
125.06135559082

> <r_mmod_Torsional_Energy-OPLS-2005>
314.453674316406

> <r_mmod_Improper_Torsional_Energy-OPLS-2005>
6.25852727890015

> <r_mmod_Van_der_Waal_Energy-OPLS-2005>
172.31640625

> <r_mmod_Electrostatic_Energy-OPLS-2005>
-299.732299804688

> <r_mmod_Solvation_Energy-OPLS-2005>
-203.920471191406

> <b_mmod_Minimization_Converged-OPLS-2005>
0

> <r_mmod_RMS_Derivative-OPLS-2005>
2.15201616287231

$$$$
72
                    3D
 Structure written by MMmdl.
168177  0  0  1  0            999 V2000
  -30.6638  -14.7726   20.5583 C   0  0  0  0  0  0
  -30.4312  -12.4916   19.5049 C   0  0  0  0  0  0
  -29.5204  -12.5418   18.2555 C   0  0  0  0  0  0
  -28.0505  -12.3322   18.6562 C   0  0  0  0  0  0
  -27.6417  -13.2355   19.8462 C   0  0  2  0  0  0
  -28.6764  -13.1767   20.9905 C   0  0  0  0  0  0
  -25.2403  -13.8096   20.5607 C   0  0  0  0  0  0
  -24.1756  -13.0337   20.9162 C   0  0  0  0  0  0
  -24.6412  -11.6840   20.8693 C   0  0  0  0  0  0
  -23.9098  -10.4228   21.0377 C   0  0  0  0  0  0
  -24.3652   -9.4168   21.9179 C   0  0  0  0  0  0
  -23.6321   -8.2217   22.0773 C   0  0  0  0  0  0
  -22.4300   -8.0263   21.3546 C   0  0  0  0  0  0
  -21.9919   -9.0235   20.4653 C   0  0  0  0  0  0
  -22.7259  -10.2103   20.3045 C   0  0  0  0  0  0
  -21.6861   -6.0746   22.5297 C   0  0  0  0  0  0
  -21.4005   -6.5652   23.8235 C   0  0  0  0  0  0
  -21.3655   -5.6808   24.9197 C   0  0  0  0  0  0
  -21.6042   -4.3067   24.7245 C   0  0  0  0  0  0
  -21.8816   -3.8169   23.4361 C   0  0  0  0  0  0
  -21.9189   -4.6973   22.3421 C   0  0  0  0  0  0
  -22.7801  -13.5120   21.1901 C   0  0  0  0  0  0
  -22.1670   -4.2169   21.1002 F   0  0  0  0  0  0
  -21.5623   -3.4555   25.7752 F   0  0  0  0  0  0
  -29.9963  -13.5561   20.4533 N   0  0  0  0  0  0
  -26.2911  -12.9384   20.3194 N   0  0  0  0  0  0
  -25.9332  -11.6523   20.5665 N   0  0  0  0  0  0
  -22.0502  -12.8087   22.0479 N   0  0  0  0  0  0
  -25.3847  -15.1801   20.3995 N   0  0  0  0  0  0
  -31.7696  -14.8881   20.0195 O   0  0  0  0  0  0
  -21.6647   -6.8877   21.4267 O   0  0  0  0  0  0
  -22.3455  -14.5434   20.6782 O   0  0  0  0  0  0
  -24.6334  -31.8520   23.1977 C   0  0  0  0  0  0
  -25.9140  -32.4738   23.8330 C   0  0  1  0  0  0
  -27.2244  -27.2288   20.1499 C   0  0  0  0  0  0
  -25.5929  -33.8545   24.2244 N   0  0  0  0  0  0
  -23.4329  -30.4730   21.5416 C   0  0  2  0  0  0
  -24.8855  -28.9103   20.1198 C   0  0  0  0  0  0
  -22.7517  -29.4580   22.4902 C   0  0  0  0  0  0
  -18.0296  -28.1391   22.8472 C   0  0  0  0  0  0
  -24.1482  -36.7286   23.2633 C   0  0  0  0  0  0
  -25.9795  -30.7552   21.3851 C   0  0  0  0  0  0
  -26.0561  -29.3685   20.7403 C   0  0  0  0  0  0
  -27.2293  -28.5406   20.7456 C   0  0  0  0  0  0
  -26.0412  -26.8567   19.4812 C   0  0  0  0  0  0
  -24.8831  -27.6626   19.4763 C   0  0  0  0  0  0
  -23.6584  -29.8038   20.1593 C   0  0  0  0  0  0
  -25.4108  -36.3063   24.0313 C   0  0  1  0  0  0
  -20.5903  -28.3685   23.1272 C   0  0  2  0  0  0
  -20.6794  -26.9409   22.5431 C   0  0  0  0  0  0
  -19.5762  -26.6389   21.5224 C   0  0  0  0  0  0
  -18.1946  -26.7924   22.1625 C   0  0  0  0  0  0
  -19.1550  -28.8869   23.2862 C   0  0  0  0  0  0
  -18.9465  -30.1467   23.8888 C   0  0  0  0  0  0
  -17.6453  -30.6584   24.0571 C   0  0  0  0  0  0
  -25.9069  -34.9435   23.5084 C   0  0  0  0  0  0
  -16.5358  -29.9086   23.6322 C   0  0  0  0  0  0
  -16.7282  -28.6506   23.0325 C   0  0  0  0  0  0
  -26.4515  -31.6571   25.0721 C   0  0  0  0  0  0
  -25.3734  -31.3723   26.1437 C   0  0  0  0  0  0
  -27.0366  -30.2981   24.6224 C   0  0  0  0  0  0
  -27.6069  -32.4308   25.7498 C   0  0  0  0  0  0
  -27.5563  -37.1794   24.8463 C   0  0  0  0  0  0
  -21.4222  -29.3039   22.3654 N   0  0  0  0  0  0
  -26.4279  -37.3760   23.9408 N   0  0  0  0  0  0
  -24.7010  -31.0467   22.0975 N   0  0  0  0  0  0
  -23.4202  -28.8123   23.3015 O   0  0  0  0  0  0
  -28.3297  -26.3415   20.0795 O   0  0  0  0  0  0
  -26.5636  -34.8899   22.4651 O   0  0  0  0  0  0
  -23.5480  -32.1358   23.7246 O   0  0  0  0  0  0
  -27.0486  -23.2701   19.7331 C   0  0  0  0  0  0
  -26.7339  -21.9880   19.2447 C   0  0  0  0  0  0
  -28.2742  -23.5684   20.3520 C   0  0  0  0  0  0
  -27.6282  -20.8975   19.3910 C   0  0  0  0  0  0
  -29.1687  -22.4136   20.5542 C   0  0  0  0  0  0
  -28.8676  -21.0502   20.0810 C   0  0  0  0  0  0
  -28.2615  -16.5941   22.5051 C   0  0  0  0  0  0
  -28.0837  -17.0992   21.0674 C   0  0  0  0  0  0
  -29.6485  -15.9347   22.5248 C   0  0  0  0  0  0
  -29.5024  -17.2149   20.5165 C   0  0  1  0  0  0
  -25.4030  -21.8107   18.5236 C   0  0  0  0  0  0
  -27.2416  -19.5790   18.7168 C   0  0  0  0  0  0
  -30.4926  -22.6463   21.2665 C   0  0  0  0  0  0
  -28.4355  -25.0787   20.9101 C   0  0  0  0  0  0
  -30.0108  -18.7140   20.9560 C   0  0  0  0  0  0
  -30.0542  -15.9047   21.1229 N   0  0  0  0  0  0
  -29.7881  -19.9170   20.0376 N   0  0  0  0  0  0
  -31.4775  -12.5989   19.2136 H   0  0  0  0  0  0
  -30.3625  -11.5126   19.9810 H   0  0  0  0  0  0
  -29.8232  -11.7813   17.5337 H   0  0  0  0  0  0
  -29.6351  -13.5080   17.7603 H   0  0  0  0  0  0
  -27.9341  -11.2821   18.9256 H   0  0  0  0  0  0
  -27.3929  -12.5016   17.8023 H   0  0  0  0  0  0
  -27.6301  -14.2554   19.4630 H   0  0  0  0  0  0
  -28.7096  -12.1805   21.4291 H   0  0  0  0  0  0
  -28.3382  -13.8313   21.7851 H   0  0  0  0  0  0
  -25.2796   -9.5662   22.4755 H   0  0  0  0  0  0
  -24.0047   -7.4612   22.7488 H   0  0  0  0  0  0
  -21.0853   -8.8726   19.8955 H   0  0  0  0  0  0
  -22.3710  -10.9645   19.6159 H   0  0  0  0  0  0
  -21.1996   -7.6168   23.9722 H   0  0  0  0  0  0
  -21.1485   -6.0556   25.9093 H   0  0  0  0  0  0
  -22.0592   -2.7630   23.2869 H   0  0  0  0  0  0
  -22.4183  -11.9693   22.4699 H   0  0  0  0  0  0
  -21.1148  -13.1100   22.2801 H   0  0  0  0  0  0
  -24.6231  -15.8320   20.5474 H   0  0  0  0  0  0
  -26.2326  -15.6227   20.0818 H   0  0  0  0  0  0
  -26.7190  -32.5399   23.1061 H   0  0  0  0  0  0
  -25.0043  -33.9693   25.0365 H   0  0  0  0  0  0
  -22.7285  -31.2957   21.3904 H   0  0  0  0  0  0
  -23.3733  -35.9634   23.3317 H   0  0  0  0  0  0
  -24.3570  -36.8908   22.2050 H   0  0  0  0  0  0
  -23.7275  -37.6495   23.6662 H   0  0  0  0  0  0
  -26.1142  -31.5082   20.6076 H   0  0  0  0  0  0
  -26.8598  -30.8182   22.0127 H   0  0  0  0  0  0
  -28.1312  -28.8938   21.2269 H   0  0  0  0  0  0
  -26.0102  -25.9329   18.9273 H   0  0  0  0  0  0
  -23.9980  -27.3241   18.9533 H   0  0  0  0  0  0
  -23.7854  -30.5794   19.4029 H   0  0  0  0  0  0
  -22.7778  -29.2392   19.8479 H   0  0  0  0  0  0
  -25.1300  -36.1891   25.0806 H   0  0  0  0  0  0
  -20.9970  -28.3273   24.1407 H   0  0  0  0  0  0
  -20.5678  -26.2289   23.3625 H   0  0  0  0  0  0
  -21.6671  -26.7407   22.1251 H   0  0  0  0  0  0
  -19.6928  -25.6286   21.1267 H   0  0  0  0  0  0
  -19.6710  -27.3189   20.6742 H   0  0  0  0  0  0
  -17.4202  -26.6599   21.4047 H   0  0  0  0  0  0
  -18.0361  -26.0077   22.9036 H   0  0  0  0  0  0
  -19.7934  -30.7274   24.2285 H   0  0  0  0  0  0
  -17.5004  -31.6250   24.5190 H   0  0  0  0  0  0
  -15.5359  -30.2969   23.7657 H   0  0  0  0  0  0
  -15.8681  -28.0837   22.7019 H   0  0  0  0  0  0
  -24.5882  -30.7115   25.7741 H   0  0  0  0  0  0
  -24.8961  -32.2898   26.4878 H   0  0  0  0  0  0
  -25.8044  -30.8856   27.0200 H   0  0  0  0  0  0
  -26.2954  -29.6714   24.1245 H   0  0  0  0  0  0
  -27.4034  -29.7260   25.4762 H   0  0  0  0  0  0
  -27.8846  -30.4246   23.9489 H   0  0  0  0  0  0
  -27.2671  -33.3594   26.2089 H   0  0  0  0  0  0
  -28.3876  -32.6891   25.0332 H   0  0  0  0  0  0
  -28.0735  -31.8423   26.5405 H   0  0  0  0  0  0
  -28.2584  -38.0081   24.7482 H   0  0  0  0  0  0
  -28.1059  -36.2617   24.6326 H   0  0  0  0  0  0
  -27.2283  -37.1489   25.8864 H   0  0  0  0  0  0
  -20.9409  -29.8711   21.6810 H   0  0  0  0  0  0
  -26.0155  -38.2829   24.1407 H   0  0  0  0  0  0
  -26.3135  -24.0511   19.6416 H   0  0  0  0  0  0
  -27.4716  -15.8968   22.7846 H   0  0  0  0  0  0
  -28.2327  -17.4233   23.2149 H   0  0  0  0  0  0
  -27.4959  -18.0159   21.0254 H   0  0  0  0  0  0
  -27.5766  -16.3541   20.4695 H   0  0  0  0  0  0
  -30.3577  -16.5611   23.0674 H   0  0  0  0  0  0
  -29.6538  -14.9620   23.0196 H   0  0  0  0  0  0
  -29.5191  -17.1246   19.4290 H   0  0  0  0  0  0
  -24.8474  -22.7470   18.4659 H   0  0  0  0  0  0
  -24.7691  -21.0905   19.0418 H   0  0  0  0  0  0
  -25.5621  -21.4664   17.5000 H   0  0  0  0  0  0
  -26.2233  -19.2818   18.9727 H   0  0  0  0  0  0
  -27.8748  -18.7373   18.9651 H   0  0  0  0  0  0
  -27.2993  -19.6917   17.6355 H   0  0  0  0  0  0
  -30.3482  -23.2184   22.1812 H   0  0  0  0  0  0
  -31.1837  -23.1895   20.6209 H   0  0  0  0  0  0
  -30.9676  -21.7074   21.5501 H   0  0  0  0  0  0
  -29.4131  -25.1488   21.3819 H   0  0  0  0  0  0
  -27.7203  -25.1718   21.7279 H   0  0  0  0  0  0
  -31.0916  -18.6544   21.1010 H   0  0  0  0  0  0
  -29.6173  -18.9597   21.9419 H   0  0  0  0  0  0
  -29.9045  -19.6236   19.0739 H   0  0  0  0  0  0
  1 25  1  0  0  0
  1 30  2  0  0  0
  1 86  1  0  0  0
  2  3  1  0  0  0
  2 25  1  0  0  0
  2 88  1  0  0  0
  2 89  1  0  0  0
  3  4  1  0  0  0
  3 90  1  0  0  0
  3 91  1  0  0  0
  4  5  1  0  0  0
  4 92  1  0  0  0
  4 93  1  0  0  0
  5  6  1  0  0  0
  5 26  1  0  0  0
  5 94  1  0  0  0
  6 25  1  0  0  0
  6 95  1  0  0  0
  6 96  1  0  0  0
  7  8  2  0  0  0
  7 26  1  0  0  0
  7 29  1  0  0  0
  8  9  1  0  0  0
  8 22  1  0  0  0
  9 10  1  0  0  0
  9 27  2  0  0  0
 10 11  2  0  0  0
 10 15  1  0  0  0
 11 12  1  0  0  0
 11 97  1  0  0  0
 12 13  2  0  0  0
 12 98  1  0  0  0
 13 14  1  0  0  0
 13 31  1  0  0  0
 14 15  2  0  0  0
 14 99  1  0  0  0
 15100  1  0  0  0
 16 17  2  0  0  0
 16 21  1  0  0  0
 16 31  1  0  0  0
 17 18  1  0  0  0
 17101  1  0  0  0
 18 19  2  0  0  0
 18102  1  0  0  0
 19 20  1  0  0  0
 19 24  1  0  0  0
 20 21  2  0  0  0
 20103  1  0  0  0
 21 23  1  0  0  0
 22 28  1  0  0  0
 22 32  2  0  0  0
 26 27  1  0  0  0
 28104  1  0  0  0
 28105  1  0  0  0
 29106  1  0  0  0
 29107  1  0  0  0
 33 34  1  0  0  0
 33 66  1  0  0  0
 33 70  2  0  0  0
 34 36  1  0  0  0
 34 59  1  0  0  0
 34108  1  0  0  0
 35 44  2  0  0  0
 35 45  1  0  0  0
 35 68  1  0  0  0
 36 56  1  0  0  0
 36109  1  0  0  0
 37 39  1  0  0  0
 37 47  1  0  0  0
 37 66  1  0  0  0
 37110  1  0  0  0
 38 43  2  0  0  0
 38 46  1  0  0  0
 38 47  1  0  0  0
 39 64  1  0  0  0
 39 67  2  0  0  0
 40 52  1  0  0  0
 40 53  2  0  0  0
 40 58  1  0  0  0
 41111  1  0  0  0
 41112  1  0  0  0
 41113  1  0  0  0
 41 48  1  0  0  0
 42 43  1  0  0  0
 42 66  1  0  0  0
 42114  1  0  0  0
 42115  1  0  0  0
 43 44  1  0  0  0
 44116  1  0  0  0
 45 46  2  0  0  0
 45117  1  0  0  0
 46118  1  0  0  0
 47119  1  0  0  0
 47120  1  0  0  0
 48 56  1  0  0  0
 48 65  1  0  0  0
 48121  1  0  0  0
 49 50  1  0  0  0
 49 53  1  0  0  0
 49 64  1  0  0  0
 49122  1  0  0  0
 50 51  1  0  0  0
 50123  1  0  0  0
 50124  1  0  0  0
 51 52  1  0  0  0
 51125  1  0  0  0
 51126  1  0  0  0
 52127  1  0  0  0
 52128  1  0  0  0
 53 54  1  0  0  0
 54 55  2  0  0  0
 54129  1  0  0  0
 55 57  1  0  0  0
 55130  1  0  0  0
 56 69  2  0  0  0
 57 58  2  0  0  0
 57131  1  0  0  0
 58132  1  0  0  0
 59 60  1  0  0  0
 59 61  1  0  0  0
 59 62  1  0  0  0
 60133  1  0  0  0
 60134  1  0  0  0
 60135  1  0  0  0
 61136  1  0  0  0
 61137  1  0  0  0
 61138  1  0  0  0
 62139  1  0  0  0
 62140  1  0  0  0
 62141  1  0  0  0
 63 65  1  0  0  0
 63142  1  0  0  0
 63143  1  0  0  0
 63144  1  0  0  0
 64145  1  0  0  0
 65146  1  0  0  0
 68 84  1  0  0  0
 71 72  2  0  0  0
 71 73  1  0  0  0
 71147  1  0  0  0
 72 74  1  0  0  0
 72 81  1  0  0  0
 73 75  2  0  0  0
 73 84  1  0  0  0
 74 76  2  0  0  0
 74 82  1  0  0  0
 75 76  1  0  0  0
 75 83  1  0  0  0
 76 87  1  0  0  0
 77 78  1  0  0  0
 77 79  1  0  0  0
 77148  1  0  0  0
 77149  1  0  0  0
 78 80  1  0  0  0
 78150  1  0  0  0
 78151  1  0  0  0
 79 86  1  0  0  0
 79152  1  0  0  0
 79153  1  0  0  0
 80 85  1  0  0  0
 80 86  1  0  0  0
 80154  1  0  0  0
 81155  1  0  0  0
 81156  1  0  0  0
 81157  1  0  0  0
 82158  1  0  0  0
 82159  1  0  0  0
 82160  1  0  0  0
 83161  1  0  0  0
 83162  1  0  0  0
 83163  1  0  0  0
 84164  1  0  0  0
 84165  1  0  0  0
 85 87  1  0  0  0
 85166  1  0  0  0
 85167  1  0  0  0
 87168  1  0  0  0
M  ISO  4   1 100  68 101  84 101  86 100
M  END
> <chiral flag>
0

> <version>
0

> <s_m_source_file>
/data/baiqing/PycharmProjects/Reinvent-master-3.2/result/LINK_invent/BTK/process_docking_weight1_custom_sum_contain_oxygen_bond_distance_aromatic_linkinvent_7_9_3/rearranged_h_0151.sdf

> <i_m_source_file_index>
73

> <r_mmod_Potential_Energy-OPLS-2005>
561.214599609375

> <r_mmod_Stretch_Energy-OPLS-2005>
162.170639038086

> <r_mmod_Bend_Energy-OPLS-2005>
278.847717285156

> <r_mmod_Torsional_Energy-OPLS-2005>
433.55615234375

> <r_mmod_Improper_Torsional_Energy-OPLS-2005>
8.82051658630371

> <r_mmod_Van_der_Waal_Energy-OPLS-2005>
138.253433227539

> <r_mmod_Electrostatic_Energy-OPLS-2005>
-353.384307861328

> <r_mmod_Solvation_Energy-OPLS-2005>
-201.196838378906

> <b_mmod_Minimization_Converged-OPLS-2005>
0

> <r_mmod_RMS_Derivative-OPLS-2005>
4.18678617477417

$$$$
73
                    3D
 Structure written by MMmdl.
155164  0  0  1  0            999 V2000
  -30.6576  -14.6517   20.4584 C   0  0  0  0  0  0
  -30.4198  -12.3942   19.4638 C   0  0  0  0  0  0
  -29.5057  -12.4995   18.2248 C   0  0  0  0  0  0
  -28.0277  -12.3437   18.6333 C   0  0  0  0  0  0
  -27.6450  -13.2287   19.8504 C   0  0  2  0  0  0
  -28.6889  -13.1371   20.9851 C   0  0  0  0  0  0
  -25.2538  -13.8196   20.5686 C   0  0  0  0  0  0
  -24.1815  -13.0449   20.9187 C   0  0  0  0  0  0
  -24.6393  -11.6921   20.8722 C   0  0  0  0  0  0
  -23.9069  -10.4297   21.0393 C   0  0  0  0  0  0
  -24.3620   -9.4215   21.9175 C   0  0  0  0  0  0
  -23.6296   -8.2247   22.0744 C   0  0  0  0  0  0
  -22.4279   -8.0281   21.3537 C   0  0  0  0  0  0
  -21.9912   -9.0251   20.4636 C   0  0  0  0  0  0
  -22.7237  -10.2132   20.3044 C   0  0  0  0  0  0
  -21.6862   -6.0735   22.5272 C   0  0  0  0  0  0
  -21.4013   -6.5643   23.8204 C   0  0  0  0  0  0
  -21.3660   -5.6795   24.9169 C   0  0  0  0  0  0
  -21.6043   -4.3056   24.7218 C   0  0  0  0  0  0
  -21.8824   -3.8146   23.4342 C   0  0  0  0  0  0
  -21.9195   -4.6961   22.3399 C   0  0  0  0  0  0
  -22.7839  -13.5232   21.1849 C   0  0  0  0  0  0
  -22.1668   -4.2145   21.0975 F   0  0  0  0  0  0
  -21.5628   -3.4540   25.7732 F   0  0  0  0  0  0
  -29.9986  -13.4522   20.4049 N   0  0  0  0  0  0
  -26.2958  -12.9400   20.3270 N   0  0  0  0  0  0
  -25.9324  -11.6542   20.5722 N   0  0  0  0  0  0
  -22.0485  -12.8221   22.0405 N   0  0  0  0  0  0
  -25.4254  -15.1913   20.4105 N   0  0  0  0  0  0
  -31.8522  -14.7190   20.1615 O   0  0  0  0  0  0
  -21.6648   -6.8874   21.4232 O   0  0  0  0  0  0
  -22.3523  -14.5533   20.6691 O   0  0  0  0  0  0
  -24.6266  -31.8582   23.2035 C   0  0  0  0  0  0
  -25.9126  -32.4757   23.8359 C   0  0  1  0  0  0
  -27.2190  -27.3170   20.1300 C   0  0  0  0  0  0
  -25.5958  -33.8564   24.2293 N   0  0  0  0  0  0
  -23.4209  -30.4818   21.5439 C   0  0  2  0  0  0
  -24.8689  -28.9342   20.1124 C   0  0  0  0  0  0
  -22.7472  -29.4626   22.4937 C   0  0  0  0  0  0
  -18.0282  -28.1383   22.8482 C   0  0  0  0  0  0
  -24.1497  -36.7274   23.2641 C   0  0  0  0  0  0
  -25.9618  -30.7898   21.3745 C   0  0  0  0  0  0
  -26.0366  -29.4165   20.7186 C   0  0  0  0  0  0
  -27.2194  -28.6198   20.7160 C   0  0  0  0  0  0
  -26.0346  -26.8848   19.4993 C   0  0  0  0  0  0
  -24.8691  -27.6743   19.4929 C   0  0  0  0  0  0
  -23.6362  -29.8129   20.1607 C   0  0  0  0  0  0
  -25.4119  -36.3066   24.0336 C   0  0  1  0  0  0
  -20.5880  -28.3690   23.1284 C   0  0  2  0  0  0
  -20.6775  -26.9414   22.5413 C   0  0  0  0  0  0
  -19.5762  -26.6383   21.5214 C   0  0  0  0  0  0
  -18.1936  -26.7936   22.1608 C   0  0  0  0  0  0
  -19.1532  -28.8859   23.2877 C   0  0  0  0  0  0
  -18.9449  -30.1459   23.8897 C   0  0  0  0  0  0
  -17.6450  -30.6590   24.0558 C   0  0  0  0  0  0
  -25.9061  -34.9436   23.5108 C   0  0  0  0  0  0
  -16.5339  -29.9087   23.6337 C   0  0  0  0  0  0
  -16.7264  -28.6499   23.0366 C   0  0  0  0  0  0
  -26.4514  -31.6565   25.0723 C   0  0  0  0  0  0
  -25.3752  -31.3670   26.1447 C   0  0  0  0  0  0
  -27.0361  -30.2993   24.6183 C   0  0  0  0  0  0
  -27.6100  -32.4282   25.7474 C   0  0  0  0  0  0
  -27.5584  -37.1781   24.8457 C   0  0  0  0  0  0
  -21.4187  -29.3041   22.3672 N   0  0  0  0  0  0
  -26.4284  -37.3770   23.9421 N   0  0  0  0  0  0
  -24.6885  -31.0607   22.0974 N   0  0  0  0  0  0
  -23.4195  -28.8175   23.3028 O   0  0  0  0  0  0
  -28.3178  -26.4510   20.1524 O   0  0  0  0  0  0
  -26.5608  -34.8904   22.4659 O   0  0  0  0  0  0
  -23.5430  -32.1373   23.7370 O   0  0  0  0  0  0
  -29.0754  -18.9590   21.7081 C   0  0  0  0  0  0
  -28.6512  -20.3224   21.8154 C   0  0  0  0  0  0
  -29.4623  -20.8220   19.5933 C   0  0  0  0  0  0
  -29.7100  -18.5182   20.5278 C   0  0  0  0  0  0
  -29.8695  -19.4566   19.4947 C   0  0  0  0  0  0
  -28.8471  -21.2944   20.7872 C   0  0  0  0  0  0
  -30.5806  -18.8312   18.3231 C   0  0  0  0  0  0
  -30.7103  -17.3297   18.6926 C   0  0  0  0  0  0
  -30.4452  -17.1778   20.2167 C   0  0  2  0  0  0
  -28.1032  -25.1267   20.7856 C   0  0  0  0  0  0
  -28.6710  -23.7681   20.1630 C   0  0  0  0  0  0
  -29.9211  -15.8075   20.5793 N   0  0  0  0  0  0
  -28.4231  -22.6167   21.0388 O   0  0  0  0  0  0
  -31.4669  -12.4868   19.1705 H   0  0  0  0  0  0
  -30.3288  -11.4121   19.9292 H   0  0  0  0  0  0
  -29.7745  -11.7374   17.4919 H   0  0  0  0  0  0
  -29.6534  -13.4635   17.7343 H   0  0  0  0  0  0
  -27.8628  -11.2930   18.8734 H   0  0  0  0  0  0
  -27.3774  -12.5665   17.7865 H   0  0  0  0  0  0
  -27.6477  -14.2557   19.4849 H   0  0  0  0  0  0
  -28.7009  -12.1386   21.4235 H   0  0  0  0  0  0
  -28.4446  -13.8258   21.7954 H   0  0  0  0  0  0
  -25.2764   -9.5703   22.4757 H   0  0  0  0  0  0
  -24.0007   -7.4648   22.7474 H   0  0  0  0  0  0
  -21.0840   -8.8762   19.8952 H   0  0  0  0  0  0
  -22.3684  -10.9667   19.6154 H   0  0  0  0  0  0
  -21.2003   -7.6152   23.9706 H   0  0  0  0  0  0
  -21.1478   -6.0525   25.9072 H   0  0  0  0  0  0
  -22.0602   -2.7606   23.2840 H   0  0  0  0  0  0
  -22.4114  -11.9889   22.4784 H   0  0  0  0  0  0
  -21.1095  -13.1235   22.2597 H   0  0  0  0  0  0
  -24.6606  -15.8490   20.5163 H   0  0  0  0  0  0
  -26.2779  -15.6281   20.0839 H   0  0  0  0  0  0
  -26.7198  -32.5424   23.1115 H   0  0  0  0  0  0
  -25.0151  -33.9702   25.0473 H   0  0  0  0  0  0
  -22.7159  -31.3030   21.3989 H   0  0  0  0  0  0
  -23.3771  -35.9594   23.3265 H   0  0  0  0  0  0
  -24.3600  -36.8921   22.2063 H   0  0  0  0  0  0
  -23.7238  -37.6461   23.6680 H   0  0  0  0  0  0
  -26.0947  -31.5534   20.6071 H   0  0  0  0  0  0
  -26.8428  -30.8368   22.0033 H   0  0  0  0  0  0
  -28.1164  -28.9808   21.1989 H   0  0  0  0  0  0
  -26.0014  -25.9152   19.0221 H   0  0  0  0  0  0
  -23.9742  -27.3003   19.0145 H   0  0  0  0  0  0
  -23.7534  -30.5861   19.4012 H   0  0  0  0  0  0
  -22.7579  -29.2383   19.8588 H   0  0  0  0  0  0
  -25.1302  -36.1900   25.0828 H   0  0  0  0  0  0
  -20.9954  -28.3255   24.1415 H   0  0  0  0  0  0
  -20.5684  -26.2295   23.3607 H   0  0  0  0  0  0
  -21.6643  -26.7462   22.1200 H   0  0  0  0  0  0
  -19.6924  -25.6296   21.1248 H   0  0  0  0  0  0
  -19.6714  -27.3193   20.6743 H   0  0  0  0  0  0
  -17.4213  -26.6696   21.3999 H   0  0  0  0  0  0
  -18.0321  -26.0071   22.8991 H   0  0  0  0  0  0
  -19.7924  -30.7274   24.2273 H   0  0  0  0  0  0
  -17.5006  -31.6282   24.5146 H   0  0  0  0  0  0
  -15.5342  -30.2989   23.7687 H   0  0  0  0  0  0
  -15.8653  -28.0820   22.7106 H   0  0  0  0  0  0
  -24.6006  -30.6925   25.7772 H   0  0  0  0  0  0
  -24.8848  -32.2799   26.4834 H   0  0  0  0  0  0
  -25.8104  -30.8901   27.0239 H   0  0  0  0  0  0
  -26.2921  -29.6717   24.1269 H   0  0  0  0  0  0
  -27.4108  -29.7286   25.4689 H   0  0  0  0  0  0
  -27.8773  -30.4267   23.9369 H   0  0  0  0  0  0
  -27.2769  -33.3615   26.2023 H   0  0  0  0  0  0
  -28.3929  -32.6770   25.0295 H   0  0  0  0  0  0
  -28.0753  -31.8405   26.5397 H   0  0  0  0  0  0
  -28.2564  -38.0113   24.7557 H   0  0  0  0  0  0
  -28.1108  -36.2650   24.6211 H   0  0  0  0  0  0
  -27.2303  -37.1326   25.8853 H   0  0  0  0  0  0
  -20.9373  -29.8718   21.6837 H   0  0  0  0  0  0
  -26.0149  -38.2827   24.1459 H   0  0  0  0  0  0
  -28.9490  -18.2814   22.5411 H   0  0  0  0  0  0
  -28.1818  -20.6379   22.7361 H   0  0  0  0  0  0
  -29.6419  -21.4977   18.7692 H   0  0  0  0  0  0
  -31.5637  -19.2915   18.2146 H   0  0  0  0  0  0
  -30.0291  -18.9795   17.3937 H   0  0  0  0  0  0
  -31.6597  -16.8974   18.3744 H   0  0  0  0  0  0
  -29.9268  -16.7957   18.1531 H   0  0  0  0  0  0
  -31.4019  -17.2844   20.7313 H   0  0  0  0  0  0
  -28.5516  -25.2210   21.7755 H   0  0  0  0  0  0
  -27.0437  -24.9695   20.9907 H   0  0  0  0  0  0
  -29.7447  -23.8610   19.9954 H   0  0  0  0  0  0
  -28.2117  -23.5866   19.1906 H   0  0  0  0  0  0
  -28.9365  -15.7199   20.7778 H   0  0  0  0  0  0
  1 25  1  0  0  0
  1 30  2  0  0  0
  1 82  1  0  0  0
  2  3  1  0  0  0
  2 25  1  0  0  0
  2 84  1  0  0  0
  2 85  1  0  0  0
  3  4  1  0  0  0
  3 86  1  0  0  0
  3 87  1  0  0  0
  4  5  1  0  0  0
  4 88  1  0  0  0
  4 89  1  0  0  0
  5  6  1  0  0  0
  5 26  1  0  0  0
  5 90  1  0  0  0
  6 25  1  0  0  0
  6 91  1  0  0  0
  6 92  1  0  0  0
  7  8  2  0  0  0
  7 26  1  0  0  0
  7 29  1  0  0  0
  8  9  1  0  0  0
  8 22  1  0  0  0
  9 10  1  0  0  0
  9 27  2  0  0  0
 10 11  2  0  0  0
 10 15  1  0  0  0
 11 12  1  0  0  0
 11 93  1  0  0  0
 12 13  2  0  0  0
 12 94  1  0  0  0
 13 14  1  0  0  0
 13 31  1  0  0  0
 14 15  2  0  0  0
 14 95  1  0  0  0
 15 96  1  0  0  0
 16 17  2  0  0  0
 16 21  1  0  0  0
 16 31  1  0  0  0
 17 18  1  0  0  0
 17 97  1  0  0  0
 18 19  2  0  0  0
 18 98  1  0  0  0
 19 20  1  0  0  0
 19 24  1  0  0  0
 20 21  2  0  0  0
 20 99  1  0  0  0
 21 23  1  0  0  0
 22 28  1  0  0  0
 22 32  2  0  0  0
 26 27  1  0  0  0
 28100  1  0  0  0
 28101  1  0  0  0
 29102  1  0  0  0
 29103  1  0  0  0
 33 34  1  0  0  0
 33 66  1  0  0  0
 33 70  2  0  0  0
 34 36  1  0  0  0
 34 59  1  0  0  0
 34104  1  0  0  0
 35 44  2  0  0  0
 35 45  1  0  0  0
 35 68  1  0  0  0
 36 56  1  0  0  0
 36105  1  0  0  0
 37 39  1  0  0  0
 37 47  1  0  0  0
 37 66  1  0  0  0
 37106  1  0  0  0
 38 43  2  0  0  0
 38 46  1  0  0  0
 38 47  1  0  0  0
 39 64  1  0  0  0
 39 67  2  0  0  0
 40 52  1  0  0  0
 40 53  2  0  0  0
 40 58  1  0  0  0
 41107  1  0  0  0
 41108  1  0  0  0
 41109  1  0  0  0
 41 48  1  0  0  0
 42 43  1  0  0  0
 42 66  1  0  0  0
 42110  1  0  0  0
 42111  1  0  0  0
 43 44  1  0  0  0
 44112  1  0  0  0
 45 46  2  0  0  0
 45113  1  0  0  0
 46114  1  0  0  0
 47115  1  0  0  0
 47116  1  0  0  0
 48 56  1  0  0  0
 48 65  1  0  0  0
 48117  1  0  0  0
 49 50  1  0  0  0
 49 53  1  0  0  0
 49 64  1  0  0  0
 49118  1  0  0  0
 50 51  1  0  0  0
 50119  1  0  0  0
 50120  1  0  0  0
 51 52  1  0  0  0
 51121  1  0  0  0
 51122  1  0  0  0
 52123  1  0  0  0
 52124  1  0  0  0
 53 54  1  0  0  0
 54 55  2  0  0  0
 54125  1  0  0  0
 55 57  1  0  0  0
 55126  1  0  0  0
 56 69  2  0  0  0
 57 58  2  0  0  0
 57127  1  0  0  0
 58128  1  0  0  0
 59 60  1  0  0  0
 59 61  1  0  0  0
 59 62  1  0  0  0
 60129  1  0  0  0
 60130  1  0  0  0
 60131  1  0  0  0
 61132  1  0  0  0
 61133  1  0  0  0
 61134  1  0  0  0
 62135  1  0  0  0
 62136  1  0  0  0
 62137  1  0  0  0
 63 65  1  0  0  0
 63138  1  0  0  0
 63139  1  0  0  0
 63140  1  0  0  0
 64141  1  0  0  0
 65142  1  0  0  0
 68 80  1  0  0  0
 71 72  2  0  0  0
 71 74  1  0  0  0
 71143  1  0  0  0
 72 76  1  0  0  0
 72144  1  0  0  0
 73 75  1  0  0  0
 73 76  2  0  0  0
 73145  1  0  0  0
 74 75  2  0  0  0
 74 79  1  0  0  0
 75 77  1  0  0  0
 76 83  1  0  0  0
 77 78  1  0  0  0
 77146  1  0  0  0
 77147  1  0  0  0
 78 79  1  0  0  0
 78148  1  0  0  0
 78149  1  0  0  0
 79 82  1  0  0  0
 79150  1  0  0  0
 80 81  1  0  0  0
 80151  1  0  0  0
 80152  1  0  0  0
 81 83  1  0  0  0
 81153  1  0  0  0
 81154  1  0  0  0
 82155  1  0  0  0
M  ISO  4   1 100  68 101  80 101  82 100
M  END
> <chiral flag>
0

> <version>
0

> <s_m_source_file>
/data/baiqing/PycharmProjects/Reinvent-master-3.2/result/LINK_invent/BTK/process_docking_weight1_custom_sum_contain_oxygen_bond_distance_aromatic_linkinvent_7_9_3/rearranged_h_0151.sdf

> <i_m_source_file_index>
74

> <r_mmod_Potential_Energy-OPLS-2005>
84.5839462280273

> <r_mmod_Stretch_Energy-OPLS-2005>
77.5341415405273

> <r_mmod_Bend_Energy-OPLS-2005>
194.992935180664

> <r_mmod_Torsional_Energy-OPLS-2005>
232.002319335938

> <r_mmod_Improper_Torsional_Energy-OPLS-2005>
7.23947811126709

> <r_mmod_Van_der_Waal_Energy-OPLS-2005>
134.633163452148

> <r_mmod_Electrostatic_Energy-OPLS-2005>
-408.263305664062

> <r_mmod_Solvation_Energy-OPLS-2005>
-208.907348632812

> <b_mmod_Minimization_Converged-OPLS-2005>
0

> <r_mmod_RMS_Derivative-OPLS-2005>
1.76954221725464

$$$$
74
                    3D
 Structure written by MMmdl.
164172  0  0  1  0            999 V2000
  -30.6715  -14.6230   20.5050 C   0  0  0  0  0  0
  -30.4222  -12.3886   19.4481 C   0  0  0  0  0  0
  -29.4963  -12.4988   18.2189 C   0  0  0  0  0  0
  -28.0214  -12.3440   18.6355 C   0  0  0  0  0  0
  -27.6468  -13.2247   19.8577 C   0  0  2  0  0  0
  -28.6941  -13.1092   20.9869 C   0  0  0  0  0  0
  -25.2526  -13.8188   20.5703 C   0  0  0  0  0  0
  -24.1807  -13.0443   20.9204 C   0  0  0  0  0  0
  -24.6387  -11.6916   20.8746 C   0  0  0  0  0  0
  -23.9058  -10.4296   21.0404 C   0  0  0  0  0  0
  -24.3611   -9.4211   21.9180 C   0  0  0  0  0  0
  -23.6288   -8.2243   22.0750 C   0  0  0  0  0  0
  -22.4271   -8.0276   21.3539 C   0  0  0  0  0  0
  -21.9906   -9.0247   20.4641 C   0  0  0  0  0  0
  -22.7230  -10.2132   20.3050 C   0  0  0  0  0  0
  -21.6855   -6.0730   22.5276 C   0  0  0  0  0  0
  -21.4017   -6.5634   23.8207 C   0  0  0  0  0  0
  -21.3659   -5.6789   24.9170 C   0  0  0  0  0  0
  -21.6048   -4.3050   24.7224 C   0  0  0  0  0  0
  -21.8817   -3.8140   23.4342 C   0  0  0  0  0  0
  -21.9194   -4.6958   22.3399 C   0  0  0  0  0  0
  -22.7827  -13.5223   21.1864 C   0  0  0  0  0  0
  -22.1661   -4.2136   21.0976 F   0  0  0  0  0  0
  -21.5628   -3.4537   25.7737 F   0  0  0  0  0  0
  -30.0055  -13.4299   20.4083 N   0  0  0  0  0  0
  -26.2959  -12.9388   20.3323 N   0  0  0  0  0  0
  -25.9319  -11.6536   20.5768 N   0  0  0  0  0  0
  -22.0480  -12.8210   22.0423 N   0  0  0  0  0  0
  -25.4224  -15.1910   20.4111 N   0  0  0  0  0  0
  -31.8481  -14.7221   20.1504 O   0  0  0  0  0  0
  -21.6640   -6.8872   21.4232 O   0  0  0  0  0  0
  -22.3508  -14.5526   20.6709 O   0  0  0  0  0  0
  -24.6254  -31.8623   23.2048 C   0  0  0  0  0  0
  -25.9104  -32.4797   23.8374 C   0  0  1  0  0  0
  -27.2152  -27.3276   20.1165 C   0  0  0  0  0  0
  -25.5920  -33.8598   24.2294 N   0  0  0  0  0  0
  -23.4192  -30.4870   21.5479 C   0  0  2  0  0  0
  -24.8674  -28.9512   20.1077 C   0  0  0  0  0  0
  -22.7481  -29.4622   22.4937 C   0  0  0  0  0  0
  -18.0287  -28.1375   22.8484 C   0  0  0  0  0  0
  -24.1493  -36.7310   23.2639 C   0  0  0  0  0  0
  -25.9617  -30.7952   21.3775 C   0  0  0  0  0  0
  -26.0375  -29.4249   20.7173 C   0  0  0  0  0  0
  -27.2195  -28.6241   20.7144 C   0  0  0  0  0  0
  -26.0299  -26.9174   19.4685 C   0  0  0  0  0  0
  -24.8650  -27.7024   19.4722 C   0  0  0  0  0  0
  -23.6343  -29.8282   20.1610 C   0  0  0  0  0  0
  -25.4115  -36.3098   24.0327 C   0  0  1  0  0  0
  -20.5890  -28.3685   23.1280 C   0  0  2  0  0  0
  -20.6781  -26.9408   22.5405 C   0  0  0  0  0  0
  -19.5755  -26.6379   21.5209 C   0  0  0  0  0  0
  -18.1935  -26.7919   22.1621 C   0  0  0  0  0  0
  -19.1539  -28.8844   23.2879 C   0  0  0  0  0  0
  -18.9465  -30.1450   23.8892 C   0  0  0  0  0  0
  -17.6464  -30.6583   24.0554 C   0  0  0  0  0  0
  -25.9048  -34.9464   23.5111 C   0  0  0  0  0  0
  -16.5355  -29.9082   23.6325 C   0  0  0  0  0  0
  -16.7272  -28.6497   23.0347 C   0  0  0  0  0  0
  -26.4486  -31.6598   25.0741 C   0  0  0  0  0  0
  -25.3714  -31.3723   26.1458 C   0  0  0  0  0  0
  -27.0338  -30.3035   24.6184 C   0  0  0  0  0  0
  -27.6043  -32.4338   25.7508 C   0  0  0  0  0  0
  -27.5589  -37.1806   24.8460 C   0  0  0  0  0  0
  -21.4193  -29.3045   22.3686 N   0  0  0  0  0  0
  -26.4301  -37.3787   23.9407 N   0  0  0  0  0  0
  -24.6876  -31.0633   22.1008 N   0  0  0  0  0  0
  -23.4214  -28.8146   23.2994 O   0  0  0  0  0  0
  -28.2849  -26.4231   20.1657 O   0  0  0  0  0  0
  -26.5616  -34.8923   22.4678 O   0  0  0  0  0  0
  -23.5416  -32.1421   23.7373 O   0  0  0  0  0  0
  -29.6036  -23.3281   21.6009 C   0  0  0  0  0  0
  -28.6925  -23.7939   20.6255 C   0  0  0  0  0  0
  -30.0836  -21.9894   21.6296 C   0  0  0  0  0  0
  -28.3190  -22.8498   19.6177 C   0  0  0  0  0  0
  -28.7641  -21.4747   19.6629 C   0  0  0  0  0  0
  -29.6527  -21.0138   20.6855 C   0  0  0  0  0  0
  -31.0638  -21.6126   22.7322 C   0  0  0  0  0  0
  -27.4112  -23.3184   18.4876 C   0  0  0  0  0  0
  -28.2959  -20.4751   18.6087 C   0  0  0  0  0  0
  -30.8813  -17.2793   22.5235 C   0  0  0  0  0  0
  -27.9493  -25.1653   20.8692 C   0  0  0  0  0  0
  -29.5669  -18.3545   20.5879 C   0  0  0  0  0  0
  -30.4861  -17.1335   21.0425 C   0  0  2  0  0  0
  -30.2053  -19.6900   20.7930 N   0  0  0  0  0  0
  -29.9523  -15.7403   20.8392 N   0  0  0  0  0  0
  -31.4641  -12.4942   19.1414 H   0  0  0  0  0  0
  -30.3446  -11.4005   19.9043 H   0  0  0  0  0  0
  -29.7568  -11.7390   17.4811 H   0  0  0  0  0  0
  -29.6410  -13.4633   17.7302 H   0  0  0  0  0  0
  -27.8574  -11.2925   18.8739 H   0  0  0  0  0  0
  -27.3650  -12.5691   17.7941 H   0  0  0  0  0  0
  -27.6585  -14.2560   19.5045 H   0  0  0  0  0  0
  -28.7040  -12.1017   21.4049 H   0  0  0  0  0  0
  -28.4482  -13.7769   21.8138 H   0  0  0  0  0  0
  -25.2752   -9.5691   22.4760 H   0  0  0  0  0  0
  -23.9997   -7.4638   22.7469 H   0  0  0  0  0  0
  -21.0839   -8.8762   19.8947 H   0  0  0  0  0  0
  -22.3679  -10.9669   19.6162 H   0  0  0  0  0  0
  -21.2013   -7.6145   23.9703 H   0  0  0  0  0  0
  -21.1486   -6.0523   25.9072 H   0  0  0  0  0  0
  -22.0599   -2.7602   23.2847 H   0  0  0  0  0  0
  -22.4107  -11.9873   22.4808 H   0  0  0  0  0  0
  -21.1093  -13.1219   22.2630 H   0  0  0  0  0  0
  -24.6555  -15.8455   20.5217 H   0  0  0  0  0  0
  -26.2699  -15.6302   20.0759 H   0  0  0  0  0  0
  -26.7169  -32.5469   23.1122 H   0  0  0  0  0  0
  -25.0054  -33.9742   25.0431 H   0  0  0  0  0  0
  -22.7118  -31.3071   21.4083 H   0  0  0  0  0  0
  -23.3758  -35.9640   23.3294 H   0  0  0  0  0  0
  -24.3583  -36.8949   22.2057 H   0  0  0  0  0  0
  -23.7246  -37.6507   23.6669 H   0  0  0  0  0  0
  -26.0914  -31.5603   20.6108 H   0  0  0  0  0  0
  -26.8428  -30.8439   22.0056 H   0  0  0  0  0  0
  -28.1144  -28.9772   21.2073 H   0  0  0  0  0  0
  -25.9801  -25.9596   18.9757 H   0  0  0  0  0  0
  -23.9707  -27.3375   18.9853 H   0  0  0  0  0  0
  -23.7494  -30.6087   19.4082 H   0  0  0  0  0  0
  -22.7560  -29.2560   19.8573 H   0  0  0  0  0  0
  -25.1293  -36.1955   25.0818 H   0  0  0  0  0  0
  -20.9973  -28.3258   24.1403 H   0  0  0  0  0  0
  -20.5691  -26.2285   23.3602 H   0  0  0  0  0  0
  -21.6649  -26.7443   22.1193 H   0  0  0  0  0  0
  -19.6915  -25.6288   21.1243 H   0  0  0  0  0  0
  -19.6696  -27.3185   20.6735 H   0  0  0  0  0  0
  -17.4207  -26.6669   21.4025 H   0  0  0  0  0  0
  -18.0330  -26.0057   22.9012 H   0  0  0  0  0  0
  -19.7944  -30.7267   24.2265 H   0  0  0  0  0  0
  -17.5023  -31.6258   24.5164 H   0  0  0  0  0  0
  -15.5356  -30.2982   23.7657 H   0  0  0  0  0  0
  -15.8671  -28.0818   22.7060 H   0  0  0  0  0  0
  -24.5897  -30.7064   25.7780 H   0  0  0  0  0  0
  -24.8886  -32.2883   26.4875 H   0  0  0  0  0  0
  -25.8038  -30.8907   27.0240 H   0  0  0  0  0  0
  -26.2917  -29.6779   24.1213 H   0  0  0  0  0  0
  -27.4057  -29.7286   25.4675 H   0  0  0  0  0  0
  -27.8773  -30.4336   23.9400 H   0  0  0  0  0  0
  -27.2656  -33.3646   26.2063 H   0  0  0  0  0  0
  -28.3860  -32.6887   25.0341 H   0  0  0  0  0  0
  -28.0700  -31.8478   26.5442 H   0  0  0  0  0  0
  -28.2585  -38.0125   24.7534 H   0  0  0  0  0  0
  -28.1107  -36.2656   24.6255 H   0  0  0  0  0  0
  -27.2302  -37.1415   25.8859 H   0  0  0  0  0  0
  -20.9363  -29.8797   21.6929 H   0  0  0  0  0  0
  -26.0188  -38.2864   24.1409 H   0  0  0  0  0  0
  -29.9044  -24.0063   22.3872 H   0  0  0  0  0  0
  -31.2042  -22.4272   23.4434 H   0  0  0  0  0  0
  -32.0390  -21.3731   22.3069 H   0  0  0  0  0  0
  -30.7076  -20.7481   23.2938 H   0  0  0  0  0  0
  -27.3539  -24.4019   18.4340 H   0  0  0  0  0  0
  -26.4030  -22.9191   18.6038 H   0  0  0  0  0  0
  -27.8024  -23.0133   17.5174 H   0  0  0  0  0  0
  -27.7021  -20.8917   17.8002 H   0  0  0  0  0  0
  -27.6775  -19.7120   19.0788 H   0  0  0  0  0  0
  -29.1569  -19.9912   18.1481 H   0  0  0  0  0  0
  -31.4536  -18.1892   22.7025 H   0  0  0  0  0  0
  -31.5040  -16.4475   22.8541 H   0  0  0  0  0  0
  -30.0010  -17.3107   23.1661 H   0  0  0  0  0  0
  -28.0566  -25.3975   21.9297 H   0  0  0  0  0  0
  -26.8913  -24.9239   20.7766 H   0  0  0  0  0  0
  -28.6175  -18.3319   21.1256 H   0  0  0  0  0  0
  -29.3349  -18.2205   19.5324 H   0  0  0  0  0  0
  -31.4013  -17.2111   20.4525 H   0  0  0  0  0  0
  -30.9635  -19.6377   21.4645 H   0  0  0  0  0  0
  -28.9711  -15.5976   21.0260 H   0  0  0  0  0  0
  1 25  1  0  0  0
  1 30  2  0  0  0
  1 85  1  0  0  0
  2  3  1  0  0  0
  2 25  1  0  0  0
  2 86  1  0  0  0
  2 87  1  0  0  0
  3  4  1  0  0  0
  3 88  1  0  0  0
  3 89  1  0  0  0
  4  5  1  0  0  0
  4 90  1  0  0  0
  4 91  1  0  0  0
  5  6  1  0  0  0
  5 26  1  0  0  0
  5 92  1  0  0  0
  6 25  1  0  0  0
  6 93  1  0  0  0
  6 94  1  0  0  0
  7  8  2  0  0  0
  7 26  1  0  0  0
  7 29  1  0  0  0
  8  9  1  0  0  0
  8 22  1  0  0  0
  9 10  1  0  0  0
  9 27  2  0  0  0
 10 11  2  0  0  0
 10 15  1  0  0  0
 11 12  1  0  0  0
 11 95  1  0  0  0
 12 13  2  0  0  0
 12 96  1  0  0  0
 13 14  1  0  0  0
 13 31  1  0  0  0
 14 15  2  0  0  0
 14 97  1  0  0  0
 15 98  1  0  0  0
 16 17  2  0  0  0
 16 21  1  0  0  0
 16 31  1  0  0  0
 17 18  1  0  0  0
 17 99  1  0  0  0
 18 19  2  0  0  0
 18100  1  0  0  0
 19 20  1  0  0  0
 19 24  1  0  0  0
 20 21  2  0  0  0
 20101  1  0  0  0
 21 23  1  0  0  0
 22 28  1  0  0  0
 22 32  2  0  0  0
 26 27  1  0  0  0
 28102  1  0  0  0
 28103  1  0  0  0
 29104  1  0  0  0
 29105  1  0  0  0
 33 34  1  0  0  0
 33 66  1  0  0  0
 33 70  2  0  0  0
 34 36  1  0  0  0
 34 59  1  0  0  0
 34106  1  0  0  0
 35 44  2  0  0  0
 35 45  1  0  0  0
 35 68  1  0  0  0
 36 56  1  0  0  0
 36107  1  0  0  0
 37 39  1  0  0  0
 37 47  1  0  0  0
 37 66  1  0  0  0
 37108  1  0  0  0
 38 43  2  0  0  0
 38 46  1  0  0  0
 38 47  1  0  0  0
 39 64  1  0  0  0
 39 67  2  0  0  0
 40 52  1  0  0  0
 40 53  2  0  0  0
 40 58  1  0  0  0
 41109  1  0  0  0
 41110  1  0  0  0
 41111  1  0  0  0
 41 48  1  0  0  0
 42 43  1  0  0  0
 42 66  1  0  0  0
 42112  1  0  0  0
 42113  1  0  0  0
 43 44  1  0  0  0
 44114  1  0  0  0
 45 46  2  0  0  0
 45115  1  0  0  0
 46116  1  0  0  0
 47117  1  0  0  0
 47118  1  0  0  0
 48 56  1  0  0  0
 48 65  1  0  0  0
 48119  1  0  0  0
 49 50  1  0  0  0
 49 53  1  0  0  0
 49 64  1  0  0  0
 49120  1  0  0  0
 50 51  1  0  0  0
 50121  1  0  0  0
 50122  1  0  0  0
 51 52  1  0  0  0
 51123  1  0  0  0
 51124  1  0  0  0
 52125  1  0  0  0
 52126  1  0  0  0
 53 54  1  0  0  0
 54 55  2  0  0  0
 54127  1  0  0  0
 55 57  1  0  0  0
 55128  1  0  0  0
 56 69  2  0  0  0
 57 58  2  0  0  0
 57129  1  0  0  0
 58130  1  0  0  0
 59 60  1  0  0  0
 59 61  1  0  0  0
 59 62  1  0  0  0
 60131  1  0  0  0
 60132  1  0  0  0
 60133  1  0  0  0
 61134  1  0  0  0
 61135  1  0  0  0
 61136  1  0  0  0
 62137  1  0  0  0
 62138  1  0  0  0
 62139  1  0  0  0
 63 65  1  0  0  0
 63140  1  0  0  0
 63141  1  0  0  0
 63142  1  0  0  0
 64143  1  0  0  0
 65144  1  0  0  0
 68 81  1  0  0  0
 71 72  2  0  0  0
 71 73  1  0  0  0
 71145  1  0  0  0
 72 74  1  0  0  0
 72 81  1  0  0  0
 73 76  2  0  0  0
 73 77  1  0  0  0
 74 75  2  0  0  0
 74 78  1  0  0  0
 75 76  1  0  0  0
 75 79  1  0  0  0
 76 84  1  0  0  0
 77146  1  0  0  0
 77147  1  0  0  0
 77148  1  0  0  0
 78149  1  0  0  0
 78150  1  0  0  0
 78151  1  0  0  0
 79152  1  0  0  0
 79153  1  0  0  0
 79154  1  0  0  0
 80155  1  0  0  0
 80156  1  0  0  0
 80157  1  0  0  0
 80 83  1  0  0  0
 81158  1  0  0  0
 81159  1  0  0  0
 82 83  1  0  0  0
 82 84  1  0  0  0
 82160  1  0  0  0
 82161  1  0  0  0
 83 85  1  0  0  0
 83162  1  0  0  0
 84163  1  0  0  0
 85164  1  0  0  0
M  ISO  4   1 100  68 101  81 101  85 100
M  END
> <chiral flag>
0

> <version>
0

> <s_m_source_file>
/data/baiqing/PycharmProjects/Reinvent-master-3.2/result/LINK_invent/BTK/process_docking_weight1_custom_sum_contain_oxygen_bond_distance_aromatic_linkinvent_7_9_3/rearranged_h_0151.sdf

> <i_m_source_file_index>
75

> <r_mmod_Potential_Energy-OPLS-2005>
7.76198148727417

> <r_mmod_Stretch_Energy-OPLS-2005>
79.8436889648438

> <r_mmod_Bend_Energy-OPLS-2005>
154.593307495117

> <r_mmod_Torsional_Energy-OPLS-2005>
243.885955810547

> <r_mmod_Improper_Torsional_Energy-OPLS-2005>
7.58153629302979

> <r_mmod_Van_der_Waal_Energy-OPLS-2005>
157.549957275391

> <r_mmod_Electrostatic_Energy-OPLS-2005>
-475.891815185547

> <r_mmod_Solvation_Energy-OPLS-2005>
-210.507873535156

> <b_mmod_Minimization_Converged-OPLS-2005>
0

> <r_mmod_RMS_Derivative-OPLS-2005>
1.01773726940155

$$$$
75
                    3D
 Structure written by MMmdl.
164173  0  0  1  0            999 V2000
  -31.5948  -14.7481   21.1131 C   0  0  0  0  0  0
  -30.8180  -12.7861   19.2086 C   0  0  0  0  0  0
  -29.3709  -12.6333   18.0831 C   0  0  0  0  0  0
  -27.6115  -13.1353   18.3351 C   0  0  0  0  0  0
  -27.0537  -14.0772   19.9171 C   0  0  2  0  0  0
  -29.8317  -14.0336   21.5098 C   0  0  0  0  0  0
  -24.8471  -14.0065   20.6914 C   0  0  0  0  0  0
  -23.9274  -13.0734   20.9884 C   0  0  0  0  0  0
  -24.5101  -11.7708   20.8348 C   0  0  0  0  0  0
  -23.8934  -10.4488   20.9891 C   0  0  0  0  0  0
  -24.3663   -9.4636   21.8957 C   0  0  0  0  0  0
  -23.6420   -8.2537   22.0724 C   0  0  0  0  0  0
  -22.4426   -8.0207   21.3478 C   0  0  0  0  0  0
  -22.0088   -8.9881   20.4234 C   0  0  0  0  0  0
  -22.7153  -10.1943   20.2568 C   0  0  0  0  0  0
  -21.6973   -6.0759   22.5243 C   0  0  0  0  0  0
  -21.4167   -6.5718   23.8171 C   0  0  0  0  0  0
  -21.3689   -5.6864   24.9094 C   0  0  0  0  0  0
  -21.6032   -4.3155   24.7151 C   0  0  0  0  0  0
  -21.8854   -3.8186   23.4308 C   0  0  0  0  0  0
  -21.9315   -4.6973   22.3339 C   0  0  0  0  0  0
  -22.5300  -13.4411   21.2686 C   0  0  0  0  0  0
  -22.1726   -4.2173   21.0932 F   0  0  0  0  0  0
  -21.5534   -3.4636   25.7645 F   0  0  0  0  0  0
  -30.9696  -13.5733   20.7024 N   0  0  0  0  0  0
  -25.8838  -13.3012   20.2856 N   0  0  0  0  0  0
  -25.7501  -11.9233   20.4024 N   0  0  0  0  0  0
  -21.8971  -12.6812   22.1355 N   0  0  0  0  0  0
  -24.8761  -15.3904   20.7130 N   0  0  0  0  0  0
  -32.2781  -15.2330   20.2302 O   0  0  0  0  0  0
  -21.6815   -6.8813   21.4235 O   0  0  0  0  0  0
  -22.0547  -14.4581   20.7647 O   0  0  0  0  0  0
  -24.7018  -31.7819   23.1378 C   0  0  0  0  0  0
  -25.9509  -32.4351   23.7958 C   0  0  1  0  0  0
  -27.1313  -26.5118   20.2081 C   0  0  0  0  0  0
  -25.6044  -33.8183   24.1836 N   0  0  0  0  0  0
  -23.5264  -30.3852   21.4989 C   0  0  2  0  0  0
  -24.9614  -28.6962   20.1125 C   0  0  0  0  0  0
  -22.7817  -29.4240   22.4660 C   0  0  0  0  0  0
  -18.0349  -28.1432   22.8449 C   0  0  0  0  0  0
  -24.1504  -36.7104   23.2650 C   0  0  0  0  0  0
  -26.1147  -30.4463   21.4275 C   0  0  0  0  0  0
  -26.1611  -28.9947   20.7739 C   0  0  0  0  0  0
  -27.2320  -27.9341   20.7854 C   0  0  0  0  0  0
  -25.9170  -26.4679   19.4847 C   0  0  0  0  0  0
  -24.8916  -27.4611   19.4413 C   0  0  0  0  0  0
  -23.7825  -29.6792   20.1338 C   0  0  0  0  0  0
  -25.4159  -36.2826   24.0263 C   0  0  1  0  0  0
  -20.5988  -28.3800   23.1115 C   0  0  2  0  0  0
  -20.6812  -26.9449   22.5396 C   0  0  0  0  0  0
  -19.5791  -26.6375   21.5212 C   0  0  0  0  0  0
  -18.1976  -26.7955   22.1616 C   0  0  0  0  0  0
  -19.1614  -28.8948   23.2760 C   0  0  0  0  0  0
  -18.9519  -30.1529   23.8812 C   0  0  0  0  0  0
  -17.6506  -30.6609   24.0553 C   0  0  0  0  0  0
  -25.9157  -34.9219   23.4890 C   0  0  0  0  0  0
  -16.5397  -29.9087   23.6354 C   0  0  0  0  0  0
  -16.7330  -28.6514   23.0365 C   0  0  0  0  0  0
  -26.4646  -31.6454   25.0655 C   0  0  0  0  0  0
  -25.3649  -31.3820   26.1227 C   0  0  0  0  0  0
  -27.0609  -30.2777   24.6688 C   0  0  0  0  0  0
  -27.6066  -32.4355   25.7483 C   0  0  0  0  0  0
  -27.5564  -37.1700   24.8461 C   0  0  0  0  0  0
  -21.4456  -29.3020   22.3397 N   0  0  0  0  0  0
  -26.4268  -37.3613   23.9407 N   0  0  0  0  0  0
  -24.8082  -30.9089   22.0714 N   0  0  0  0  0  0
  -23.4208  -28.7848   23.3048 O   0  0  0  0  0  0
  -28.0005  -25.1713   20.2475 O   0  0  0  0  0  0
  -26.5816  -34.8844   22.4528 O   0  0  0  0  0  0
  -23.5986  -32.0983   23.6240 O   0  0  0  0  0  0
  -27.8057  -13.0103   21.9577 C   0  0  0  0  0  0
  -27.9785  -15.8506   21.6559 C   0  0  0  0  0  0
  -29.1071  -14.6678   19.5369 C   0  0  0  0  0  0
  -27.7538  -14.5707   22.5026 C   0  0  0  0  0  0
  -28.5796  -12.6512   20.4773 C   0  0  0  0  0  0
  -28.6433  -16.1454   20.2988 C   0  0  0  0  0  0
  -28.8426  -16.0603   24.8001 C   0  0  0  0  0  0
  -30.3931  -16.2137   24.8057 C   0  0  0  0  0  0
  -28.8136  -14.8895   23.7680 C   0  0  2  0  0  0
  -30.5206  -15.1291   23.7409 C   0  0  2  0  0  0
  -28.7725  -11.1106   20.2929 C   0  0  0  0  0  0
  -28.4801  -21.4702   20.0905 C   0  0  0  0  0  0
  -27.6899  -23.3623   20.1766 C   0  0  0  0  0  0
  -28.1467  -19.4676   20.2868 C   0  0  0  0  0  0
  -31.4797  -15.3690   22.4554 N   0  0  0  0  0  0
  -28.7714  -17.7722   19.9215 O   0  0  0  0  0  0
  -31.5674  -13.2762   18.5795 H   0  0  0  0  0  0
  -31.2768  -11.8051   19.3145 H   0  0  0  0  0  0
  -29.3576  -11.5912   17.7500 H   0  0  0  0  0  0
  -29.6594  -13.1214   17.1533 H   0  0  0  0  0  0
  -26.9918  -12.2475   18.2069 H   0  0  0  0  0  0
  -27.3266  -13.7456   17.4734 H   0  0  0  0  0  0
  -26.7478  -15.0072   19.4399 H   0  0  0  0  0  0
  -30.2434  -13.0300   21.8116 H   0  0  0  0  0  0
  -29.8906  -13.4879   22.4585 H   0  0  0  0  0  0
  -25.2589   -9.6574   22.4737 H   0  0  0  0  0  0
  -24.0152   -7.5159   22.7696 H   0  0  0  0  0  0
  -21.1188   -8.8056   19.8415 H   0  0  0  0  0  0
  -22.3495  -10.9227   19.5536 H   0  0  0  0  0  0
  -21.2206   -7.6253   23.9604 H   0  0  0  0  0  0
  -21.1457   -6.0609   25.8961 H   0  0  0  0  0  0
  -22.0613   -2.7723   23.2689 H   0  0  0  0  0  0
  -22.3385  -11.8738   22.5451 H   0  0  0  0  0  0
  -20.9458  -12.8979   22.4092 H   0  0  0  0  0  0
  -24.0627  -15.9275   20.9955 H   0  0  0  0  0  0
  -25.7414  -15.9277   20.6603 H   0  0  0  0  0  0
  -26.7615  -32.4765   23.0656 H   0  0  0  0  0  0
  -25.0055  -33.9192   24.9914 H   0  0  0  0  0  0
  -22.8628  -31.2287   21.3013 H   0  0  0  0  0  0
  -23.3794  -35.9405   23.3221 H   0  0  0  0  0  0
  -24.3572  -36.8874   22.2084 H   0  0  0  0  0  0
  -23.7239  -37.6240   23.6806 H   0  0  0  0  0  0
  -26.3454  -31.1624   20.6358 H   0  0  0  0  0  0
  -26.9601  -30.5085   22.1021 H   0  0  0  0  0  0
  -28.1312  -28.1642   21.3389 H   0  0  0  0  0  0
  -25.7028  -25.5450   18.9671 H   0  0  0  0  0  0
  -23.9939  -27.2261   18.8905 H   0  0  0  0  0  0
  -23.9761  -30.4358   19.3721 H   0  0  0  0  0  0
  -22.8778  -29.1647   19.8034 H   0  0  0  0  0  0
  -25.1372  -36.1541   25.0754 H   0  0  0  0  0  0
  -21.0082  -28.3438   24.1239 H   0  0  0  0  0  0
  -20.5674  -26.2425   23.3669 H   0  0  0  0  0  0
  -21.6668  -26.7375   22.1209 H   0  0  0  0  0  0
  -19.6933  -25.6264   21.1297 H   0  0  0  0  0  0
  -19.6726  -27.3138   20.6706 H   0  0  0  0  0  0
  -17.4234  -26.6702   21.4027 H   0  0  0  0  0  0
  -18.0362  -26.0127   22.9044 H   0  0  0  0  0  0
  -19.7994  -30.7371   24.2137 H   0  0  0  0  0  0
  -17.5053  -31.6275   24.5170 H   0  0  0  0  0  0
  -15.5392  -30.2956   23.7731 H   0  0  0  0  0  0
  -15.8739  -28.0808   22.7119 H   0  0  0  0  0  0
  -24.5868  -30.7152   25.7483 H   0  0  0  0  0  0
  -24.8810  -32.3060   26.4398 H   0  0  0  0  0  0
  -25.7770  -30.9116   27.0159 H   0  0  0  0  0  0
  -26.3359  -29.6324   24.1713 H   0  0  0  0  0  0
  -27.4005  -29.7298   25.5483 H   0  0  0  0  0  0
  -27.9350  -30.3866   24.0264 H   0  0  0  0  0  0
  -27.2591  -33.3743   26.1801 H   0  0  0  0  0  0
  -28.4002  -32.6772   25.0398 H   0  0  0  0  0  0
  -28.0595  -31.8650   26.5599 H   0  0  0  0  0  0
  -28.2509  -38.0065   24.7552 H   0  0  0  0  0  0
  -28.1139  -36.2582   24.6234 H   0  0  0  0  0  0
  -27.2284  -37.1258   25.8867 H   0  0  0  0  0  0
  -20.9782  -29.8668   21.6446 H   0  0  0  0  0  0
  -26.0064  -38.2647   24.1454 H   0  0  0  0  0  0
  -27.6338  -12.1919   22.6526 H   0  0  0  0  0  0
  -27.8796  -16.7754   22.2283 H   0  0  0  0  0  0
  -29.6201  -14.8505   18.6048 H   0  0  0  0  0  0
  -28.4034  -16.9877   24.4603 H   0  0  0  0  0  0
  -28.4722  -15.7776   25.7862 H   0  0  0  0  0  0
  -30.8462  -15.8690   25.7510 H   0  0  0  0  0  0
  -30.7328  -17.2269   24.5662 H   0  0  0  0  0  0
  -28.6563  -14.0050   24.3885 H   0  0  0  0  0  0
  -30.9335  -14.2734   24.2750 H   0  0  0  0  0  0
  -28.2531  -10.7036   19.4290 H   0  0  0  0  0  0
  -28.2973  -10.6442   21.1524 H   0  0  0  0  0  0
  -29.7994  -10.7501   20.3195 H   0  0  0  0  0  0
  -29.3424  -21.5960   20.7477 H   0  0  0  0  0  0
  -28.9192  -21.4901   19.0942 H   0  0  0  0  0  0
  -26.9847  -23.2637   20.9996 H   0  0  0  0  0  0
  -27.0575  -23.3420   19.2877 H   0  0  0  0  0  0
  -27.1526  -19.3746   19.8461 H   0  0  0  0  0  0
  -27.9512  -19.3743   21.3555 H   0  0  0  0  0  0
  -32.0494  -16.1896   22.5558 H   0  0  0  0  0  0
  1 25  1  0  0  0
  1 30  2  0  0  0
  1 85  1  0  0  0
  2  3  1  0  0  0
  2 25  1  0  0  0
  2 87  1  0  0  0
  2 88  1  0  0  0
  3  4  1  0  0  0
  3 89  1  0  0  0
  3 90  1  0  0  0
  4  5  1  0  0  0
  4 91  1  0  0  0
  4 92  1  0  0  0
  5  6  1  0  0  0
  5 26  1  0  0  0
  5 93  1  0  0  0
  6 25  1  0  0  0
  6 94  1  0  0  0
  6 95  1  0  0  0
  7  8  2  0  0  0
  7 26  1  0  0  0
  7 29  1  0  0  0
  8  9  1  0  0  0
  8 22  1  0  0  0
  9 10  1  0  0  0
  9 27  2  0  0  0
 10 11  2  0  0  0
 10 15  1  0  0  0
 11 12  1  0  0  0
 11 96  1  0  0  0
 12 13  2  0  0  0
 12 97  1  0  0  0
 13 14  1  0  0  0
 13 31  1  0  0  0
 14 15  2  0  0  0
 14 98  1  0  0  0
 15 99  1  0  0  0
 16 17  2  0  0  0
 16 21  1  0  0  0
 16 31  1  0  0  0
 17 18  1  0  0  0
 17100  1  0  0  0
 18 19  2  0  0  0
 18101  1  0  0  0
 19 20  1  0  0  0
 19 24  1  0  0  0
 20 21  2  0  0  0
 20102  1  0  0  0
 21 23  1  0  0  0
 22 28  1  0  0  0
 22 32  2  0  0  0
 26 27  1  0  0  0
 28103  1  0  0  0
 28104  1  0  0  0
 29105  1  0  0  0
 29106  1  0  0  0
 33 34  1  0  0  0
 33 66  1  0  0  0
 33 70  2  0  0  0
 34 36  1  0  0  0
 34 59  1  0  0  0
 34107  1  0  0  0
 35 44  2  0  0  0
 35 45  1  0  0  0
 35 68  1  0  0  0
 36 56  1  0  0  0
 36108  1  0  0  0
 37 39  1  0  0  0
 37 47  1  0  0  0
 37 66  1  0  0  0
 37109  1  0  0  0
 38 43  2  0  0  0
 38 46  1  0  0  0
 38 47  1  0  0  0
 39 64  1  0  0  0
 39 67  2  0  0  0
 40 52  1  0  0  0
 40 53  2  0  0  0
 40 58  1  0  0  0
 41110  1  0  0  0
 41111  1  0  0  0
 41112  1  0  0  0
 41 48  1  0  0  0
 42 43  1  0  0  0
 42 66  1  0  0  0
 42113  1  0  0  0
 42114  1  0  0  0
 43 44  1  0  0  0
 44115  1  0  0  0
 45 46  2  0  0  0
 45116  1  0  0  0
 46117  1  0  0  0
 47118  1  0  0  0
 47119  1  0  0  0
 48 56  1  0  0  0
 48 65  1  0  0  0
 48120  1  0  0  0
 49 50  1  0  0  0
 49 53  1  0  0  0
 49 64  1  0  0  0
 49121  1  0  0  0
 50 51  1  0  0  0
 50122  1  0  0  0
 50123  1  0  0  0
 51 52  1  0  0  0
 51124  1  0  0  0
 51125  1  0  0  0
 52126  1  0  0  0
 52127  1  0  0  0
 53 54  1  0  0  0
 54 55  2  0  0  0
 54128  1  0  0  0
 55 57  1  0  0  0
 55129  1  0  0  0
 56 69  2  0  0  0
 57 58  2  0  0  0
 57130  1  0  0  0
 58131  1  0  0  0
 59 60  1  0  0  0
 59 61  1  0  0  0
 59 62  1  0  0  0
 60132  1  0  0  0
 60133  1  0  0  0
 60134  1  0  0  0
 61135  1  0  0  0
 61136  1  0  0  0
 61137  1  0  0  0
 62138  1  0  0  0
 62139  1  0  0  0
 62140  1  0  0  0
 63 65  1  0  0  0
 63141  1  0  0  0
 63142  1  0  0  0
 63143  1  0  0  0
 64144  1  0  0  0
 65145  1  0  0  0
 68 83  1  0  0  0
 71 74  2  0  0  0
 71 75  1  0  0  0
 71146  1  0  0  0
 72 74  1  0  0  0
 72 76  2  0  0  0
 72147  1  0  0  0
 73 75  2  0  0  0
 73 76  1  0  0  0
 73148  1  0  0  0
 74 79  1  0  0  0
 75 81  1  0  0  0
 76 86  1  0  0  0
 77 78  1  0  0  0
 77 79  1  0  0  0
 77149  1  0  0  0
 77150  1  0  0  0
 78 80  1  0  0  0
 78151  1  0  0  0
 78152  1  0  0  0
 79 80  1  0  0  0
 79153  1  0  0  0
 80 85  1  0  0  0
 80154  1  0  0  0
 81155  1  0  0  0
 81156  1  0  0  0
 81157  1  0  0  0
 82 83  1  0  0  0
 82 84  1  0  0  0
 82158  1  0  0  0
 82159  1  0  0  0
 83160  1  0  0  0
 83161  1  0  0  0
 84 86  1  0  0  0
 84162  1  0  0  0
 84163  1  0  0  0
 85164  1  0  0  0
M  ISO  4   1 100  68 101  83 101  85 100
M  END
> <chiral flag>
0

> <version>
0

> <s_m_source_file>
/data/baiqing/PycharmProjects/Reinvent-master-3.2/result/LINK_invent/BTK/process_docking_weight1_custom_sum_contain_oxygen_bond_distance_aromatic_linkinvent_7_9_3/rearranged_h_0151.sdf

> <i_m_source_file_index>
76

> <r_mmod_Potential_Energy-OPLS-2005>
13347.1494140625

> <r_mmod_Stretch_Energy-OPLS-2005>
7457.265625

> <r_mmod_Bend_Energy-OPLS-2005>
1470.01159667969

> <r_mmod_Torsional_Energy-OPLS-2005>
451.446594238281

> <r_mmod_Improper_Torsional_Energy-OPLS-2005>
25.0959892272949

> <r_mmod_Van_der_Waal_Energy-OPLS-2005>
3046.49682617188

> <r_mmod_Electrostatic_Energy-OPLS-2005>
-374.550415039062

> <r_mmod_Solvation_Energy-OPLS-2005>
-213.97917175293

> <b_mmod_Minimization_Converged-OPLS-2005>
0

> <r_mmod_RMS_Derivative-OPLS-2005>
32.7911911010742

$$$$
76
                    3D
 Structure written by MMmdl.
176186  0  0  1  0            999 V2000
  -30.6768  -14.6086   20.4961 C   0  0  0  0  0  0
  -30.4176  -12.3699   19.4667 C   0  0  0  0  0  0
  -29.5022  -12.4925   18.2310 C   0  0  0  0  0  0
  -28.0268  -12.3373   18.6436 C   0  0  0  0  0  0
  -27.6492  -13.2242   19.8608 C   0  0  2  0  0  0
  -28.6907  -13.1109   20.9976 C   0  0  0  0  0  0
  -25.2533  -13.8194   20.5694 C   0  0  0  0  0  0
  -24.1813  -13.0446   20.9197 C   0  0  0  0  0  0
  -24.6390  -11.6916   20.8739 C   0  0  0  0  0  0
  -23.9063  -10.4296   21.0405 C   0  0  0  0  0  0
  -24.3612   -9.4215   21.9187 C   0  0  0  0  0  0
  -23.6289   -8.2250   22.0758 C   0  0  0  0  0  0
  -22.4270   -8.0282   21.3545 C   0  0  0  0  0  0
  -21.9906   -9.0255   20.4643 C   0  0  0  0  0  0
  -22.7233  -10.2137   20.3053 C   0  0  0  0  0  0
  -21.6853   -6.0737   22.5279 C   0  0  0  0  0  0
  -21.4015   -6.5639   23.8214 C   0  0  0  0  0  0
  -21.3661   -5.6788   24.9174 C   0  0  0  0  0  0
  -21.6042   -4.3051   24.7220 C   0  0  0  0  0  0
  -21.8821   -3.8143   23.4341 C   0  0  0  0  0  0
  -21.9194   -4.6962   22.3398 C   0  0  0  0  0  0
  -22.7833  -13.5232   21.1854 C   0  0  0  0  0  0
  -22.1660   -4.2147   21.0977 F   0  0  0  0  0  0
  -21.5631   -3.4535   25.7735 F   0  0  0  0  0  0
  -30.0095  -13.4157   20.4281 N   0  0  0  0  0  0
  -26.2966  -12.9390   20.3315 N   0  0  0  0  0  0
  -25.9320  -11.6534   20.5765 N   0  0  0  0  0  0
  -22.0479  -12.8227   22.0413 N   0  0  0  0  0  0
  -25.4219  -15.1917   20.4102 N   0  0  0  0  0  0
  -31.8346  -14.7053   20.0843 O   0  0  0  0  0  0
  -21.6638   -6.8875   21.4236 O   0  0  0  0  0  0
  -22.3516  -14.5540   20.6706 O   0  0  0  0  0  0
  -24.6223  -31.8618   23.2038 C   0  0  0  0  0  0
  -25.9086  -32.4788   23.8351 C   0  0  1  0  0  0
  -27.2232  -27.3545   20.1111 C   0  0  0  0  0  0
  -25.5905  -33.8585   24.2278 N   0  0  0  0  0  0
  -23.4152  -30.4837   21.5462 C   0  0  2  0  0  0
  -24.8633  -28.9403   20.1098 C   0  0  0  0  0  0
  -22.7456  -29.4629   22.4955 C   0  0  0  0  0  0
  -18.0280  -28.1373   22.8489 C   0  0  0  0  0  0
  -24.1487  -36.7303   23.2644 C   0  0  0  0  0  0
  -25.9524  -30.8026   21.3698 C   0  0  0  0  0  0
  -26.0297  -29.4313   20.7130 C   0  0  0  0  0  0
  -27.2183  -28.6477   20.7066 C   0  0  0  0  0  0
  -26.0429  -26.9019   19.4896 C   0  0  0  0  0  0
  -24.8694  -27.6795   19.4907 C   0  0  0  0  0  0
  -23.6283  -29.8151   20.1615 C   0  0  0  0  0  0
  -25.4115  -36.3091   24.0326 C   0  0  1  0  0  0
  -20.5878  -28.3680   23.1293 C   0  0  2  0  0  0
  -20.6780  -26.9410   22.5402 C   0  0  0  0  0  0
  -19.5753  -26.6380   21.5210 C   0  0  0  0  0  0
  -18.1933  -26.7918   22.1623 C   0  0  0  0  0  0
  -19.1532  -28.8842   23.2890 C   0  0  0  0  0  0
  -18.9460  -30.1446   23.8903 C   0  0  0  0  0  0
  -17.6463  -30.6583   24.0562 C   0  0  0  0  0  0
  -25.9045  -34.9456   23.5108 C   0  0  0  0  0  0
  -16.5354  -29.9080   23.6329 C   0  0  0  0  0  0
  -16.7270  -28.6494   23.0357 C   0  0  0  0  0  0
  -26.4490  -31.6588   25.0709 C   0  0  0  0  0  0
  -25.3739  -31.3677   26.1441 C   0  0  0  0  0  0
  -27.0362  -30.3035   24.6128 C   0  0  0  0  0  0
  -27.6037  -32.4344   25.7487 C   0  0  0  0  0  0
  -27.5579  -37.1805   24.8469 C   0  0  0  0  0  0
  -21.4172  -29.3043   22.3691 N   0  0  0  0  0  0
  -26.4297  -37.3776   23.9402 N   0  0  0  0  0  0
  -24.6819  -31.0649   22.0978 N   0  0  0  0  0  0
  -23.4195  -28.8173   23.3025 O   0  0  0  0  0  0
  -28.3127  -26.4889   20.1404 O   0  0  0  0  0  0
  -26.5620  -34.8926   22.4679 O   0  0  0  0  0  0
  -23.5394  -32.1408   23.7381 O   0  0  0  0  0  0
  -29.8344  -22.1118   19.5585 C   0  0  0  0  0  0
  -29.5610  -23.4911   19.8682 C   0  0  0  0  0  0
  -29.0660  -21.0453   20.1379 C   0  0  0  0  0  0
  -27.9161  -21.4328   20.8856 C   0  0  0  0  0  0
  -27.6570  -22.8082   21.2059 C   0  0  0  0  0  0
  -28.4532  -23.8740   20.6744 C   0  0  0  0  0  0
  -30.9624  -17.9952   22.8372 C   0  0  0  0  0  0
  -30.9645  -22.4281   17.1888 C   0  0  0  0  0  0
  -30.6936  -20.9585   17.3231 C   0  0  0  0  0  0
  -29.7924  -18.8475   22.3444 C   0  0  0  0  0  0
  -31.6212  -17.4784   21.5667 C   0  0  0  0  0  0
  -30.9383  -21.7945   18.5695 C   0  0  0  0  0  0
  -29.4222  -18.3469   20.9276 C   0  0  2  0  0  0
  -30.4433  -17.1551   20.6317 C   0  0  2  0  0  0
  -30.4918  -24.5922   19.3620 C   0  0  0  0  0  0
  -26.9051  -20.3661   21.2986 C   0  0  0  0  0  0
  -26.5237  -23.1429   22.1798 C   0  0  0  0  0  0
  -29.4407  -19.5269   19.8472 C   0  0  0  0  0  0
  -28.1742  -25.3774   21.0903 C   0  0  0  0  0  0
  -29.9753  -15.7352   20.8386 N   0  0  0  0  0  0
  -31.4644  -12.4542   19.1709 H   0  0  0  0  0  0
  -30.3192  -11.3833   19.9219 H   0  0  0  0  0  0
  -29.7646  -11.7359   17.4905 H   0  0  0  0  0  0
  -29.6534  -13.4594   17.7491 H   0  0  0  0  0  0
  -27.8680  -11.2870   18.8910 H   0  0  0  0  0  0
  -27.3713  -12.5519   17.7986 H   0  0  0  0  0  0
  -27.6615  -14.2541   19.5029 H   0  0  0  0  0  0
  -28.6901  -12.1072   21.4252 H   0  0  0  0  0  0
  -28.4442  -13.7886   21.8161 H   0  0  0  0  0  0
  -25.2752   -9.5702   22.4766 H   0  0  0  0  0  0
  -23.9995   -7.4648   22.7490 H   0  0  0  0  0  0
  -21.0836   -8.8769   19.8952 H   0  0  0  0  0  0
  -22.3682  -10.9674   19.6164 H   0  0  0  0  0  0
  -21.2006   -7.6146   23.9714 H   0  0  0  0  0  0
  -21.1484   -6.0519   25.9079 H   0  0  0  0  0  0
  -22.0598   -2.7603   23.2840 H   0  0  0  0  0  0
  -22.4085  -11.9877   22.4787 H   0  0  0  0  0  0
  -21.1104  -13.1265   22.2629 H   0  0  0  0  0  0
  -24.6511  -15.8424   20.5162 H   0  0  0  0  0  0
  -26.2693  -15.6333   20.0773 H   0  0  0  0  0  0
  -26.7158  -32.5475   23.1105 H   0  0  0  0  0  0
  -25.0030  -33.9721   25.0408 H   0  0  0  0  0  0
  -22.7069  -31.3030   21.4035 H   0  0  0  0  0  0
  -23.3745  -35.9638   23.3309 H   0  0  0  0  0  0
  -24.3576  -36.8924   22.2056 H   0  0  0  0  0  0
  -23.7247  -37.6506   23.6678 H   0  0  0  0  0  0
  -26.0777  -31.5668   20.6022 H   0  0  0  0  0  0
  -26.8348  -30.8531   21.9956 H   0  0  0  0  0  0
  -28.1156  -29.0144   21.1847 H   0  0  0  0  0  0
  -26.0265  -25.9273   19.0232 H   0  0  0  0  0  0
  -23.9728  -27.2981   19.0212 H   0  0  0  0  0  0
  -23.7397  -30.5907   19.4030 H   0  0  0  0  0  0
  -22.7503  -29.2386   19.8648 H   0  0  0  0  0  0
  -25.1297  -36.1945   25.0815 H   0  0  0  0  0  0
  -20.9968  -28.3259   24.1416 H   0  0  0  0  0  0
  -20.5697  -26.2282   23.3593 H   0  0  0  0  0  0
  -21.6650  -26.7454   22.1187 H   0  0  0  0  0  0
  -19.6915  -25.6292   21.1239 H   0  0  0  0  0  0
  -19.6691  -27.3190   20.6740 H   0  0  0  0  0  0
  -17.4201  -26.6659   21.4032 H   0  0  0  0  0  0
  -18.0345  -26.0055   22.9016 H   0  0  0  0  0  0
  -19.7940  -30.7261   24.2271 H   0  0  0  0  0  0
  -17.5024  -31.6263   24.5169 H   0  0  0  0  0  0
  -15.5356  -30.2989   23.7654 H   0  0  0  0  0  0
  -15.8666  -28.0817   22.7073 H   0  0  0  0  0  0
  -24.5906  -30.7049   25.7740 H   0  0  0  0  0  0
  -24.8941  -32.2826   26.4935 H   0  0  0  0  0  0
  -25.8079  -30.8789   27.0173 H   0  0  0  0  0  0
  -26.2925  -29.6748   24.1220 H   0  0  0  0  0  0
  -27.4171  -29.7322   25.4599 H   0  0  0  0  0  0
  -27.8737  -30.4351   23.9271 H   0  0  0  0  0  0
  -27.2627  -33.3642   26.2058 H   0  0  0  0  0  0
  -28.3847  -32.6913   25.0317 H   0  0  0  0  0  0
  -28.0716  -31.8485   26.5411 H   0  0  0  0  0  0
  -28.2596  -38.0104   24.7531 H   0  0  0  0  0  0
  -28.1074  -36.2636   24.6295 H   0  0  0  0  0  0
  -27.2290  -37.1445   25.8869 H   0  0  0  0  0  0
  -20.9351  -29.8745   21.6884 H   0  0  0  0  0  0
  -26.0183  -38.2850   24.1402 H   0  0  0  0  0  0
  -30.5884  -17.1534   23.4219 H   0  0  0  0  0  0
  -31.6530  -18.5556   23.4682 H   0  0  0  0  0  0
  -30.1235  -23.0535   16.8951 H   0  0  0  0  0  0
  -31.9298  -22.7164   16.7774 H   0  0  0  0  0  0
  -31.4839  -20.2857   16.9947 H   0  0  0  0  0  0
  -29.6795  -20.6278   17.1078 H   0  0  0  0  0  0
  -30.1007  -19.8930   22.3225 H   0  0  0  0  0  0
  -28.9509  -18.7804   23.0340 H   0  0  0  0  0  0
  -32.2926  -16.6421   21.7610 H   0  0  0  0  0  0
  -32.2264  -18.2723   21.1250 H   0  0  0  0  0  0
  -31.8897  -21.6677   19.0832 H   0  0  0  0  0  0
  -28.4157  -17.9323   20.9654 H   0  0  0  0  0  0
  -30.7783  -17.2124   19.5939 H   0  0  0  0  0  0
  -31.4895  -24.2312   19.1172 H   0  0  0  0  0  0
  -30.6454  -25.3601   20.1196 H   0  0  0  0  0  0
  -30.0700  -25.0698   18.4769 H   0  0  0  0  0  0
  -26.9152  -19.5125   20.6242 H   0  0  0  0  0  0
  -25.8834  -20.7425   21.2404 H   0  0  0  0  0  0
  -27.0851  -20.0194   22.3155 H   0  0  0  0  0  0
  -26.1757  -22.2930   22.7642 H   0  0  0  0  0  0
  -25.6696  -23.5657   21.6498 H   0  0  0  0  0  0
  -26.8581  -23.8567   22.9322 H   0  0  0  0  0  0
  -30.4733  -19.5262   19.5083 H   0  0  0  0  0  0
  -28.8612  -19.2038   18.9822 H   0  0  0  0  0  0
  -28.8549  -25.5957   21.9136 H   0  0  0  0  0  0
  -27.1833  -25.4563   21.5319 H   0  0  0  0  0  0
  -29.0259  -15.6014   21.1517 H   0  0  0  0  0  0
  1 25  1  0  0  0
  1 30  2  0  0  0
  1 90  1  0  0  0
  2  3  1  0  0  0
  2 25  1  0  0  0
  2 91  1  0  0  0
  2 92  1  0  0  0
  3  4  1  0  0  0
  3 93  1  0  0  0
  3 94  1  0  0  0
  4  5  1  0  0  0
  4 95  1  0  0  0
  4 96  1  0  0  0
  5  6  1  0  0  0
  5 26  1  0  0  0
  5 97  1  0  0  0
  6 25  1  0  0  0
  6 98  1  0  0  0
  6 99  1  0  0  0
  7  8  2  0  0  0
  7 26  1  0  0  0
  7 29  1  0  0  0
  8  9  1  0  0  0
  8 22  1  0  0  0
  9 10  1  0  0  0
  9 27  2  0  0  0
 10 11  2  0  0  0
 10 15  1  0  0  0
 11 12  1  0  0  0
 11100  1  0  0  0
 12 13  2  0  0  0
 12101  1  0  0  0
 13 14  1  0  0  0
 13 31  1  0  0  0
 14 15  2  0  0  0
 14102  1  0  0  0
 15103  1  0  0  0
 16 17  2  0  0  0
 16 21  1  0  0  0
 16 31  1  0  0  0
 17 18  1  0  0  0
 17104  1  0  0  0
 18 19  2  0  0  0
 18105  1  0  0  0
 19 20  1  0  0  0
 19 24  1  0  0  0
 20 21  2  0  0  0
 20106  1  0  0  0
 21 23  1  0  0  0
 22 28  1  0  0  0
 22 32  2  0  0  0
 26 27  1  0  0  0
 28107  1  0  0  0
 28108  1  0  0  0
 29109  1  0  0  0
 29110  1  0  0  0
 33 34  1  0  0  0
 33 66  1  0  0  0
 33 70  2  0  0  0
 34 36  1  0  0  0
 34 59  1  0  0  0
 34111  1  0  0  0
 35 44  2  0  0  0
 35 45  1  0  0  0
 35 68  1  0  0  0
 36 56  1  0  0  0
 36112  1  0  0  0
 37 39  1  0  0  0
 37 47  1  0  0  0
 37 66  1  0  0  0
 37113  1  0  0  0
 38 43  2  0  0  0
 38 46  1  0  0  0
 38 47  1  0  0  0
 39 64  1  0  0  0
 39 67  2  0  0  0
 40 52  1  0  0  0
 40 53  2  0  0  0
 40 58  1  0  0  0
 41114  1  0  0  0
 41115  1  0  0  0
 41116  1  0  0  0
 41 48  1  0  0  0
 42 43  1  0  0  0
 42 66  1  0  0  0
 42117  1  0  0  0
 42118  1  0  0  0
 43 44  1  0  0  0
 44119  1  0  0  0
 45 46  2  0  0  0
 45120  1  0  0  0
 46121  1  0  0  0
 47122  1  0  0  0
 47123  1  0  0  0
 48 56  1  0  0  0
 48 65  1  0  0  0
 48124  1  0  0  0
 49 50  1  0  0  0
 49 53  1  0  0  0
 49 64  1  0  0  0
 49125  1  0  0  0
 50 51  1  0  0  0
 50126  1  0  0  0
 50127  1  0  0  0
 51 52  1  0  0  0
 51128  1  0  0  0
 51129  1  0  0  0
 52130  1  0  0  0
 52131  1  0  0  0
 53 54  1  0  0  0
 54 55  2  0  0  0
 54132  1  0  0  0
 55 57  1  0  0  0
 55133  1  0  0  0
 56 69  2  0  0  0
 57 58  2  0  0  0
 57134  1  0  0  0
 58135  1  0  0  0
 59 60  1  0  0  0
 59 61  1  0  0  0
 59 62  1  0  0  0
 60136  1  0  0  0
 60137  1  0  0  0
 60138  1  0  0  0
 61139  1  0  0  0
 61140  1  0  0  0
 61141  1  0  0  0
 62142  1  0  0  0
 62143  1  0  0  0
 62144  1  0  0  0
 63 65  1  0  0  0
 63145  1  0  0  0
 63146  1  0  0  0
 63147  1  0  0  0
 64148  1  0  0  0
 65149  1  0  0  0
 68 89  1  0  0  0
 71 72  2  0  0  0
 71 73  1  0  0  0
 71 82  1  0  0  0
 72 76  1  0  0  0
 72 85  1  0  0  0
 73 74  2  0  0  0
 73 88  1  0  0  0
 74 75  1  0  0  0
 74 86  1  0  0  0
 75 76  2  0  0  0
 75 87  1  0  0  0
 76 89  1  0  0  0
 77 80  1  0  0  0
 77 81  1  0  0  0
 77150  1  0  0  0
 77151  1  0  0  0
 78 79  1  0  0  0
 78 82  1  0  0  0
 78152  1  0  0  0
 78153  1  0  0  0
 79 82  1  0  0  0
 79154  1  0  0  0
 79155  1  0  0  0
 80 83  1  0  0  0
 80156  1  0  0  0
 80157  1  0  0  0
 81 84  1  0  0  0
 81158  1  0  0  0
 81159  1  0  0  0
 82160  1  0  0  0
 83 84  1  0  0  0
 83 88  1  0  0  0
 83161  1  0  0  0
 84 90  1  0  0  0
 84162  1  0  0  0
 85163  1  0  0  0
 85164  1  0  0  0
 85165  1  0  0  0
 86166  1  0  0  0
 86167  1  0  0  0
 86168  1  0  0  0
 87169  1  0  0  0
 87170  1  0  0  0
 87171  1  0  0  0
 88172  1  0  0  0
 88173  1  0  0  0
 89174  1  0  0  0
 89175  1  0  0  0
 90176  1  0  0  0
M  ISO  4   1 100  68 101  89 101  90 100
M  END
> <chiral flag>
0

> <version>
0

> <s_m_source_file>
/data/baiqing/PycharmProjects/Reinvent-master-3.2/result/LINK_invent/BTK/process_docking_weight1_custom_sum_contain_oxygen_bond_distance_aromatic_linkinvent_7_9_3/rearranged_h_0151.sdf

> <i_m_source_file_index>
77

> <r_mmod_Potential_Energy-OPLS-2005>
187.108978271484

> <r_mmod_Stretch_Energy-OPLS-2005>
88.8851165771484

> <r_mmod_Bend_Energy-OPLS-2005>
164.148880004883

> <r_mmod_Torsional_Energy-OPLS-2005>
324.097015380859

> <r_mmod_Improper_Torsional_Energy-OPLS-2005>
5.31558895111084

> <r_mmod_Van_der_Waal_Energy-OPLS-2005>
164.584320068359

> <r_mmod_Electrostatic_Energy-OPLS-2005>
-403.20458984375

> <r_mmod_Solvation_Energy-OPLS-2005>
-197.577255249023

> <b_mmod_Minimization_Converged-OPLS-2005>
0

> <r_mmod_RMS_Derivative-OPLS-2005>
1.31733524799347

$$$$
77
                    3D
 Structure written by MMmdl.
178188  0  0  1  0            999 V2000
  -30.7211  -14.5182   20.6267 C   0  0  0  0  0  0
  -30.4090  -12.3497   19.4747 C   0  0  0  0  0  0
  -29.5038  -12.5417   18.2410 C   0  0  0  0  0  0
  -28.0247  -12.3719   18.6370 C   0  0  0  0  0  0
  -27.6575  -13.2221   19.8775 C   0  0  2  0  0  0
  -28.6839  -13.0090   21.0091 C   0  0  0  0  0  0
  -25.2550  -13.8263   20.5663 C   0  0  0  0  0  0
  -24.1779  -13.0489   20.9119 C   0  0  0  0  0  0
  -24.6435  -11.7004   20.8696 C   0  0  0  0  0  0
  -23.9142  -10.4397   21.0369 C   0  0  0  0  0  0
  -24.3713   -9.4314   21.9170 C   0  0  0  0  0  0
  -23.6368   -8.2349   22.0760 C   0  0  0  0  0  0
  -22.4363   -8.0359   21.3495 C   0  0  0  0  0  0
  -21.9980   -9.0371   20.4629 C   0  0  0  0  0  0
  -22.7314  -10.2230   20.3039 C   0  0  0  0  0  0
  -21.6895   -6.0852   22.5296 C   0  0  0  0  0  0
  -21.4015   -6.5740   23.8219 C   0  0  0  0  0  0
  -21.3611   -5.6836   24.9174 C   0  0  0  0  0  0
  -21.6045   -4.3111   24.7175 C   0  0  0  0  0  0
  -21.8809   -3.8243   23.4282 C   0  0  0  0  0  0
  -21.9204   -4.7087   22.3367 C   0  0  0  0  0  0
  -22.7881  -13.5246   21.1834 C   0  0  0  0  0  0
  -22.1700   -4.2290   21.0935 F   0  0  0  0  0  0
  -21.5607   -3.4575   25.7666 F   0  0  0  0  0  0
  -30.0110  -13.3525   20.4870 N   0  0  0  0  0  0
  -26.2975  -12.9500   20.3298 N   0  0  0  0  0  0
  -25.9350  -11.6659   20.5760 N   0  0  0  0  0  0
  -22.0528  -12.8154   22.0328 N   0  0  0  0  0  0
  -25.4290  -15.1913   20.4213 N   0  0  0  0  0  0
  -31.8274  -14.6548   20.1020 O   0  0  0  0  0  0
  -21.6697   -6.8981   21.4226 O   0  0  0  0  0  0
  -22.3519  -14.5553   20.6735 O   0  0  0  0  0  0
  -24.6076  -31.8794   23.2221 C   0  0  0  0  0  0
  -25.9035  -32.4840   23.8451 C   0  0  1  0  0  0
  -27.2177  -27.4984   20.0339 C   0  0  0  0  0  0
  -25.5937  -33.8638   24.2364 N   0  0  0  0  0  0
  -23.3855  -30.5164   21.5614 C   0  0  2  0  0  0
  -24.8251  -29.0018   20.1055 C   0  0  0  0  0  0
  -22.7333  -29.4765   22.4984 C   0  0  0  0  0  0
  -18.0319  -28.1324   22.8540 C   0  0  0  0  0  0
  -24.1520  -36.7320   23.2640 C   0  0  0  0  0  0
  -25.9232  -30.8510   21.3855 C   0  0  0  0  0  0
  -25.9895  -29.5021   20.7051 C   0  0  0  0  0  0
  -27.1836  -28.7539   20.6730 C   0  0  0  0  0  0
  -26.0411  -27.0322   19.3992 C   0  0  0  0  0  0
  -24.8472  -27.7627   19.4518 C   0  0  0  0  0  0
  -23.5911  -29.8643   20.1714 C   0  0  0  0  0  0
  -25.4149  -36.3112   24.0332 C   0  0  1  0  0  0
  -20.5876  -28.3665   23.1346 C   0  0  2  0  0  0
  -20.6762  -26.9415   22.5308 C   0  0  0  0  0  0
  -19.5674  -26.6409   21.5176 C   0  0  0  0  0  0
  -18.1913  -26.7888   22.1657 C   0  0  0  0  0  0
  -19.1551  -28.8799   23.2919 C   0  0  0  0  0  0
  -18.9445  -30.1433   23.8893 C   0  0  0  0  0  0
  -17.6453  -30.6610   24.0458 C   0  0  0  0  0  0
  -25.9086  -34.9491   23.5174 C   0  0  0  0  0  0
  -16.5365  -29.9104   23.6236 C   0  0  0  0  0  0
  -16.7316  -28.6457   23.0364 C   0  0  0  0  0  0
  -26.4474  -31.6572   25.0747 C   0  0  0  0  0  0
  -25.3739  -31.3642   26.1459 C   0  0  0  0  0  0
  -27.0348  -30.3012   24.6175 C   0  0  0  0  0  0
  -27.6077  -32.4271   25.7465 C   0  0  0  0  0  0
  -27.5619  -37.1835   24.8467 C   0  0  0  0  0  0
  -21.4069  -29.3060   22.3745 N   0  0  0  0  0  0
  -26.4341  -37.3794   23.9403 N   0  0  0  0  0  0
  -24.6546  -31.0921   22.1124 N   0  0  0  0  0  0
  -23.4156  -28.8275   23.2937 O   0  0  0  0  0  0
  -28.3860  -26.7730   20.0424 O   0  0  0  0  0  0
  -26.5623  -34.8912   22.4705 O   0  0  0  0  0  0
  -23.5299  -32.1525   23.7656 O   0  0  0  0  0  0
  -28.4643  -20.0399   20.4203 C   0  0  0  0  0  0
  -28.9735  -21.1941   21.0193 C   0  0  0  0  0  0
  -29.6186  -21.0934   22.2842 C   0  0  0  0  0  0
  -29.2182  -18.6372   22.2586 C   0  0  0  0  0  0
  -28.4905  -18.7808   21.0455 C   0  0  0  0  0  0
  -29.7625  -19.8076   22.8903 C   0  0  0  0  0  0
  -29.9406  -23.3534   19.9306 C   0  0  0  0  0  0
  -27.4215  -23.1543   20.8159 C   0  0  0  0  0  0
  -29.7616  -24.8756   20.0046 C   0  0  0  0  0  0
  -27.4270  -24.6805   20.9017 C   0  0  0  0  0  0
  -30.6595  -19.6846   26.4620 C   0  0  0  0  0  0
  -31.1401  -21.0345   25.9767 C   0  0  0  0  0  0
  -28.6985  -22.4907   20.2569 C   0  0  2  0  0  0
  -28.3167  -25.3556   19.8359 C   0  0  1  0  0  0
  -30.0389  -20.3067   25.2363 C   0  0  0  0  0  0
  -30.2002  -22.3466   22.9355 C   0  0  0  0  0  0
  -26.5828  -17.9955   19.7746 C   0  0  0  0  0  0
  -29.3857  -17.2747   22.9875 C   0  0  0  0  0  0
  -29.2646  -15.8885   22.2591 C   0  0  0  0  0  0
  -30.1344  -15.6437   21.0977 N   0  0  0  0  0  0
  -30.4847  -19.6373   24.0591 O   0  0  0  0  0  0
  -27.8251  -17.7253   20.4612 O   0  0  0  0  0  0
  -31.4573  -12.4247   19.1760 H   0  0  0  0  0  0
  -30.2914  -11.3459   19.8824 H   0  0  0  0  0  0
  -29.7721  -11.8308   17.4618 H   0  0  0  0  0  0
  -29.6590  -13.5368   17.8193 H   0  0  0  0  0  0
  -27.8595  -11.3154   18.8642 H   0  0  0  0  0  0
  -27.3721  -12.6148   17.7988 H   0  0  0  0  0  0
  -27.7081  -14.2653   19.5706 H   0  0  0  0  0  0
  -28.6865  -11.9695   21.3319 H   0  0  0  0  0  0
  -28.4076  -13.5542   21.9000 H   0  0  0  0  0  0
  -25.2917   -9.5814   22.4646 H   0  0  0  0  0  0
  -24.0125   -7.4774   22.7500 H   0  0  0  0  0  0
  -21.0921   -8.8891   19.8959 H   0  0  0  0  0  0
  -22.3833  -10.9753   19.6100 H   0  0  0  0  0  0
  -21.2032   -7.6254   23.9727 H   0  0  0  0  0  0
  -21.1404   -6.0592   25.9038 H   0  0  0  0  0  0
  -22.0613   -2.7734   23.2727 H   0  0  0  0  0  0
  -22.4242  -11.9731   22.4518 H   0  0  0  0  0  0
  -21.1136  -13.1091   22.2583 H   0  0  0  0  0  0
  -24.6927  -15.8646   20.6076 H   0  0  0  0  0  0
  -26.3122  -15.6291   20.1886 H   0  0  0  0  0  0
  -26.7125  -32.5551   23.1228 H   0  0  0  0  0  0
  -25.0060  -33.9765   25.0486 H   0  0  0  0  0  0
  -22.6756  -31.3348   21.4330 H   0  0  0  0  0  0
  -23.3775  -35.9661   23.3309 H   0  0  0  0  0  0
  -24.3652  -36.8918   22.2067 H   0  0  0  0  0  0
  -23.7284  -37.6542   23.6640 H   0  0  0  0  0  0
  -26.0870  -31.6433   20.6539 H   0  0  0  0  0  0
  -26.7920  -30.8489   22.0302 H   0  0  0  0  0  0
  -28.0775  -29.1431   21.1391 H   0  0  0  0  0  0
  -26.0309  -26.1025   18.8510 H   0  0  0  0  0  0
  -23.9598  -27.3764   18.9684 H   0  0  0  0  0  0
  -23.7011  -30.6463   19.4181 H   0  0  0  0  0  0
  -22.7083  -29.2961   19.8751 H   0  0  0  0  0  0
  -25.1330  -36.2013   25.0834 H   0  0  0  0  0  0
  -20.9914  -28.3187   24.1501 H   0  0  0  0  0  0
  -20.5895  -26.2243   23.3439 H   0  0  0  0  0  0
  -21.6591  -26.7545   22.0981 H   0  0  0  0  0  0
  -19.6802  -25.6361   21.1080 H   0  0  0  0  0  0
  -19.6527  -27.3329   20.6803 H   0  0  0  0  0  0
  -17.4172  -26.6800   21.4026 H   0  0  0  0  0  0
  -18.0326  -25.9965   22.9011 H   0  0  0  0  0  0
  -19.7892  -30.7310   24.2190 H   0  0  0  0  0  0
  -17.5002  -31.6389   24.4911 H   0  0  0  0  0  0
  -15.5369  -30.3034   23.7384 H   0  0  0  0  0  0
  -15.8750  -28.0746   22.7034 H   0  0  0  0  0  0
  -24.5896  -30.7010   25.7760 H   0  0  0  0  0  0
  -24.8917  -32.2786   26.4938 H   0  0  0  0  0  0
  -25.8053  -30.8765   27.0208 H   0  0  0  0  0  0
  -26.2945  -29.6684   24.1245 H   0  0  0  0  0  0
  -27.4151  -29.7298   25.4662 H   0  0  0  0  0  0
  -27.8758  -30.4305   23.9341 H   0  0  0  0  0  0
  -27.2738  -33.3549   26.2101 H   0  0  0  0  0  0
  -28.3830  -32.6859   25.0244 H   0  0  0  0  0  0
  -28.0811  -31.8364   26.5311 H   0  0  0  0  0  0
  -28.2639  -38.0122   24.7542 H   0  0  0  0  0  0
  -28.1112  -36.2685   24.6277 H   0  0  0  0  0  0
  -27.2339  -37.1458   25.8856 H   0  0  0  0  0  0
  -20.9159  -29.8819   21.7051 H   0  0  0  0  0  0
  -26.0234  -38.2888   24.1339 H   0  0  0  0  0  0
  -28.0314  -20.1599   19.4406 H   0  0  0  0  0  0
  -30.7725  -23.0916   20.5771 H   0  0  0  0  0  0
  -30.3294  -23.0890   18.9449 H   0  0  0  0  0  0
  -26.5648  -22.8062   20.2377 H   0  0  0  0  0  0
  -27.2133  -22.7797   21.8165 H   0  0  0  0  0  0
  -30.3736  -25.3351   19.2342 H   0  0  0  0  0  0
  -30.1581  -25.2429   20.9572 H   0  0  0  0  0  0
  -27.7756  -24.9774   21.8867 H   0  0  0  0  0  0
  -26.3926  -25.0160   20.8573 H   0  0  0  0  0  0
  -30.0242  -19.6632   27.3504 H   0  0  0  0  0  0
  -31.3320  -18.8298   26.3354 H   0  0  0  0  0  0
  -32.1141  -21.0886   25.4954 H   0  0  0  0  0  0
  -30.8683  -21.8934   26.5909 H   0  0  0  0  0  0
  -28.3947  -22.2062   19.2447 H   0  0  0  0  0  0
  -27.9666  -25.1282   18.8246 H   0  0  0  0  0  0
  -29.0094  -20.6686   25.2714 H   0  0  0  0  0  0
  -29.8676  -23.2583   22.4471 H   0  0  0  0  0  0
  -31.2884  -22.3429   22.8929 H   0  0  0  0  0  0
  -29.8976  -22.4983   23.9636 H   0  0  0  0  0  0
  -26.4350  -18.9625   19.3018 H   0  0  0  0  0  0
  -26.4409  -17.2593   18.9796 H   0  0  0  0  0  0
  -25.7588  -17.8873   20.4769 H   0  0  0  0  0  0
  -28.6536  -17.2667   23.8004 H   0  0  0  0  0  0
  -30.3531  -17.3037   23.4938 H   0  0  0  0  0  0
  -29.5178  -15.1270   22.9981 H   0  0  0  0  0  0
  -28.2261  -15.7368   21.9674 H   0  0  0  0  0  0
  -30.6687  -16.4625   20.8453 H   0  0  0  0  0  0
  1 25  1  0  0  0
  1 30  2  0  0  0
  1 90  1  0  0  0
  2  3  1  0  0  0
  2 25  1  0  0  0
  2 93  1  0  0  0
  2 94  1  0  0  0
  3  4  1  0  0  0
  3 95  1  0  0  0
  3 96  1  0  0  0
  4  5  1  0  0  0
  4 97  1  0  0  0
  4 98  1  0  0  0
  5  6  1  0  0  0
  5 26  1  0  0  0
  5 99  1  0  0  0
  6 25  1  0  0  0
  6100  1  0  0  0
  6101  1  0  0  0
  7  8  2  0  0  0
  7 26  1  0  0  0
  7 29  1  0  0  0
  8  9  1  0  0  0
  8 22  1  0  0  0
  9 10  1  0  0  0
  9 27  2  0  0  0
 10 11  2  0  0  0
 10 15  1  0  0  0
 11 12  1  0  0  0
 11102  1  0  0  0
 12 13  2  0  0  0
 12103  1  0  0  0
 13 14  1  0  0  0
 13 31  1  0  0  0
 14 15  2  0  0  0
 14104  1  0  0  0
 15105  1  0  0  0
 16 17  2  0  0  0
 16 21  1  0  0  0
 16 31  1  0  0  0
 17 18  1  0  0  0
 17106  1  0  0  0
 18 19  2  0  0  0
 18107  1  0  0  0
 19 20  1  0  0  0
 19 24  1  0  0  0
 20 21  2  0  0  0
 20108  1  0  0  0
 21 23  1  0  0  0
 22 28  1  0  0  0
 22 32  2  0  0  0
 26 27  1  0  0  0
 28109  1  0  0  0
 28110  1  0  0  0
 29111  1  0  0  0
 29112  1  0  0  0
 33 34  1  0  0  0
 33 66  1  0  0  0
 33 70  2  0  0  0
 34 36  1  0  0  0
 34 59  1  0  0  0
 34113  1  0  0  0
 35 44  2  0  0  0
 35 45  1  0  0  0
 35 68  1  0  0  0
 36 56  1  0  0  0
 36114  1  0  0  0
 37 39  1  0  0  0
 37 47  1  0  0  0
 37 66  1  0  0  0
 37115  1  0  0  0
 38 43  2  0  0  0
 38 46  1  0  0  0
 38 47  1  0  0  0
 39 64  1  0  0  0
 39 67  2  0  0  0
 40 52  1  0  0  0
 40 53  2  0  0  0
 40 58  1  0  0  0
 41116  1  0  0  0
 41117  1  0  0  0
 41118  1  0  0  0
 41 48  1  0  0  0
 42 43  1  0  0  0
 42 66  1  0  0  0
 42119  1  0  0  0
 42120  1  0  0  0
 43 44  1  0  0  0
 44121  1  0  0  0
 45 46  2  0  0  0
 45122  1  0  0  0
 46123  1  0  0  0
 47124  1  0  0  0
 47125  1  0  0  0
 48 56  1  0  0  0
 48 65  1  0  0  0
 48126  1  0  0  0
 49 50  1  0  0  0
 49 53  1  0  0  0
 49 64  1  0  0  0
 49127  1  0  0  0
 50 51  1  0  0  0
 50128  1  0  0  0
 50129  1  0  0  0
 51 52  1  0  0  0
 51130  1  0  0  0
 51131  1  0  0  0
 52132  1  0  0  0
 52133  1  0  0  0
 53 54  1  0  0  0
 54 55  2  0  0  0
 54134  1  0  0  0
 55 57  1  0  0  0
 55135  1  0  0  0
 56 69  2  0  0  0
 57 58  2  0  0  0
 57136  1  0  0  0
 58137  1  0  0  0
 59 60  1  0  0  0
 59 61  1  0  0  0
 59 62  1  0  0  0
 60138  1  0  0  0
 60139  1  0  0  0
 60140  1  0  0  0
 61141  1  0  0  0
 61142  1  0  0  0
 61143  1  0  0  0
 62144  1  0  0  0
 62145  1  0  0  0
 62146  1  0  0  0
 63 65  1  0  0  0
 63147  1  0  0  0
 63148  1  0  0  0
 63149  1  0  0  0
 64150  1  0  0  0
 65151  1  0  0  0
 68 84  1  0  0  0
 71 72  2  0  0  0
 71 75  1  0  0  0
 71152  1  0  0  0
 72 73  1  0  0  0
 72 83  1  0  0  0
 73 76  2  0  0  0
 73 86  1  0  0  0
 74 75  2  0  0  0
 74 76  1  0  0  0
 74 88  1  0  0  0
 75 92  1  0  0  0
 76 91  1  0  0  0
 77 79  1  0  0  0
 77 83  1  0  0  0
 77153  1  0  0  0
 77154  1  0  0  0
 78 80  1  0  0  0
 78 83  1  0  0  0
 78155  1  0  0  0
 78156  1  0  0  0
 79 84  1  0  0  0
 79157  1  0  0  0
 79158  1  0  0  0
 80 84  1  0  0  0
 80159  1  0  0  0
 80160  1  0  0  0
 81 82  1  0  0  0
 81 85  1  0  0  0
 81161  1  0  0  0
 81162  1  0  0  0
 82 85  1  0  0  0
 82163  1  0  0  0
 82164  1  0  0  0
 83165  1  0  0  0
 84166  1  0  0  0
 85 91  1  0  0  0
 85167  1  0  0  0
 86168  1  0  0  0
 86169  1  0  0  0
 86170  1  0  0  0
 87 92  1  0  0  0
 87171  1  0  0  0
 87172  1  0  0  0
 87173  1  0  0  0
 88 89  1  0  0  0
 88174  1  0  0  0
 88175  1  0  0  0
 89 90  1  0  0  0
 89176  1  0  0  0
 89177  1  0  0  0
 90178  1  0  0  0
M  ISO  4   1 100  68 101  84 101  90 100
M  END
> <chiral flag>
0

> <version>
0

> <s_m_source_file>
/data/baiqing/PycharmProjects/Reinvent-master-3.2/result/LINK_invent/BTK/process_docking_weight1_custom_sum_contain_oxygen_bond_distance_aromatic_linkinvent_7_9_3/rearranged_h_0151.sdf

> <i_m_source_file_index>
78

> <r_mmod_Potential_Energy-OPLS-2005>
162.776290893555

> <r_mmod_Stretch_Energy-OPLS-2005>
47.7788047790527

> <r_mmod_Bend_Energy-OPLS-2005>
192.284881591797

> <r_mmod_Torsional_Energy-OPLS-2005>
364.350067138672

> <r_mmod_Improper_Torsional_Energy-OPLS-2005>
8.42926979064941

> <r_mmod_Van_der_Waal_Energy-OPLS-2005>
189.370590209961

> <r_mmod_Electrostatic_Energy-OPLS-2005>
-457.995880126953

> <r_mmod_Solvation_Energy-OPLS-2005>
-200.487152099609

> <b_mmod_Minimization_Converged-OPLS-2005>
0

> <r_mmod_RMS_Derivative-OPLS-2005>
11.3521738052368

$$$$
78
                    3D
 Structure written by MMmdl.
170180  0  0  1  0            999 V2000
  -30.7313  -14.3824   20.7030 C   0  0  0  0  0  0
  -30.4278  -12.3126   19.3764 C   0  0  0  0  0  0
  -29.4798  -12.5311   18.1802 C   0  0  0  0  0  0
  -28.0044  -12.3730   18.5985 C   0  0  0  0  0  0
  -27.6674  -13.1774   19.8778 C   0  0  2  0  0  0
  -28.7095  -12.8622   20.9776 C   0  0  0  0  0  0
  -25.2652  -13.8103   20.5639 C   0  0  0  0  0  0
  -24.1875  -13.0409   20.9147 C   0  0  0  0  0  0
  -24.6382  -11.6873   20.8704 C   0  0  0  0  0  0
  -23.9036  -10.4282   21.0387 C   0  0  0  0  0  0
  -24.3593   -9.4209   21.9173 C   0  0  0  0  0  0
  -23.6267   -8.2250   22.0762 C   0  0  0  0  0  0
  -22.4253   -8.0280   21.3545 C   0  0  0  0  0  0
  -21.9878   -9.0250   20.4643 C   0  0  0  0  0  0
  -22.7206  -10.2132   20.3043 C   0  0  0  0  0  0
  -21.6864   -6.0729   22.5279 C   0  0  0  0  0  0
  -21.4021   -6.5635   23.8208 C   0  0  0  0  0  0
  -21.3643   -5.6786   24.9166 C   0  0  0  0  0  0
  -21.6045   -4.3049   24.7222 C   0  0  0  0  0  0
  -21.8819   -3.8134   23.4346 C   0  0  0  0  0  0
  -21.9194   -4.6952   22.3403 C   0  0  0  0  0  0
  -22.7908  -13.5254   21.1804 C   0  0  0  0  0  0
  -22.1674   -4.2133   21.0983 F   0  0  0  0  0  0
  -21.5612   -3.4535   25.7733 F   0  0  0  0  0  0
  -30.0377  -13.2332   20.4589 N   0  0  0  0  0  0
  -26.3050  -12.9213   20.3342 N   0  0  0  0  0  0
  -25.9290  -11.6399   20.5716 N   0  0  0  0  0  0
  -22.0539  -12.8254   22.0369 N   0  0  0  0  0  0
  -25.4397  -15.1812   20.4042 N   0  0  0  0  0  0
  -31.7672  -14.6601   20.0833 O   0  0  0  0  0  0
  -21.6636   -6.8866   21.4239 O   0  0  0  0  0  0
  -22.3595  -14.5549   20.6636 O   0  0  0  0  0  0
  -24.6088  -31.8704   23.2118 C   0  0  0  0  0  0
  -25.8993  -32.4835   23.8404 C   0  0  1  0  0  0
  -27.2478  -27.4801   20.0754 C   0  0  0  0  0  0
  -25.5878  -33.8632   24.2337 N   0  0  0  0  0  0
  -23.3947  -30.4936   21.5519 C   0  0  2  0  0  0
  -24.8397  -28.9565   20.1219 C   0  0  0  0  0  0
  -22.7372  -29.4678   22.5014 C   0  0  0  0  0  0
  -18.0268  -28.1380   22.8501 C   0  0  0  0  0  0
  -24.1488  -36.7332   23.2639 C   0  0  0  0  0  0
  -25.9165  -30.8499   21.3542 C   0  0  0  0  0  0
  -25.9953  -29.4833   20.7092 C   0  0  0  0  0  0
  -27.1979  -28.7505   20.6837 C   0  0  0  0  0  0
  -26.0672  -26.9470   19.5044 C   0  0  0  0  0  0
  -24.8667  -27.6838   19.5246 C   0  0  0  0  0  0
  -23.5999  -29.8188   20.1683 C   0  0  0  0  0  0
  -25.4102  -36.3124   24.0344 C   0  0  1  0  0  0
  -20.5849  -28.3660   23.1348 C   0  0  2  0  0  0
  -20.6753  -26.9406   22.5432 C   0  0  0  0  0  0
  -19.5738  -26.6399   21.5216 C   0  0  0  0  0  0
  -18.1914  -26.7935   22.1626 C   0  0  0  0  0  0
  -19.1513  -28.8833   23.2924 C   0  0  0  0  0  0
  -18.9443  -30.1446   23.8921 C   0  0  0  0  0  0
  -17.6447  -30.6592   24.0567 C   0  0  0  0  0  0
  -25.9024  -34.9488   23.5137 C   0  0  0  0  0  0
  -16.5338  -29.9104   23.6316 C   0  0  0  0  0  0
  -16.7255  -28.6518   23.0336 C   0  0  0  0  0  0
  -26.4451  -31.6589   25.0708 C   0  0  0  0  0  0
  -25.3739  -31.3652   26.1458 C   0  0  0  0  0  0
  -27.0284  -30.3055   24.6019 C   0  0  0  0  0  0
  -27.6030  -32.4293   25.7487 C   0  0  0  0  0  0
  -27.5582  -37.1821   24.8464 C   0  0  0  0  0  0
  -21.4104  -29.3039   22.3750 N   0  0  0  0  0  0
  -26.4293  -37.3805   23.9414 N   0  0  0  0  0  0
  -24.6586  -31.0847   22.0996 N   0  0  0  0  0  0
  -23.4166  -28.8218   23.3029 O   0  0  0  0  0  0
  -28.4745  -26.8593   20.0357 O   0  0  0  0  0  0
  -26.5587  -34.8942   22.4699 O   0  0  0  0  0  0
  -23.5291  -32.1426   23.7544 O   0  0  0  0  0  0
  -29.8628  -21.7471   22.7171 C   0  0  0  0  0  0
  -30.7869  -19.8591   20.9657 C   0  0  0  0  0  0
  -29.7924  -20.4014   23.1138 C   0  0  0  0  0  0
  -30.2876  -19.4269   22.2123 C   0  0  0  0  0  0
  -30.3392  -22.0700   21.4423 C   0  0  0  0  0  0
  -27.8592  -19.3170   24.5284 C   0  0  0  0  0  0
  -27.9118  -20.7770   24.9027 C   0  0  0  0  0  0
  -29.1614  -17.2548   21.6478 C   0  0  0  0  0  0
  -31.5695  -17.2030   22.3848 C   0  0  0  0  0  0
  -29.0695  -15.7639   21.9762 C   0  0  0  0  0  0
  -31.3976  -15.6964   22.6784 C   0  0  0  0  0  0
  -29.1690  -20.0698   24.4403 C   0  0  0  0  0  0
  -30.2206  -17.9358   22.5216 C   0  0  0  0  0  0
  -30.0451  -25.1604   19.5039 C   0  0  0  0  0  0
  -28.5646  -25.4709   19.7654 C   0  0  0  0  0  0
  -30.3670  -23.6733   19.6591 C   0  0  0  0  0  0
  -30.8042  -21.1476   20.5756 N   0  0  0  0  0  0
  -30.3749  -15.0943   21.8059 N   0  0  0  0  0  0
  -30.2978  -23.3844   21.0503 O   0  0  0  0  0  0
  -31.4630  -12.4517   19.0596 H   0  0  0  0  0  0
  -30.3692  -11.2804   19.7255 H   0  0  0  0  0  0
  -29.7139  -11.8287   17.3790 H   0  0  0  0  0  0
  -29.6372  -13.5293   17.7678 H   0  0  0  0  0  0
  -27.8129  -11.3127   18.7659 H   0  0  0  0  0  0
  -27.3478  -12.6739   17.7813 H   0  0  0  0  0  0
  -27.7317  -14.2293   19.6021 H   0  0  0  0  0  0
  -28.7006  -11.7927   21.1899 H   0  0  0  0  0  0
  -28.4621  -13.3080   21.9379 H   0  0  0  0  0  0
  -25.2743   -9.5689   22.4740 H   0  0  0  0  0  0
  -23.9967   -7.4649   22.7490 H   0  0  0  0  0  0
  -21.0807   -8.8753   19.8956 H   0  0  0  0  0  0
  -22.3647  -10.9662   19.6146 H   0  0  0  0  0  0
  -21.2042   -7.6143   23.9698 H   0  0  0  0  0  0
  -21.1462   -6.0525   25.9066 H   0  0  0  0  0  0
  -22.0619   -2.7600   23.2847 H   0  0  0  0  0  0
  -22.4150  -11.9919   22.4766 H   0  0  0  0  0  0
  -21.1153  -13.1286   22.2564 H   0  0  0  0  0  0
  -24.6723  -15.8354   20.5132 H   0  0  0  0  0  0
  -26.2921  -15.6201   20.0789 H   0  0  0  0  0  0
  -26.7075  -32.5572   23.1186 H   0  0  0  0  0  0
  -25.0030  -33.9802   25.0477 H   0  0  0  0  0  0
  -22.6810  -31.3087   21.4122 H   0  0  0  0  0  0
  -23.3764  -35.9651   23.3281 H   0  0  0  0  0  0
  -24.3591  -36.8964   22.2061 H   0  0  0  0  0  0
  -23.7246  -37.6529   23.6670 H   0  0  0  0  0  0
  -26.0114  -31.6123   20.5794 H   0  0  0  0  0  0
  -26.8121  -30.9156   21.9606 H   0  0  0  0  0  0
  -28.0967  -29.1640   21.1203 H   0  0  0  0  0  0
  -26.0526  -25.9851   19.0164 H   0  0  0  0  0  0
  -23.9761  -27.2698   19.0719 H   0  0  0  0  0  0
  -23.7040  -30.5884   19.4030 H   0  0  0  0  0  0
  -22.7255  -29.2324   19.8792 H   0  0  0  0  0  0
  -25.1280  -36.1990   25.0837 H   0  0  0  0  0  0
  -20.9953  -28.3227   24.1467 H   0  0  0  0  0  0
  -20.5644  -26.2262   23.3609 H   0  0  0  0  0  0
  -21.6631  -26.7458   22.1223 H   0  0  0  0  0  0
  -19.6900  -25.6325   21.1215 H   0  0  0  0  0  0
  -19.6682  -27.3221   20.6749 H   0  0  0  0  0  0
  -17.4194  -26.6701   21.4021 H   0  0  0  0  0  0
  -18.0302  -26.0070   22.9013 H   0  0  0  0  0  0
  -19.7921  -30.7258   24.2300 H   0  0  0  0  0  0
  -17.5014  -31.6265   24.5181 H   0  0  0  0  0  0
  -15.5343  -30.3013   23.7645 H   0  0  0  0  0  0
  -15.8646  -28.0855   22.7025 H   0  0  0  0  0  0
  -24.5949  -30.6952   25.7806 H   0  0  0  0  0  0
  -24.8878  -32.2778   26.4912 H   0  0  0  0  0  0
  -25.8122  -30.8846   27.0212 H   0  0  0  0  0  0
  -26.2803  -29.6830   24.1096 H   0  0  0  0  0  0
  -27.4126  -29.7275   25.4436 H   0  0  0  0  0  0
  -27.8604  -30.4420   23.9106 H   0  0  0  0  0  0
  -27.2652  -33.3587   26.2089 H   0  0  0  0  0  0
  -28.3842  -32.6842   25.0312 H   0  0  0  0  0  0
  -28.0689  -31.8387   26.5387 H   0  0  0  0  0  0
  -28.2591  -38.0123   24.7531 H   0  0  0  0  0  0
  -28.1095  -36.2665   24.6277 H   0  0  0  0  0  0
  -27.2310  -37.1449   25.8867 H   0  0  0  0  0  0
  -20.9241  -29.8776   21.6999 H   0  0  0  0  0  0
  -26.0190  -38.2884   24.1419 H   0  0  0  0  0  0
  -29.5023  -22.5313   23.3675 H   0  0  0  0  0  0
  -31.1509  -19.1495   20.2379 H   0  0  0  0  0  0
  -27.3610  -19.0566   23.5967 H   0  0  0  0  0  0
  -27.7330  -18.6043   25.3409 H   0  0  0  0  0  0
  -27.8275  -21.0241   25.9591 H   0  0  0  0  0  0
  -27.4254  -21.4713   24.2194 H   0  0  0  0  0  0
  -28.1863  -17.7208   21.7975 H   0  0  0  0  0  0
  -29.4003  -17.3765   20.5903 H   0  0  0  0  0  0
  -31.9817  -17.3254   21.3825 H   0  0  0  0  0  0
  -32.2987  -17.6322   23.0727 H   0  0  0  0  0  0
  -28.2912  -15.3698   21.3351 H   0  0  0  0  0  0
  -28.7215  -15.6170   22.9998 H   0  0  0  0  0  0
  -31.0975  -15.5535   23.7175 H   0  0  0  0  0  0
  -32.3563  -15.1840   22.5786 H   0  0  0  0  0  0
  -29.9303  -19.8578   25.1886 H   0  0  0  0  0  0
  -29.9180  -17.8033   23.5589 H   0  0  0  0  0  0
  -30.6799  -25.7292   20.1843 H   0  0  0  0  0  0
  -30.3064  -25.4924   18.4994 H   0  0  0  0  0  0
  -28.1952  -24.9265   20.6358 H   0  0  0  0  0  0
  -27.9879  -25.1594   18.8954 H   0  0  0  0  0  0
  -31.3656  -23.4582   19.2772 H   0  0  0  0  0  0
  -29.6479  -23.0731   19.0962 H   0  0  0  0  0  0
  1 25  1  0  0  0
  1 30  2  0  0  0
  1 88  1  0  0  0
  2  3  1  0  0  0
  2 25  1  0  0  0
  2 90  1  0  0  0
  2 91  1  0  0  0
  3  4  1  0  0  0
  3 92  1  0  0  0
  3 93  1  0  0  0
  4  5  1  0  0  0
  4 94  1  0  0  0
  4 95  1  0  0  0
  5  6  1  0  0  0
  5 26  1  0  0  0
  5 96  1  0  0  0
  6 25  1  0  0  0
  6 97  1  0  0  0
  6 98  1  0  0  0
  7  8  2  0  0  0
  7 26  1  0  0  0
  7 29  1  0  0  0
  8  9  1  0  0  0
  8 22  1  0  0  0
  9 10  1  0  0  0
  9 27  2  0  0  0
 10 11  2  0  0  0
 10 15  1  0  0  0
 11 12  1  0  0  0
 11 99  1  0  0  0
 12 13  2  0  0  0
 12100  1  0  0  0
 13 14  1  0  0  0
 13 31  1  0  0  0
 14 15  2  0  0  0
 14101  1  0  0  0
 15102  1  0  0  0
 16 17  2  0  0  0
 16 21  1  0  0  0
 16 31  1  0  0  0
 17 18  1  0  0  0
 17103  1  0  0  0
 18 19  2  0  0  0
 18104  1  0  0  0
 19 20  1  0  0  0
 19 24  1  0  0  0
 20 21  2  0  0  0
 20105  1  0  0  0
 21 23  1  0  0  0
 22 28  1  0  0  0
 22 32  2  0  0  0
 26 27  1  0  0  0
 28106  1  0  0  0
 28107  1  0  0  0
 29108  1  0  0  0
 29109  1  0  0  0
 33 34  1  0  0  0
 33 66  1  0  0  0
 33 70  2  0  0  0
 34 36  1  0  0  0
 34 59  1  0  0  0
 34110  1  0  0  0
 35 44  2  0  0  0
 35 45  1  0  0  0
 35 68  1  0  0  0
 36 56  1  0  0  0
 36111  1  0  0  0
 37 39  1  0  0  0
 37 47  1  0  0  0
 37 66  1  0  0  0
 37112  1  0  0  0
 38 43  2  0  0  0
 38 46  1  0  0  0
 38 47  1  0  0  0
 39 64  1  0  0  0
 39 67  2  0  0  0
 40 52  1  0  0  0
 40 53  2  0  0  0
 40 58  1  0  0  0
 41113  1  0  0  0
 41114  1  0  0  0
 41115  1  0  0  0
 41 48  1  0  0  0
 42 43  1  0  0  0
 42 66  1  0  0  0
 42116  1  0  0  0
 42117  1  0  0  0
 43 44  1  0  0  0
 44118  1  0  0  0
 45 46  2  0  0  0
 45119  1  0  0  0
 46120  1  0  0  0
 47121  1  0  0  0
 47122  1  0  0  0
 48 56  1  0  0  0
 48 65  1  0  0  0
 48123  1  0  0  0
 49 50  1  0  0  0
 49 53  1  0  0  0
 49 64  1  0  0  0
 49124  1  0  0  0
 50 51  1  0  0  0
 50125  1  0  0  0
 50126  1  0  0  0
 51 52  1  0  0  0
 51127  1  0  0  0
 51128  1  0  0  0
 52129  1  0  0  0
 52130  1  0  0  0
 53 54  1  0  0  0
 54 55  2  0  0  0
 54131  1  0  0  0
 55 57  1  0  0  0
 55132  1  0  0  0
 56 69  2  0  0  0
 57 58  2  0  0  0
 57133  1  0  0  0
 58134  1  0  0  0
 59 60  1  0  0  0
 59 61  1  0  0  0
 59 62  1  0  0  0
 60135  1  0  0  0
 60136  1  0  0  0
 60137  1  0  0  0
 61138  1  0  0  0
 61139  1  0  0  0
 61140  1  0  0  0
 62141  1  0  0  0
 62142  1  0  0  0
 62143  1  0  0  0
 63 65  1  0  0  0
 63144  1  0  0  0
 63145  1  0  0  0
 63146  1  0  0  0
 64147  1  0  0  0
 65148  1  0  0  0
 68 85  1  0  0  0
 71 73  2  0  0  0
 71 75  1  0  0  0
 71149  1  0  0  0
 72 74  2  0  0  0
 72 87  1  0  0  0
 72150  1  0  0  0
 73 74  1  0  0  0
 73 82  1  0  0  0
 74 83  1  0  0  0
 75 87  2  0  0  0
 75 89  1  0  0  0
 76 77  1  0  0  0
 76 82  1  0  0  0
 76151  1  0  0  0
 76152  1  0  0  0
 77 82  1  0  0  0
 77153  1  0  0  0
 77154  1  0  0  0
 78 80  1  0  0  0
 78 83  1  0  0  0
 78155  1  0  0  0
 78156  1  0  0  0
 79 81  1  0  0  0
 79 83  1  0  0  0
 79157  1  0  0  0
 79158  1  0  0  0
 80 88  1  0  0  0
 80159  1  0  0  0
 80160  1  0  0  0
 81 88  1  0  0  0
 81161  1  0  0  0
 81162  1  0  0  0
 82163  1  0  0  0
 83164  1  0  0  0
 84 85  1  0  0  0
 84 86  1  0  0  0
 84165  1  0  0  0
 84166  1  0  0  0
 85167  1  0  0  0
 85168  1  0  0  0
 86 89  1  0  0  0
 86169  1  0  0  0
 86170  1  0  0  0
M  ISO  4   1 100  68 101  85 101  88 100
M  END
> <chiral flag>
0

> <version>
0

> <s_m_source_file>
/data/baiqing/PycharmProjects/Reinvent-master-3.2/result/LINK_invent/BTK/process_docking_weight1_custom_sum_contain_oxygen_bond_distance_aromatic_linkinvent_7_9_3/rearranged_h_0151.sdf

> <i_m_source_file_index>
79

> <r_mmod_Potential_Energy-OPLS-2005>
-4.76537752151489

> <r_mmod_Stretch_Energy-OPLS-2005>
34.9879112243652

> <r_mmod_Bend_Energy-OPLS-2005>
115.678512573242

> <r_mmod_Torsional_Energy-OPLS-2005>
318.085601806641

> <r_mmod_Improper_Torsional_Energy-OPLS-2005>
6.56872606277466

> <r_mmod_Van_der_Waal_Energy-OPLS-2005>
176.841110229492

> <r_mmod_Electrostatic_Energy-OPLS-2005>
-461.267639160156

> <r_mmod_Solvation_Energy-OPLS-2005>
-205.737609863281

> <b_mmod_Minimization_Converged-OPLS-2005>
0

> <r_mmod_RMS_Derivative-OPLS-2005>
1.91598200798035

$$$$
79
                    3D
 Structure written by MMmdl.
168177  0  0  1  0            999 V2000
  -30.7289  -14.3935   20.6749 C   0  0  0  0  0  0
  -30.4250  -12.3026   19.3939 C   0  0  0  0  0  0
  -29.4886  -12.5334   18.1914 C   0  0  0  0  0  0
  -28.0118  -12.3851   18.6070 C   0  0  0  0  0  0
  -27.6670  -13.2004   19.8817 C   0  0  2  0  0  0
  -28.7039  -12.9240   20.9918 C   0  0  0  0  0  0
  -25.2607  -13.8150   20.5667 C   0  0  0  0  0  0
  -24.1845  -13.0438   20.9167 C   0  0  0  0  0  0
  -24.6389  -11.6900   20.8719 C   0  0  0  0  0  0
  -23.9052  -10.4290   21.0394 C   0  0  0  0  0  0
  -24.3606   -9.4209   21.9175 C   0  0  0  0  0  0
  -23.6283   -8.2244   22.0753 C   0  0  0  0  0  0
  -22.4270   -8.0276   21.3543 C   0  0  0  0  0  0
  -21.9898   -9.0249   20.4649 C   0  0  0  0  0  0
  -22.7224  -10.2131   20.3051 C   0  0  0  0  0  0
  -21.6852   -6.0731   22.5278 C   0  0  0  0  0  0
  -21.4014   -6.5635   23.8211 C   0  0  0  0  0  0
  -21.3661   -5.6789   24.9172 C   0  0  0  0  0  0
  -21.6045   -4.3051   24.7223 C   0  0  0  0  0  0
  -21.8819   -3.8145   23.4346 C   0  0  0  0  0  0
  -21.9194   -4.6957   22.3404 C   0  0  0  0  0  0
  -22.7875  -13.5242   21.1839 C   0  0  0  0  0  0
  -22.1660   -4.2142   21.0981 F   0  0  0  0  0  0
  -21.5629   -3.4537   25.7738 F   0  0  0  0  0  0
  -30.0431  -13.2406   20.4587 N   0  0  0  0  0  0
  -26.3042  -12.9309   20.3377 N   0  0  0  0  0  0
  -25.9311  -11.6473   20.5741 N   0  0  0  0  0  0
  -22.0514  -12.8236   22.0396 N   0  0  0  0  0  0
  -25.4361  -15.1861   20.4075 N   0  0  0  0  0  0
  -31.7690  -14.6938   20.0831 O   0  0  0  0  0  0
  -21.6638   -6.8870   21.4238 O   0  0  0  0  0  0
  -22.3564  -14.5555   20.6696 O   0  0  0  0  0  0
  -24.6139  -31.8671   23.2116 C   0  0  0  0  0  0
  -25.9032  -32.4818   23.8396 C   0  0  1  0  0  0
  -27.2342  -27.4488   20.0902 C   0  0  0  0  0  0
  -25.5889  -33.8618   24.2320 N   0  0  0  0  0  0
  -23.4002  -30.4917   21.5533 C   0  0  2  0  0  0
  -24.8461  -28.9530   20.1227 C   0  0  0  0  0  0
  -22.7397  -29.4653   22.5007 C   0  0  0  0  0  0
  -18.0254  -28.1356   22.8470 C   0  0  0  0  0  0
  -24.1495  -36.7319   23.2643 C   0  0  0  0  0  0
  -25.9278  -30.8357   21.3625 C   0  0  0  0  0  0
  -26.0055  -29.4684   20.7173 C   0  0  0  0  0  0
  -27.2051  -28.7225   20.7000 C   0  0  0  0  0  0
  -26.0626  -26.9422   19.4935 C   0  0  0  0  0  0
  -24.8684  -27.6865   19.5112 C   0  0  0  0  0  0
  -23.6080  -29.8207   20.1699 C   0  0  0  0  0  0
  -25.4104  -36.3107   24.0344 C   0  0  1  0  0  0
  -20.5845  -28.3637   23.1318 C   0  0  2  0  0  0
  -20.6749  -26.9366   22.5421 C   0  0  0  0  0  0
  -19.5744  -26.6359   21.5200 C   0  0  0  0  0  0
  -18.1916  -26.7897   22.1605 C   0  0  0  0  0  0
  -19.1505  -28.8805   23.2895 C   0  0  0  0  0  0
  -18.9445  -30.1412   23.8901 C   0  0  0  0  0  0
  -17.6454  -30.6565   24.0549 C   0  0  0  0  0  0
  -25.9032  -34.9477   23.5128 C   0  0  0  0  0  0
  -16.5339  -29.9068   23.6326 C   0  0  0  0  0  0
  -16.7248  -28.6487   23.0337 C   0  0  0  0  0  0
  -26.4463  -31.6601   25.0723 C   0  0  0  0  0  0
  -25.3727  -31.3715   26.1475 C   0  0  0  0  0  0
  -27.0278  -30.3053   24.6064 C   0  0  0  0  0  0
  -27.6045  -32.4316   25.7475 C   0  0  0  0  0  0
  -27.5579  -37.1808   24.8464 C   0  0  0  0  0  0
  -21.4124  -29.3023   22.3746 N   0  0  0  0  0  0
  -26.4288  -37.3786   23.9415 N   0  0  0  0  0  0
  -24.6662  -31.0785   22.1015 N   0  0  0  0  0  0
  -23.4180  -28.8179   23.3026 O   0  0  0  0  0  0
  -28.4084  -26.7428   19.9926 O   0  0  0  0  0  0
  -26.5596  -34.8918   22.4693 O   0  0  0  0  0  0
  -23.5340  -32.1410   23.7532 O   0  0  0  0  0  0
  -26.9612  -21.7541   21.5235 C   0  0  0  0  0  0
  -29.2748  -21.0466   21.4859 C   0  0  0  0  0  0
  -27.5627  -19.5119   22.3369 C   0  0  0  0  0  0
  -26.5826  -20.5029   22.0558 C   0  0  0  0  0  0
  -28.3193  -22.0642   21.2869 C   0  0  0  0  0  0
  -28.9126  -19.7690   21.9655 C   0  0  0  0  0  0
  -26.6332  -18.2262   24.4514 C   0  0  0  0  0  0
  -27.9981  -17.6571   24.1747 C   0  0  0  0  0  0
  -27.1751  -18.2265   23.0346 C   0  0  0  0  0  0
  -24.4364  -19.4836   21.1655 C   0  0  0  0  0  0
  -25.0977  -20.2642   22.3063 C   0  0  0  0  0  0
  -30.6300  -16.5278   22.0000 C   0  0  0  0  0  0
  -29.8237  -17.6565   21.3267 C   0  0  0  0  0  0
  -28.6221  -25.7283   20.9741 C   0  0  0  0  0  0
  -27.8864  -24.3984   20.6928 C   0  0  0  0  0  0
  -30.1740  -15.2025   21.5847 N   0  0  0  0  0  0
  -28.7880  -23.2989   20.8766 O   0  0  0  0  0  0
  -29.9204  -18.8416   22.1207 O   0  0  0  0  0  0
  -31.4679  -12.4187   19.0931 H   0  0  0  0  0  0
  -30.3342  -11.2778   19.7565 H   0  0  0  0  0  0
  -29.7243  -11.8300   17.3924 H   0  0  0  0  0  0
  -29.6541  -13.5308   17.7811 H   0  0  0  0  0  0
  -27.8198  -11.3258   18.7810 H   0  0  0  0  0  0
  -27.3584  -12.6780   17.7845 H   0  0  0  0  0  0
  -27.7290  -14.2571   19.6199 H   0  0  0  0  0  0
  -28.6744  -11.8710   21.2754 H   0  0  0  0  0  0
  -28.4466  -13.4665   21.9019 H   0  0  0  0  0  0
  -25.2753   -9.5677   22.4741 H   0  0  0  0  0  0
  -23.9996   -7.4631   22.7469 H   0  0  0  0  0  0
  -21.0834   -8.8766   19.8954 H   0  0  0  0  0  0
  -22.3687  -10.9663   19.6155 H   0  0  0  0  0  0
  -21.2010   -7.6144   23.9711 H   0  0  0  0  0  0
  -21.1482   -6.0520   25.9072 H   0  0  0  0  0  0
  -22.0602   -2.7605   23.2851 H   0  0  0  0  0  0
  -22.4137  -11.9888   22.4760 H   0  0  0  0  0  0
  -21.1135  -13.1262   22.2609 H   0  0  0  0  0  0
  -24.6693  -15.8418   20.5024 H   0  0  0  0  0  0
  -26.2911  -15.6173   20.0797 H   0  0  0  0  0  0
  -26.7091  -32.5520   23.1151 H   0  0  0  0  0  0
  -25.0071  -33.9785   25.0482 H   0  0  0  0  0  0
  -22.6890  -31.3094   21.4141 H   0  0  0  0  0  0
  -23.3749  -35.9662   23.3311 H   0  0  0  0  0  0
  -24.3593  -36.8915   22.2057 H   0  0  0  0  0  0
  -23.7255  -37.6533   23.6644 H   0  0  0  0  0  0
  -26.0358  -31.5982   20.5899 H   0  0  0  0  0  0
  -26.8198  -30.8917   21.9760 H   0  0  0  0  0  0
  -28.1078  -29.1276   21.1363 H   0  0  0  0  0  0
  -26.0739  -25.9837   18.9948 H   0  0  0  0  0  0
  -23.9791  -27.2863   19.0451 H   0  0  0  0  0  0
  -23.7118  -30.5953   19.4087 H   0  0  0  0  0  0
  -22.7310  -29.2418   19.8748 H   0  0  0  0  0  0
  -25.1281  -36.1982   25.0835 H   0  0  0  0  0  0
  -20.9928  -28.3175   24.1441 H   0  0  0  0  0  0
  -20.5632  -26.2223   23.3594 H   0  0  0  0  0  0
  -21.6619  -26.7385   22.1222 H   0  0  0  0  0  0
  -19.6920  -25.6279   21.1211 H   0  0  0  0  0  0
  -19.6710  -27.3179   20.6738 H   0  0  0  0  0  0
  -17.4189  -26.6632   21.4008 H   0  0  0  0  0  0
  -18.0314  -26.0028   22.8985 H   0  0  0  0  0  0
  -19.7933  -30.7215   24.2272 H   0  0  0  0  0  0
  -17.5020  -31.6254   24.5140 H   0  0  0  0  0  0
  -15.5349  -30.2982   23.7656 H   0  0  0  0  0  0
  -15.8636  -28.0829   22.7046 H   0  0  0  0  0  0
  -24.5906  -30.7039   25.7830 H   0  0  0  0  0  0
  -24.8903  -32.2880   26.4905 H   0  0  0  0  0  0
  -25.8078  -30.8913   27.0250 H   0  0  0  0  0  0
  -26.2805  -29.6838   24.1116 H   0  0  0  0  0  0
  -27.4078  -29.7264   25.4490 H   0  0  0  0  0  0
  -27.8623  -30.4400   23.9172 H   0  0  0  0  0  0
  -27.2670  -33.3610   26.2072 H   0  0  0  0  0  0
  -28.3833  -32.6878   25.0278 H   0  0  0  0  0  0
  -28.0727  -31.8426   26.5370 H   0  0  0  0  0  0
  -28.2598  -38.0106   24.7496 H   0  0  0  0  0  0
  -28.1073  -36.2632   24.6293 H   0  0  0  0  0  0
  -27.2307  -37.1462   25.8872 H   0  0  0  0  0  0
  -20.9264  -29.8772   21.7001 H   0  0  0  0  0  0
  -26.0190  -38.2873   24.1400 H   0  0  0  0  0  0
  -26.1801  -22.4705   21.3242 H   0  0  0  0  0  0
  -30.3145  -21.2528   21.2744 H   0  0  0  0  0  0
  -26.5937  -19.1722   24.9888 H   0  0  0  0  0  0
  -25.8358  -17.5231   24.6865 H   0  0  0  0  0  0
  -28.1042  -16.5759   24.2379 H   0  0  0  0  0  0
  -28.8516  -18.2315   24.5313 H   0  0  0  0  0  0
  -26.7311  -17.5214   22.3341 H   0  0  0  0  0  0
  -23.3783  -19.3236   21.3715 H   0  0  0  0  0  0
  -24.8982  -18.5058   21.0307 H   0  0  0  0  0  0
  -24.5097  -20.0260   20.2224 H   0  0  0  0  0  0
  -24.5921  -21.2238   22.4210 H   0  0  0  0  0  0
  -24.9346  -19.7514   23.2516 H   0  0  0  0  0  0
  -30.4919  -16.5825   23.0802 H   0  0  0  0  0  0
  -31.6979  -16.6650   21.8268 H   0  0  0  0  0  0
  -28.7900  -17.3441   21.1857 H   0  0  0  0  0  0
  -30.2189  -17.8548   20.3301 H   0  0  0  0  0  0
  -29.6964  -25.5430   20.9725 H   0  0  0  0  0  0
  -28.3870  -26.0951   21.9747 H   0  0  0  0  0  0
  -27.5348  -24.3602   19.6617 H   0  0  0  0  0  0
  -27.0125  -24.3751   21.3400 H   0  0  0  0  0  0
  -29.3344  -14.8553   22.0232 H   0  0  0  0  0  0
  1 25  1  0  0  0
  1 30  2  0  0  0
  1 86  1  0  0  0
  2  3  1  0  0  0
  2 25  1  0  0  0
  2 89  1  0  0  0
  2 90  1  0  0  0
  3  4  1  0  0  0
  3 91  1  0  0  0
  3 92  1  0  0  0
  4  5  1  0  0  0
  4 93  1  0  0  0
  4 94  1  0  0  0
  5  6  1  0  0  0
  5 26  1  0  0  0
  5 95  1  0  0  0
  6 25  1  0  0  0
  6 96  1  0  0  0
  6 97  1  0  0  0
  7  8  2  0  0  0
  7 26  1  0  0  0
  7 29  1  0  0  0
  8  9  1  0  0  0
  8 22  1  0  0  0
  9 10  1  0  0  0
  9 27  2  0  0  0
 10 11  2  0  0  0
 10 15  1  0  0  0
 11 12  1  0  0  0
 11 98  1  0  0  0
 12 13  2  0  0  0
 12 99  1  0  0  0
 13 14  1  0  0  0
 13 31  1  0  0  0
 14 15  2  0  0  0
 14100  1  0  0  0
 15101  1  0  0  0
 16 17  2  0  0  0
 16 21  1  0  0  0
 16 31  1  0  0  0
 17 18  1  0  0  0
 17102  1  0  0  0
 18 19  2  0  0  0
 18103  1  0  0  0
 19 20  1  0  0  0
 19 24  1  0  0  0
 20 21  2  0  0  0
 20104  1  0  0  0
 21 23  1  0  0  0
 22 28  1  0  0  0
 22 32  2  0  0  0
 26 27  1  0  0  0
 28105  1  0  0  0
 28106  1  0  0  0
 29107  1  0  0  0
 29108  1  0  0  0
 33 34  1  0  0  0
 33 66  1  0  0  0
 33 70  2  0  0  0
 34 36  1  0  0  0
 34 59  1  0  0  0
 34109  1  0  0  0
 35 44  2  0  0  0
 35 45  1  0  0  0
 35 68  1  0  0  0
 36 56  1  0  0  0
 36110  1  0  0  0
 37 39  1  0  0  0
 37 47  1  0  0  0
 37 66  1  0  0  0
 37111  1  0  0  0
 38 43  2  0  0  0
 38 46  1  0  0  0
 38 47  1  0  0  0
 39 64  1  0  0  0
 39 67  2  0  0  0
 40 52  1  0  0  0
 40 53  2  0  0  0
 40 58  1  0  0  0
 41112  1  0  0  0
 41113  1  0  0  0
 41114  1  0  0  0
 41 48  1  0  0  0
 42 43  1  0  0  0
 42 66  1  0  0  0
 42115  1  0  0  0
 42116  1  0  0  0
 43 44  1  0  0  0
 44117  1  0  0  0
 45 46  2  0  0  0
 45118  1  0  0  0
 46119  1  0  0  0
 47120  1  0  0  0
 47121  1  0  0  0
 48 56  1  0  0  0
 48 65  1  0  0  0
 48122  1  0  0  0
 49 50  1  0  0  0
 49 53  1  0  0  0
 49 64  1  0  0  0
 49123  1  0  0  0
 50 51  1  0  0  0
 50124  1  0  0  0
 50125  1  0  0  0
 51 52  1  0  0  0
 51126  1  0  0  0
 51127  1  0  0  0
 52128  1  0  0  0
 52129  1  0  0  0
 53 54  1  0  0  0
 54 55  2  0  0  0
 54130  1  0  0  0
 55 57  1  0  0  0
 55131  1  0  0  0
 56 69  2  0  0  0
 57 58  2  0  0  0
 57132  1  0  0  0
 58133  1  0  0  0
 59 60  1  0  0  0
 59 61  1  0  0  0
 59 62  1  0  0  0
 60134  1  0  0  0
 60135  1  0  0  0
 60136  1  0  0  0
 61137  1  0  0  0
 61138  1  0  0  0
 61139  1  0  0  0
 62140  1  0  0  0
 62141  1  0  0  0
 62142  1  0  0  0
 63 65  1  0  0  0
 63143  1  0  0  0
 63144  1  0  0  0
 63145  1  0  0  0
 64146  1  0  0  0
 65147  1  0  0  0
 68 84  1  0  0  0
 71 74  2  0  0  0
 71 75  1  0  0  0
 71148  1  0  0  0
 72 75  2  0  0  0
 72 76  1  0  0  0
 72149  1  0  0  0
 73 74  1  0  0  0
 73 76  2  0  0  0
 73 79  1  0  0  0
 74 81  1  0  0  0
 75 87  1  0  0  0
 76 88  1  0  0  0
 77 78  1  0  0  0
 77 79  1  0  0  0
 77150  1  0  0  0
 77151  1  0  0  0
 78 79  1  0  0  0
 78152  1  0  0  0
 78153  1  0  0  0
 79154  1  0  0  0
 80 81  1  0  0  0
 80155  1  0  0  0
 80156  1  0  0  0
 80157  1  0  0  0
 81158  1  0  0  0
 81159  1  0  0  0
 82 83  1  0  0  0
 82 86  1  0  0  0
 82160  1  0  0  0
 82161  1  0  0  0
 83 88  1  0  0  0
 83162  1  0  0  0
 83163  1  0  0  0
 84 85  1  0  0  0
 84164  1  0  0  0
 84165  1  0  0  0
 85 87  1  0  0  0
 85166  1  0  0  0
 85167  1  0  0  0
 86168  1  0  0  0
M  ISO  4   1 100  68 101  84 101  86 100
M  END
> <chiral flag>
0

> <version>
0

> <s_m_source_file>
/data/baiqing/PycharmProjects/Reinvent-master-3.2/result/LINK_invent/BTK/process_docking_weight1_custom_sum_contain_oxygen_bond_distance_aromatic_linkinvent_7_9_3/rearranged_h_0151.sdf

> <i_m_source_file_index>
80

> <r_mmod_Potential_Energy-OPLS-2005>
-46.5905494689941

> <r_mmod_Stretch_Energy-OPLS-2005>
36.0482368469238

> <r_mmod_Bend_Energy-OPLS-2005>
106.962631225586

> <r_mmod_Torsional_Energy-OPLS-2005>
278.938598632812

> <r_mmod_Improper_Torsional_Energy-OPLS-2005>
2.18265509605408

> <r_mmod_Van_der_Waal_Energy-OPLS-2005>
148.508773803711

> <r_mmod_Electrostatic_Energy-OPLS-2005>
-418.054138183594

> <r_mmod_Solvation_Energy-OPLS-2005>
-208.565093994141

> <b_mmod_Minimization_Converged-OPLS-2005>
0

> <r_mmod_RMS_Derivative-OPLS-2005>
1.90978527069092

$$$$
80
                    3D
 Structure written by MMmdl.
154162  0  0  1  0            999 V2000
  -30.6026  -14.7648   20.4455 C   0  0  0  0  0  0
  -30.4335  -12.4618   19.4884 C   0  0  0  0  0  0
  -29.5152  -12.5114   18.2464 C   0  0  0  0  0  0
  -28.0406  -12.3335   18.6557 C   0  0  0  0  0  0
  -27.6431  -13.2345   19.8555 C   0  0  2  0  0  0
  -28.6859  -13.1761   20.9949 C   0  0  0  0  0  0
  -25.2507  -13.8200   20.5702 C   0  0  0  0  0  0
  -24.1801  -13.0441   20.9210 C   0  0  0  0  0  0
  -24.6396  -11.6920   20.8751 C   0  0  0  0  0  0
  -23.9074  -10.4294   21.0408 C   0  0  0  0  0  0
  -24.3622   -9.4208   21.9186 C   0  0  0  0  0  0
  -23.6295   -8.2245   22.0756 C   0  0  0  0  0  0
  -22.4278   -8.0283   21.3546 C   0  0  0  0  0  0
  -21.9915   -9.0257   20.4648 C   0  0  0  0  0  0
  -22.7245  -10.2135   20.3057 C   0  0  0  0  0  0
  -21.6854   -6.0737   22.5279 C   0  0  0  0  0  0
  -21.4015   -6.5641   23.8212 C   0  0  0  0  0  0
  -21.3659   -5.6793   24.9174 C   0  0  0  0  0  0
  -21.6043   -4.3056   24.7225 C   0  0  0  0  0  0
  -21.8818   -3.8148   23.4347 C   0  0  0  0  0  0
  -21.9193   -4.6964   22.3402 C   0  0  0  0  0  0
  -22.7820  -13.5220   21.1866 C   0  0  0  0  0  0
  -22.1661   -4.2150   21.0980 F   0  0  0  0  0  0
  -21.5628   -3.4538   25.7738 F   0  0  0  0  0  0
  -29.9893  -13.5292   20.4181 N   0  0  0  0  0  0
  -26.2942  -12.9414   20.3303 N   0  0  0  0  0  0
  -25.9331  -11.6553   20.5764 N   0  0  0  0  0  0
  -22.0467  -12.8209   22.0422 N   0  0  0  0  0  0
  -25.4183  -15.1926   20.4110 N   0  0  0  0  0  0
  -31.7808  -14.8639   20.0923 O   0  0  0  0  0  0
  -21.6642   -6.8880   21.4241 O   0  0  0  0  0  0
  -22.3503  -14.5525   20.6713 O   0  0  0  0  0  0
  -24.6332  -31.8533   23.1974 C   0  0  0  0  0  0
  -25.9152  -32.4741   23.8322 C   0  0  1  0  0  0
  -27.2163  -27.2378   20.1305 C   0  0  0  0  0  0
  -25.5941  -33.8546   24.2242 N   0  0  0  0  0  0
  -23.4309  -30.4761   21.5412 C   0  0  2  0  0  0
  -24.8782  -28.9230   20.1069 C   0  0  0  0  0  0
  -22.7514  -29.4590   22.4903 C   0  0  0  0  0  0
  -18.0294  -28.1388   22.8481 C   0  0  0  0  0  0
  -24.1491  -36.7278   23.2641 C   0  0  0  0  0  0
  -25.9791  -30.7573   21.3830 C   0  0  0  0  0  0
  -26.0499  -29.3789   20.7235 C   0  0  0  0  0  0
  -27.2194  -28.5481   20.7267 C   0  0  0  0  0  0
  -26.0259  -26.8683   19.4626 C   0  0  0  0  0  0
  -24.8732  -27.6771   19.4643 C   0  0  0  0  0  0
  -23.6500  -29.8121   20.1567 C   0  0  0  0  0  0
  -25.4118  -36.3061   24.0323 C   0  0  1  0  0  0
  -20.5899  -28.3702   23.1262 C   0  0  2  0  0  0
  -20.6782  -26.9417   22.5407 C   0  0  0  0  0  0
  -19.5758  -26.6382   21.5212 C   0  0  0  0  0  0
  -18.1938  -26.7928   22.1623 C   0  0  0  0  0  0
  -19.1548  -28.8863   23.2864 C   0  0  0  0  0  0
  -18.9468  -30.1464   23.8883 C   0  0  0  0  0  0
  -17.6467  -30.6588   24.0562 C   0  0  0  0  0  0
  -25.9062  -34.9432   23.5086 C   0  0  0  0  0  0
  -16.5358  -29.9083   23.6335 C   0  0  0  0  0  0
  -16.7280  -28.6502   23.0353 C   0  0  0  0  0  0
  -26.4507  -31.6577   25.0726 C   0  0  0  0  0  0
  -25.3719  -31.3735   26.1438 C   0  0  0  0  0  0
  -27.0367  -30.2988   24.6243 C   0  0  0  0  0  0
  -27.6052  -32.4329   25.7503 C   0  0  0  0  0  0
  -27.5577  -37.1796   24.8465 C   0  0  0  0  0  0
  -21.4219  -29.3042   22.3648 N   0  0  0  0  0  0
  -26.4289  -37.3764   23.9408 N   0  0  0  0  0  0
  -24.7002  -31.0476   22.0964 N   0  0  0  0  0  0
  -23.4205  -28.8131   23.3010 O   0  0  0  0  0  0
  -28.2979  -26.3196   20.2198 O   0  0  0  0  0  0
  -26.5638  -34.8912   22.4658 O   0  0  0  0  0  0
  -23.5477  -32.1370   23.7253 O   0  0  0  0  0  0
  -29.9650  -19.9829   22.9114 C   0  0  0  0  0  0
  -29.5917  -21.1456   22.2118 C   0  0  0  0  0  0
  -30.0732  -18.7296   22.2540 C   0  0  0  0  0  0
  -29.7811  -18.6753   20.8708 C   0  0  0  0  0  0
  -29.2896  -21.0781   20.8418 C   0  0  0  0  0  0
  -30.8186  -17.6371   24.2701 C   0  0  0  0  0  0
  -30.0464  -17.3154   20.0667 C   0  0  0  0  0  0
  -28.0891  -24.8428   19.9358 C   0  0  0  0  0  0
  -28.9418  -23.6417   20.6324 C   0  0  0  0  0  0
  -29.3880  -19.8423   20.1998 N   0  0  0  0  0  0
  -29.8217  -15.8983   20.6212 N   0  0  0  0  0  0
  -30.4816  -17.5740   22.8890 O   0  0  0  0  0  0
  -28.8659  -22.2300   20.1025 O   0  0  0  0  0  0
  -31.4760  -12.5810   19.1887 H   0  0  0  0  0  0
  -30.3750  -11.4865   19.9742 H   0  0  0  0  0  0
  -29.8016  -11.7378   17.5327 H   0  0  0  0  0  0
  -29.6416  -13.4654   17.7321 H   0  0  0  0  0  0
  -27.8981  -11.2850   18.9193 H   0  0  0  0  0  0
  -27.3854  -12.5243   17.8049 H   0  0  0  0  0  0
  -27.6351  -14.2551   19.4723 H   0  0  0  0  0  0
  -28.7215  -12.1809   21.4406 H   0  0  0  0  0  0
  -28.4179  -13.8620   21.8001 H   0  0  0  0  0  0
  -25.2765   -9.5684   22.4764 H   0  0  0  0  0  0
  -24.0003   -7.4637   22.7476 H   0  0  0  0  0  0
  -21.0847   -8.8776   19.8953 H   0  0  0  0  0  0
  -22.3704  -10.9675   19.6167 H   0  0  0  0  0  0
  -21.2009   -7.6149   23.9716 H   0  0  0  0  0  0
  -21.1481   -6.0524   25.9077 H   0  0  0  0  0  0
  -22.0598   -2.7611   23.2847 H   0  0  0  0  0  0
  -22.4083  -11.9867   22.4805 H   0  0  0  0  0  0
  -21.1086  -13.1234   22.2633 H   0  0  0  0  0  0
  -24.6468  -15.8426   20.5165 H   0  0  0  0  0  0
  -26.2596  -15.6333   20.0624 H   0  0  0  0  0  0
  -26.7216  -32.5377   23.1058 H   0  0  0  0  0  0
  -25.0081  -33.9680   25.0383 H   0  0  0  0  0  0
  -22.7282  -31.2991   21.3953 H   0  0  0  0  0  0
  -23.3755  -35.9608   23.3296 H   0  0  0  0  0  0
  -24.3581  -36.8912   22.2057 H   0  0  0  0  0  0
  -23.7243  -37.6475   23.6673 H   0  0  0  0  0  0
  -26.1237  -31.5169   20.6137 H   0  0  0  0  0  0
  -26.8549  -30.8038   22.0188 H   0  0  0  0  0  0
  -28.1115  -28.8883   21.2336 H   0  0  0  0  0  0
  -25.9493  -25.9272   18.9399 H   0  0  0  0  0  0
  -23.9802  -27.3278   18.9644 H   0  0  0  0  0  0
  -23.7761  -30.5899   19.4028 H   0  0  0  0  0  0
  -22.7674  -29.2478   19.8498 H   0  0  0  0  0  0
  -25.1300  -36.1903   25.0815 H   0  0  0  0  0  0
  -20.9988  -28.3281   24.1384 H   0  0  0  0  0  0
  -20.5685  -26.2311   23.3612 H   0  0  0  0  0  0
  -21.6649  -26.7440   22.1198 H   0  0  0  0  0  0
  -19.6921  -25.6291   21.1248 H   0  0  0  0  0  0
  -19.6695  -27.3187   20.6738 H   0  0  0  0  0  0
  -17.4207  -26.6674   21.4026 H   0  0  0  0  0  0
  -18.0339  -26.0070   22.9020 H   0  0  0  0  0  0
  -19.7945  -30.7285   24.2240 H   0  0  0  0  0  0
  -17.5022  -31.6266   24.5167 H   0  0  0  0  0  0
  -15.5359  -30.2981   23.7670 H   0  0  0  0  0  0
  -15.8679  -28.0820   22.7071 H   0  0  0  0  0  0
  -24.5902  -30.7075   25.7765 H   0  0  0  0  0  0
  -24.8901  -32.2907   26.4837 H   0  0  0  0  0  0
  -25.8026  -30.8931   27.0232 H   0  0  0  0  0  0
  -26.2966  -29.6722   24.1253 H   0  0  0  0  0  0
  -27.4019  -29.7266   25.4782 H   0  0  0  0  0  0
  -27.8852  -30.4253   23.9516 H   0  0  0  0  0  0
  -27.2655  -33.3640   26.2049 H   0  0  0  0  0  0
  -28.3878  -32.6873   25.0342 H   0  0  0  0  0  0
  -28.0702  -31.8475   26.5444 H   0  0  0  0  0  0
  -28.2589  -38.0099   24.7514 H   0  0  0  0  0  0
  -28.1078  -36.2629   24.6287 H   0  0  0  0  0  0
  -27.2294  -37.1438   25.8868 H   0  0  0  0  0  0
  -20.9411  -29.8762   21.6846 H   0  0  0  0  0  0
  -26.0163  -38.2835   24.1410 H   0  0  0  0  0  0
  -30.1815  -20.0864   23.9638 H   0  0  0  0  0  0
  -29.5381  -22.0697   22.7647 H   0  0  0  0  0  0
  -31.1263  -16.6485   24.6112 H   0  0  0  0  0  0
  -29.9656  -17.9414   24.8786 H   0  0  0  0  0  0
  -31.6522  -18.3177   24.4500 H   0  0  0  0  0  0
  -31.0831  -17.3753   19.7341 H   0  0  0  0  0  0
  -29.4582  -17.3755   19.1510 H   0  0  0  0  0  0
  -27.0557  -24.5858   20.1644 H   0  0  0  0  0  0
  -28.1899  -24.7310   18.8560 H   0  0  0  0  0  0
  -28.6501  -23.6466   21.6809 H   0  0  0  0  0  0
  -29.9955  -23.9203   20.6147 H   0  0  0  0  0  0
  -28.8893  -15.7296   20.9639 H   0  0  0  0  0  0
  1 25  1  0  0  0
  1 30  2  0  0  0
  1 81  1  0  0  0
  2  3  1  0  0  0
  2 25  1  0  0  0
  2 84  1  0  0  0
  2 85  1  0  0  0
  3  4  1  0  0  0
  3 86  1  0  0  0
  3 87  1  0  0  0
  4  5  1  0  0  0
  4 88  1  0  0  0
  4 89  1  0  0  0
  5  6  1  0  0  0
  5 26  1  0  0  0
  5 90  1  0  0  0
  6 25  1  0  0  0
  6 91  1  0  0  0
  6 92  1  0  0  0
  7  8  2  0  0  0
  7 26  1  0  0  0
  7 29  1  0  0  0
  8  9  1  0  0  0
  8 22  1  0  0  0
  9 10  1  0  0  0
  9 27  2  0  0  0
 10 11  2  0  0  0
 10 15  1  0  0  0
 11 12  1  0  0  0
 11 93  1  0  0  0
 12 13  2  0  0  0
 12 94  1  0  0  0
 13 14  1  0  0  0
 13 31  1  0  0  0
 14 15  2  0  0  0
 14 95  1  0  0  0
 15 96  1  0  0  0
 16 17  2  0  0  0
 16 21  1  0  0  0
 16 31  1  0  0  0
 17 18  1  0  0  0
 17 97  1  0  0  0
 18 19  2  0  0  0
 18 98  1  0  0  0
 19 20  1  0  0  0
 19 24  1  0  0  0
 20 21  2  0  0  0
 20 99  1  0  0  0
 21 23  1  0  0  0
 22 28  1  0  0  0
 22 32  2  0  0  0
 26 27  1  0  0  0
 28100  1  0  0  0
 28101  1  0  0  0
 29102  1  0  0  0
 29103  1  0  0  0
 33 34  1  0  0  0
 33 66  1  0  0  0
 33 70  2  0  0  0
 34 36  1  0  0  0
 34 59  1  0  0  0
 34104  1  0  0  0
 35 44  2  0  0  0
 35 45  1  0  0  0
 35 68  1  0  0  0
 36 56  1  0  0  0
 36105  1  0  0  0
 37 39  1  0  0  0
 37 47  1  0  0  0
 37 66  1  0  0  0
 37106  1  0  0  0
 38 43  2  0  0  0
 38 46  1  0  0  0
 38 47  1  0  0  0
 39 64  1  0  0  0
 39 67  2  0  0  0
 40 52  1  0  0  0
 40 53  2  0  0  0
 40 58  1  0  0  0
 41107  1  0  0  0
 41108  1  0  0  0
 41109  1  0  0  0
 41 48  1  0  0  0
 42 43  1  0  0  0
 42 66  1  0  0  0
 42110  1  0  0  0
 42111  1  0  0  0
 43 44  1  0  0  0
 44112  1  0  0  0
 45 46  2  0  0  0
 45113  1  0  0  0
 46114  1  0  0  0
 47115  1  0  0  0
 47116  1  0  0  0
 48 56  1  0  0  0
 48 65  1  0  0  0
 48117  1  0  0  0
 49 50  1  0  0  0
 49 53  1  0  0  0
 49 64  1  0  0  0
 49118  1  0  0  0
 50 51  1  0  0  0
 50119  1  0  0  0
 50120  1  0  0  0
 51 52  1  0  0  0
 51121  1  0  0  0
 51122  1  0  0  0
 52123  1  0  0  0
 52124  1  0  0  0
 53 54  1  0  0  0
 54 55  2  0  0  0
 54125  1  0  0  0
 55 57  1  0  0  0
 55126  1  0  0  0
 56 69  2  0  0  0
 57 58  2  0  0  0
 57127  1  0  0  0
 58128  1  0  0  0
 59 60  1  0  0  0
 59 61  1  0  0  0
 59 62  1  0  0  0
 60129  1  0  0  0
 60130  1  0  0  0
 60131  1  0  0  0
 61132  1  0  0  0
 61133  1  0  0  0
 61134  1  0  0  0
 62135  1  0  0  0
 62136  1  0  0  0
 62137  1  0  0  0
 63 65  1  0  0  0
 63138  1  0  0  0
 63139  1  0  0  0
 63140  1  0  0  0
 64141  1  0  0  0
 65142  1  0  0  0
 68 78  1  0  0  0
 71 72  2  0  0  0
 71 73  1  0  0  0
 71143  1  0  0  0
 72 75  1  0  0  0
 72144  1  0  0  0
 73 74  2  0  0  0
 73 82  1  0  0  0
 74 77  1  0  0  0
 74 80  1  0  0  0
 75 80  2  0  0  0
 75 83  1  0  0  0
 76 82  1  0  0  0
 76145  1  0  0  0
 76146  1  0  0  0
 76147  1  0  0  0
 77 81  1  0  0  0
 77148  1  0  0  0
 77149  1  0  0  0
 78 79  1  0  0  0
 78150  1  0  0  0
 78151  1  0  0  0
 79 83  1  0  0  0
 79152  1  0  0  0
 79153  1  0  0  0
 81154  1  0  0  0
M  ISO  4   1 100  68 101  78 101  81 100
M  END
> <chiral flag>
0

> <version>
0

> <s_m_source_file>
/data/baiqing/PycharmProjects/Reinvent-master-3.2/result/LINK_invent/BTK/process_docking_weight1_custom_sum_contain_oxygen_bond_distance_aromatic_linkinvent_7_9_3/rearranged_h_0151.sdf

> <i_m_source_file_index>
81

> <r_mmod_Potential_Energy-OPLS-2005>
-48.8729553222656

> <r_mmod_Stretch_Energy-OPLS-2005>
139.990829467773

> <r_mmod_Bend_Energy-OPLS-2005>
186.610656738281

> <r_mmod_Torsional_Energy-OPLS-2005>
205.885147094727

> <r_mmod_Improper_Torsional_Energy-OPLS-2005>
7.05693387985229

> <r_mmod_Van_der_Waal_Energy-OPLS-2005>
151.569961547852

> <r_mmod_Electrostatic_Energy-OPLS-2005>
-607.296569824219

> <r_mmod_Solvation_Energy-OPLS-2005>
-231.18327331543

> <b_mmod_Minimization_Converged-OPLS-2005>
0

> <r_mmod_RMS_Derivative-OPLS-2005>
0.274984061717987

$$$$
81
                    3D
 Structure written by MMmdl.
169179  0  0  1  0            999 V2000
  -29.8541  -15.2805   20.6186 C   0  0  0  0  0  0
  -30.3898  -12.8961   19.5952 C   0  0  0  0  0  0
  -29.5298  -12.6067   18.3274 C   0  0  0  0  0  0
  -28.0613  -12.2751   18.6881 C   0  0  0  0  0  0
  -27.5517  -13.2008   19.8188 C   0  0  2  0  0  0
  -28.5040  -13.2023   21.0114 C   0  0  0  0  0  0
  -25.2166  -13.8099   20.5574 C   0  0  0  0  0  0
  -24.1543  -13.0331   20.9261 C   0  0  0  0  0  0
  -24.6121  -11.6774   20.8840 C   0  0  0  0  0  0
  -23.8866  -10.4183   21.0526 C   0  0  0  0  0  0
  -24.3478   -9.4165   21.9311 C   0  0  0  0  0  0
  -23.6222   -8.2170   22.0794 C   0  0  0  0  0  0
  -22.4234   -8.0211   21.3560 C   0  0  0  0  0  0
  -21.9830   -9.0168   20.4691 C   0  0  0  0  0  0
  -22.7073  -10.2076   20.3173 C   0  0  0  0  0  0
  -21.6821   -6.0736   22.5318 C   0  0  0  0  0  0
  -21.3953   -6.5623   23.8256 C   0  0  0  0  0  0
  -21.3646   -5.6785   24.9231 C   0  0  0  0  0  0
  -21.6066   -4.3051   24.7254 C   0  0  0  0  0  0
  -21.8807   -3.8133   23.4363 C   0  0  0  0  0  0
  -21.9142   -4.6962   22.3428 C   0  0  0  0  0  0
  -22.7621  -13.5242   21.1916 C   0  0  0  0  0  0
  -22.1637   -4.2127   21.1022 F   0  0  0  0  0  0
  -21.5638   -3.4542   25.7781 F   0  0  0  0  0  0
  -29.6609  -13.8824   20.4812 N   0  0  0  0  0  0
  -26.2290  -12.9123   20.2842 N   0  0  0  0  0  0
  -25.8963  -11.6290   20.5520 N   0  0  0  0  0  0
  -22.0223  -12.8325   22.0500 N   0  0  0  0  0  0
  -25.3896  -15.1817   20.3918 N   0  0  0  0  0  0
  -31.0621  -15.5685   20.3849 O   0  0  0  0  0  0
  -21.6570   -6.8871   21.4278 O   0  0  0  0  0  0
  -22.3382  -14.5562   20.6750 O   0  0  0  0  0  0
  -24.6918  -31.9511   23.1903 C   0  0  0  0  0  0
  -25.9810  -32.5184   23.8524 C   0  0  1  0  0  0
  -26.9124  -27.2211   20.3485 C   0  0  0  0  0  0
  -25.6496  -33.8870   24.2495 N   0  0  0  0  0  0
  -23.5034  -30.6633   21.4967 C   0  0  2  0  0  0
  -24.8459  -29.0520   20.0467 C   0  0  0  0  0  0
  -22.8871  -29.6798   22.4842 C   0  0  0  0  0  0
  -18.3131  -27.4325   23.3447 C   0  0  0  0  0  0
  -24.1491  -36.7323   23.2620 C   0  0  0  0  0  0
  -26.0220  -30.8449   21.3551 C   0  0  0  0  0  0
  -26.0202  -29.4623   20.6961 C   0  0  0  0  0  0
  -27.1017  -28.5556   20.8142 C   0  0  0  0  0  0
  -25.8401  -26.9134   19.5148 C   0  0  0  0  0  0
  -24.7761  -27.8077   19.4085 C   0  0  0  0  0  0
  -23.6826  -30.0160   20.0945 C   0  0  0  0  0  0
  -25.4148  -36.3226   24.0336 C   0  0  1  0  0  0
  -20.9438  -28.4440   22.6700 C   0  0  2  0  0  0
  -21.3254  -27.2980   21.0495 C   0  0  0  0  0  0
  -19.8746  -25.8498   20.7862 C   0  0  0  0  0  0
  -18.4612  -25.9398   22.2453 C   0  0  0  0  0  0
  -19.4202  -28.5055   23.5102 C   0  0  0  0  0  0
  -19.0609  -29.8457   23.9144 C   0  0  0  0  0  0
  -17.7410  -30.3197   24.0433 C   0  0  0  0  0  0
  -25.9156  -34.9693   23.5079 C   0  0  0  0  0  0
  -16.7011  -29.4194   23.7846 C   0  0  0  0  0  0
  -16.9792  -28.0457   23.4732 C   0  0  0  0  0  0
  -26.4685  -31.6703   25.0864 C   0  0  0  0  0  0
  -25.3643  -31.3899   26.1313 C   0  0  0  0  0  0
  -27.0416  -30.3106   24.6254 C   0  0  0  0  0  0
  -27.6219  -32.4174   25.7915 C   0  0  0  0  0  0
  -27.5574  -37.1955   24.8507 C   0  0  0  0  0  0
  -21.5771  -29.6640   22.4437 N   0  0  0  0  0  0
  -26.4316  -37.3919   23.9411 N   0  0  0  0  0  0
  -24.7661  -31.1887   22.0643 N   0  0  0  0  0  0
  -23.5723  -28.9861   23.2580 O   0  0  0  0  0  0
  -27.5822  -26.1773   20.9202 O   0  0  0  0  0  0
  -26.5511  -34.9127   22.4488 O   0  0  0  0  0  0
  -23.6054  -32.2390   23.7173 O   0  0  0  0  0  0
  -23.6274  -22.0576   21.9965 C   0  0  0  0  0  0
  -25.9090  -22.6104   21.5464 C   0  0  0  0  0  0
  -23.1182  -23.5241   22.1873 C   0  0  0  0  0  0
  -24.2453  -24.3853   22.2510 C   0  0  0  0  0  0
  -25.6272  -24.0269   21.7257 C   0  0  0  0  0  0
  -25.0454  -21.4852   21.7230 C   0  0  0  0  0  0
  -21.4892  -24.3065   22.5140 C   0  0  0  0  0  0
  -23.8026  -25.3382   23.3917 C   0  0  0  0  0  0
  -22.4988  -26.2401   23.1797 C   0  0  0  0  0  0
  -19.3121  -29.4602   20.7132 C   0  0  0  0  0  0
  -19.2250  -28.4457   19.6353 C   0  0  0  0  0  0
  -20.7724  -26.0890   22.8641 C   0  0  1  0  0  0
  -19.1600  -27.9470   21.1729 C   0  0  0  0  0  0
  -26.9526  -24.7922   21.0655 C   0  0  0  0  0  0
  -28.0846  -17.7431   21.4056 C   0  0  0  0  0  0
  -26.7807  -19.0128   21.0093 C   0  0  0  0  0  0
  -28.6783  -16.2100   20.8762 N   0  0  0  0  0  0
  -17.7334  -27.8823   20.8256 O   0  0  0  0  0  0
  -25.6173  -20.0166   21.7424 O   0  0  0  0  0  0
  -31.3596  -13.2848   19.3014 H   0  0  0  0  0  0
  -30.5919  -11.9707   20.1420 H   0  0  0  0  0  0
  -29.9674  -11.7970   17.7428 H   0  0  0  0  0  0
  -29.5436  -13.4818   17.6831 H   0  0  0  0  0  0
  -28.0185  -11.2366   19.0173 H   0  0  0  0  0  0
  -27.4212  -12.3513   17.8082 H   0  0  0  0  0  0
  -27.5075  -14.1944   19.3740 H   0  0  0  0  0  0
  -28.7268  -12.1966   21.3558 H   0  0  0  0  0  0
  -28.0926  -13.7416   21.8641 H   0  0  0  0  0  0
  -25.2627   -9.5615   22.4867 H   0  0  0  0  0  0
  -23.9922   -7.4533   22.7492 H   0  0  0  0  0  0
  -21.0775   -8.8723   19.8964 H   0  0  0  0  0  0
  -22.3606  -10.9654   19.6265 H   0  0  0  0  0  0
  -21.1948   -7.6122   23.9770 H   0  0  0  0  0  0
  -21.1496   -6.0515   25.9152 H   0  0  0  0  0  0
  -22.0586   -2.7572   23.2895 H   0  0  0  0  0  0
  -22.3724  -11.9962   22.4912 H   0  0  0  0  0  0
  -21.0915  -13.1464   22.2770 H   0  0  0  0  0  0
  -24.5521  -15.7539   20.4360 H   0  0  0  0  0  0
  -26.0739  -15.5371   19.7364 H   0  0  0  0  0  0
  -26.7991  -32.5707   23.1349 H   0  0  0  0  0  0
  -25.1100  -33.9961   25.0973 H   0  0  0  0  0  0
  -22.8165  -31.5096   21.3543 H   0  0  0  0  0  0
  -23.3844  -35.9548   23.3337 H   0  0  0  0  0  0
  -24.3599  -36.8837   22.2010 H   0  0  0  0  0  0
  -23.7193  -37.6549   23.6561 H   0  0  0  0  0  0
  -26.2359  -31.6145   20.6077 H   0  0  0  0  0  0
  -26.8766  -30.8372   22.0264 H   0  0  0  0  0  0
  -27.9588  -28.8215   21.4178 H   0  0  0  0  0  0
  -25.7068  -25.9317   19.1027 H   0  0  0  0  0  0
  -23.8891  -27.5095   18.8740 H   0  0  0  0  0  0
  -23.9085  -30.8054   19.3732 H   0  0  0  0  0  0
  -22.7706  -29.5664   19.7108 H   0  0  0  0  0  0
  -25.1333  -36.2117   25.0845 H   0  0  0  0  0  0
  -21.3472  -28.2615   23.6322 H   0  0  0  0  0  0
  -22.2993  -27.0319   20.6754 H   0  0  0  0  0  0
  -21.4007  -28.0709   20.3205 H   0  0  0  0  0  0
  -20.2629  -24.8691   20.4989 H   0  0  0  0  0  0
  -19.4011  -25.9945   19.8188 H   0  0  0  0  0  0
  -17.4927  -25.7310   21.7925 H   0  0  0  0  0  0
  -18.5558  -25.0661   22.8925 H   0  0  0  0  0  0
  -19.8393  -30.5937   23.9705 H   0  0  0  0  0  0
  -17.5351  -31.3604   24.3033 H   0  0  0  0  0  0
  -15.6752  -29.7537   23.8680 H   0  0  0  0  0  0
  -16.1245  -27.4252   23.2525 H   0  0  0  0  0  0
  -24.5709  -30.7573   25.7270 H   0  0  0  0  0  0
  -24.9067  -32.3159   26.4816 H   0  0  0  0  0  0
  -25.7721  -30.8778   27.0049 H   0  0  0  0  0  0
  -26.3041  -29.7069   24.0924 H   0  0  0  0  0  0
  -27.3735  -29.7215   25.4820 H   0  0  0  0  0  0
  -27.9131  -30.4346   23.9818 H   0  0  0  0  0  0
  -27.2931  -33.3429   26.2638 H   0  0  0  0  0  0
  -28.4286  -32.6689   25.1022 H   0  0  0  0  0  0
  -28.0593  -31.8090   26.5809 H   0  0  0  0  0  0
  -28.2695  -38.0134   24.7467 H   0  0  0  0  0  0
  -28.1000  -36.2736   24.6512 H   0  0  0  0  0  0
  -27.2291  -37.1758   25.8897 H   0  0  0  0  0  0
  -21.1001  -30.2781   21.8092 H   0  0  0  0  0  0
  -26.0234  -38.3001   24.1420 H   0  0  0  0  0  0
  -22.8471  -21.3152   22.1100 H   0  0  0  0  0  0
  -26.9141  -22.3129   21.2638 H   0  0  0  0  0  0
  -21.2802  -23.8351   23.4922 H   0  0  0  0  0  0
  -20.7743  -23.6916   21.9645 H   0  0  0  0  0  0
  -24.6577  -25.9670   23.6637 H   0  0  0  0  0  0
  -23.6356  -24.7589   24.3047 H   0  0  0  0  0  0
  -23.0538  -26.4517   22.2653 H   0  0  0  0  0  0
  -22.7770  -26.9754   23.9354 H   0  0  0  0  0  0
  -18.4259  -30.0716   20.8478 H   0  0  0  0  0  0
  -20.2267  -30.0529   20.5764 H   0  0  0  0  0  0
  -20.0821  -28.2560   19.0086 H   0  0  0  0  0  0
  -18.3979  -28.6050   18.9400 H   0  0  0  0  0  0
  -20.3466  -26.0527   23.8596 H   0  0  0  0  0  0
  -26.9946  -24.4121   20.0450 H   0  0  0  0  0  0
  -27.7926  -24.2799   21.5334 H   0  0  0  0  0  0
  -27.7572  -17.4546   22.3964 H   0  0  0  0  0  0
  -28.9663  -18.3092   21.6527 H   0  0  0  0  0  0
  -26.1223  -18.4147   20.3965 H   0  0  0  0  0  0
  -27.2202  -19.6436   20.2465 H   0  0  0  0  0  0
  -27.8712  -15.6108   20.8877 H   0  0  0  0  0  0
  -17.2650  -28.0807   21.6309 H   0  0  0  0  0  0
  1 25  1  0  0  0
  1 30  2  0  0  0
  1 87  1  0  0  0
  2  3  1  0  0  0
  2 25  1  0  0  0
  2 90  1  0  0  0
  2 91  1  0  0  0
  3  4  1  0  0  0
  3 92  1  0  0  0
  3 93  1  0  0  0
  4  5  1  0  0  0
  4 94  1  0  0  0
  4 95  1  0  0  0
  5  6  1  0  0  0
  5 26  1  0  0  0
  5 96  1  0  0  0
  6 25  1  0  0  0
  6 97  1  0  0  0
  6 98  1  0  0  0
  7  8  2  0  0  0
  7 26  1  0  0  0
  7 29  1  0  0  0
  8  9  1  0  0  0
  8 22  1  0  0  0
  9 10  1  0  0  0
  9 27  2  0  0  0
 10 11  2  0  0  0
 10 15  1  0  0  0
 11 12  1  0  0  0
 11 99  1  0  0  0
 12 13  2  0  0  0
 12100  1  0  0  0
 13 14  1  0  0  0
 13 31  1  0  0  0
 14 15  2  0  0  0
 14101  1  0  0  0
 15102  1  0  0  0
 16 17  2  0  0  0
 16 21  1  0  0  0
 16 31  1  0  0  0
 17 18  1  0  0  0
 17103  1  0  0  0
 18 19  2  0  0  0
 18104  1  0  0  0
 19 20  1  0  0  0
 19 24  1  0  0  0
 20 21  2  0  0  0
 20105  1  0  0  0
 21 23  1  0  0  0
 22 28  1  0  0  0
 22 32  2  0  0  0
 26 27  1  0  0  0
 28106  1  0  0  0
 28107  1  0  0  0
 29108  1  0  0  0
 29109  1  0  0  0
 33 34  1  0  0  0
 33 66  1  0  0  0
 33 70  2  0  0  0
 34 36  1  0  0  0
 34 59  1  0  0  0
 34110  1  0  0  0
 35 44  2  0  0  0
 35 45  1  0  0  0
 35 68  1  0  0  0
 36 56  1  0  0  0
 36111  1  0  0  0
 37 39  1  0  0  0
 37 47  1  0  0  0
 37 66  1  0  0  0
 37112  1  0  0  0
 38 43  2  0  0  0
 38 46  1  0  0  0
 38 47  1  0  0  0
 39 64  1  0  0  0
 39 67  2  0  0  0
 40 52  1  0  0  0
 40 53  2  0  0  0
 40 58  1  0  0  0
 41113  1  0  0  0
 41114  1  0  0  0
 41115  1  0  0  0
 41 48  1  0  0  0
 42 43  1  0  0  0
 42 66  1  0  0  0
 42116  1  0  0  0
 42117  1  0  0  0
 43 44  1  0  0  0
 44118  1  0  0  0
 45 46  2  0  0  0
 45119  1  0  0  0
 46120  1  0  0  0
 47121  1  0  0  0
 47122  1  0  0  0
 48 56  1  0  0  0
 48 65  1  0  0  0
 48123  1  0  0  0
 49 50  1  0  0  0
 49 53  1  0  0  0
 49 64  1  0  0  0
 49124  1  0  0  0
 50 51  1  0  0  0
 50125  1  0  0  0
 50126  1  0  0  0
 51 52  1  0  0  0
 51127  1  0  0  0
 51128  1  0  0  0
 52129  1  0  0  0
 52130  1  0  0  0
 53 54  1  0  0  0
 54 55  2  0  0  0
 54131  1  0  0  0
 55 57  1  0  0  0
 55132  1  0  0  0
 56 69  2  0  0  0
 57 58  2  0  0  0
 57133  1  0  0  0
 58134  1  0  0  0
 59 60  1  0  0  0
 59 61  1  0  0  0
 59 62  1  0  0  0
 60135  1  0  0  0
 60136  1  0  0  0
 60137  1  0  0  0
 61138  1  0  0  0
 61139  1  0  0  0
 61140  1  0  0  0
 62141  1  0  0  0
 62142  1  0  0  0
 62143  1  0  0  0
 63 65  1  0  0  0
 63144  1  0  0  0
 63145  1  0  0  0
 63146  1  0  0  0
 64147  1  0  0  0
 65148  1  0  0  0
 68 84  1  0  0  0
 71 73  2  0  0  0
 71 76  1  0  0  0
 71149  1  0  0  0
 72 75  1  0  0  0
 72 76  2  0  0  0
 72150  1  0  0  0
 73 74  1  0  0  0
 73 77  1  0  0  0
 74 75  2  0  0  0
 74 78  1  0  0  0
 75 84  1  0  0  0
 76 89  1  0  0  0
 77151  1  0  0  0
 77152  1  0  0  0
 77 82  1  0  0  0
 78 79  1  0  0  0
 78153  1  0  0  0
 78154  1  0  0  0
 79 82  1  0  0  0
 79155  1  0  0  0
 79156  1  0  0  0
 80 81  1  0  0  0
 80 83  1  0  0  0
 80157  1  0  0  0
 80158  1  0  0  0
 81 83  1  0  0  0
 81159  1  0  0  0
 81160  1  0  0  0
 82 83  1  0  0  0
 82161  1  0  0  0
 83 88  1  0  0  0
 84162  1  0  0  0
 84163  1  0  0  0
 85 86  1  0  0  0
 85 87  1  0  0  0
 85164  1  0  0  0
 85165  1  0  0  0
 86 89  1  0  0  0
 86166  1  0  0  0
 86167  1  0  0  0
 87168  1  0  0  0
 88169  1  0  0  0
M  ISO  4   1 100  68 101  84 101  87 100
M  END
> <chiral flag>
0

> <version>
0

> <s_m_source_file>
/data/baiqing/PycharmProjects/Reinvent-master-3.2/result/LINK_invent/BTK/process_docking_weight1_custom_sum_contain_oxygen_bond_distance_aromatic_linkinvent_7_9_3/rearranged_h_0151.sdf

> <i_m_source_file_index>
82

> <r_mmod_Potential_Energy-OPLS-2005>
9503.4091796875

> <r_mmod_Stretch_Energy-OPLS-2005>
4862.14453125

> <r_mmod_Bend_Energy-OPLS-2005>
1433.76025390625

> <r_mmod_Torsional_Energy-OPLS-2005>
487.779266357422

> <r_mmod_Improper_Torsional_Energy-OPLS-2005>
33.3316879272461

> <r_mmod_Van_der_Waal_Energy-OPLS-2005>
1901.19567871094

> <r_mmod_Electrostatic_Energy-OPLS-2005>
-450.107177734375

> <r_mmod_Solvation_Energy-OPLS-2005>
-212.070953369141

> <b_mmod_Minimization_Converged-OPLS-2005>
0

> <r_mmod_RMS_Derivative-OPLS-2005>
33.5478630065918

$$$$
82
                    3D
 Structure written by MMmdl.
173182  0  0  1  0            999 V2000
  -30.8192  -14.3652   20.7301 C   0  0  0  0  0  0
  -30.4088  -12.2985   19.4267 C   0  0  0  0  0  0
  -29.4902  -12.5122   18.2092 C   0  0  0  0  0  0
  -28.0100  -12.3831   18.6179 C   0  0  0  0  0  0
  -27.6619  -13.2176   19.8773 C   0  0  2  0  0  0
  -28.6961  -13.0065   21.0074 C   0  0  0  0  0  0
  -25.2510  -13.8200   20.5692 C   0  0  0  0  0  0
  -24.1793  -13.0440   20.9167 C   0  0  0  0  0  0
  -24.6381  -11.6918   20.8736 C   0  0  0  0  0  0
  -23.9070  -10.4292   21.0385 C   0  0  0  0  0  0
  -24.3610   -9.4206   21.9177 C   0  0  0  0  0  0
  -23.6268   -8.2250   22.0773 C   0  0  0  0  0  0
  -22.4261   -8.0279   21.3550 C   0  0  0  0  0  0
  -21.9875   -9.0273   20.4687 C   0  0  0  0  0  0
  -22.7217  -10.2136   20.3082 C   0  0  0  0  0  0
  -21.6848   -6.0710   22.5270 C   0  0  0  0  0  0
  -21.4037   -6.5621   23.8199 C   0  0  0  0  0  0
  -21.3674   -5.6780   24.9166 C   0  0  0  0  0  0
  -21.6031   -4.3038   24.7226 C   0  0  0  0  0  0
  -21.8821   -3.8127   23.4355 C   0  0  0  0  0  0
  -21.9177   -4.6928   22.3396 C   0  0  0  0  0  0
  -22.7806  -13.5214   21.1820 C   0  0  0  0  0  0
  -22.1630   -4.2097   21.0984 F   0  0  0  0  0  0
  -21.5631   -3.4545   25.7764 F   0  0  0  0  0  0
  -30.0514  -13.2646   20.4790 N   0  0  0  0  0  0
  -26.2987  -12.9410   20.3372 N   0  0  0  0  0  0
  -25.9303  -11.6555   20.5792 N   0  0  0  0  0  0
  -22.0463  -12.8246   22.0428 N   0  0  0  0  0  0
  -25.4136  -15.1928   20.4087 N   0  0  0  0  0  0
  -31.7299  -14.7180   19.9729 O   0  0  0  0  0  0
  -21.6630   -6.8857   21.4236 O   0  0  0  0  0  0
  -22.3475  -14.5500   20.6628 O   0  0  0  0  0  0
  -24.6221  -31.8708   23.2149 C   0  0  0  0  0  0
  -25.9111  -32.4841   23.8438 C   0  0  1  0  0  0
  -27.2132  -27.3987   20.0756 C   0  0  0  0  0  0
  -25.5983  -33.8628   24.2383 N   0  0  0  0  0  0
  -23.4083  -30.5038   21.5633 C   0  0  2  0  0  0
  -24.8422  -28.9854   20.1176 C   0  0  0  0  0  0
  -22.7446  -29.4684   22.5021 C   0  0  0  0  0  0
  -18.0281  -28.1366   22.8496 C   0  0  0  0  0  0
  -24.1498  -36.7318   23.2624 C   0  0  0  0  0  0
  -25.9473  -30.8255   21.3732 C   0  0  0  0  0  0
  -26.0181  -29.4620   20.7121 C   0  0  0  0  0  0
  -27.2060  -28.6790   20.6898 C   0  0  0  0  0  0
  -25.9983  -26.9721   19.4677 C   0  0  0  0  0  0
  -24.8302  -27.7383   19.4976 C   0  0  0  0  0  0
  -23.6113  -29.8589   20.1727 C   0  0  0  0  0  0
  -25.4111  -36.3120   24.0336 C   0  0  1  0  0  0
  -20.5894  -28.3670   23.1315 C   0  0  2  0  0  0
  -20.6784  -26.9420   22.5410 C   0  0  0  0  0  0
  -19.5761  -26.6406   21.5205 C   0  0  0  0  0  0
  -18.1937  -26.7933   22.1619 C   0  0  0  0  0  0
  -19.1539  -28.8833   23.2908 C   0  0  0  0  0  0
  -18.9446  -30.1442   23.8906 C   0  0  0  0  0  0
  -17.6451  -30.6578   24.0580 C   0  0  0  0  0  0
  -25.9033  -34.9474   23.5140 C   0  0  0  0  0  0
  -16.5341  -29.9080   23.6345 C   0  0  0  0  0  0
  -16.7270  -28.6507   23.0351 C   0  0  0  0  0  0
  -26.4507  -31.6582   25.0750 C   0  0  0  0  0  0
  -25.3753  -31.3693   26.1482 C   0  0  0  0  0  0
  -27.0303  -30.3018   24.6095 C   0  0  0  0  0  0
  -27.6095  -32.4258   25.7521 C   0  0  0  0  0  0
  -27.5593  -37.1827   24.8460 C   0  0  0  0  0  0
  -21.4160  -29.3069   22.3738 N   0  0  0  0  0  0
  -26.4301  -37.3807   23.9399 N   0  0  0  0  0  0
  -24.6788  -31.0798   22.1086 N   0  0  0  0  0  0
  -23.4203  -28.8172   23.3029 O   0  0  0  0  0  0
  -28.3407  -26.5665   20.0962 O   0  0  0  0  0  0
  -26.5581  -34.8934   22.4691 O   0  0  0  0  0  0
  -23.5415  -32.1454   23.7551 O   0  0  0  0  0  0
  -28.3297  -22.7352   19.9129 C   0  0  0  0  0  0
  -30.3586  -24.0584   19.8730 C   0  0  0  0  0  0
  -28.9530  -23.9972   19.9425 C   0  0  0  0  0  0
  -29.0557  -21.5392   19.7914 C   0  0  0  0  0  0
  -30.4719  -21.5851   19.7313 C   0  0  0  0  0  0
  -31.1214  -22.8565   19.7574 C   0  0  0  0  0  0
  -30.7407  -17.1667   23.3517 C   0  0  0  0  0  0
  -30.9367  -18.6549   23.0287 C   0  0  0  0  0  0
  -30.3890  -17.4790   21.0215 C   0  0  0  0  0  0
  -31.0189  -16.4727   22.0095 C   0  0  1  0  0  0
  -28.2620  -20.2462   19.6542 C   0  0  0  0  0  0
  -30.7010  -14.2942   23.1434 C   0  0  0  0  0  0
  -33.1615  -24.0797   19.3277 C   0  0  0  0  0  0
  -31.3014  -20.2995   19.5617 C   0  0  0  0  0  0
  -27.9898  -25.1804   19.8521 C   0  0  0  0  0  0
  -31.7354  -19.6102   20.8813 C   0  0  0  0  0  0
  -30.5769  -15.0523   21.8820 N   0  0  0  0  0  0
  -30.6666  -18.8349   21.5778 N   0  3  2  0  0  0
  -32.4962  -22.8573   19.6321 O   0  0  0  0  0  0
  -31.4536  -12.3784   19.1231 H   0  0  0  0  0  0
  -30.2930  -11.2839   19.8167 H   0  0  0  0  0  0
  -29.7238  -11.7799   17.4328 H   0  0  0  0  0  0
  -29.6745  -13.4939   17.7715 H   0  0  0  0  0  0
  -27.8011  -11.3274   18.7963 H   0  0  0  0  0  0
  -27.3654  -12.6836   17.7902 H   0  0  0  0  0  0
  -27.7070  -14.2699   19.5917 H   0  0  0  0  0  0
  -28.6474  -11.9878   21.3967 H   0  0  0  0  0  0
  -28.4331  -13.6556   21.8416 H   0  0  0  0  0  0
  -25.2772   -9.5644   22.4728 H   0  0  0  0  0  0
  -23.9941   -7.4651   22.7513 H   0  0  0  0  0  0
  -21.0794   -8.8827   19.9017 H   0  0  0  0  0  0
  -22.3698  -10.9671   19.6191 H   0  0  0  0  0  0
  -21.2079   -7.6138   23.9694 H   0  0  0  0  0  0
  -21.1481   -6.0516   25.9052 H   0  0  0  0  0  0
  -22.0587   -2.7586   23.2884 H   0  0  0  0  0  0
  -22.4051  -11.9915   22.4858 H   0  0  0  0  0  0
  -21.1140  -13.1357   22.2722 H   0  0  0  0  0  0
  -24.6422  -15.8378   20.5452 H   0  0  0  0  0  0
  -26.2620  -15.6524   20.1042 H   0  0  0  0  0  0
  -26.7189  -32.5513   23.1200 H   0  0  0  0  0  0
  -25.0227  -33.9794   25.0593 H   0  0  0  0  0  0
  -22.6988  -31.3238   21.4358 H   0  0  0  0  0  0
  -23.3772  -35.9650   23.3293 H   0  0  0  0  0  0
  -24.3598  -36.8899   22.2036 H   0  0  0  0  0  0
  -23.7232  -37.6518   23.6622 H   0  0  0  0  0  0
  -26.0692  -31.5953   20.6093 H   0  0  0  0  0  0
  -26.8346  -30.8715   21.9932 H   0  0  0  0  0  0
  -28.1071  -29.0486   21.1601 H   0  0  0  0  0  0
  -25.8677  -26.0294   18.9617 H   0  0  0  0  0  0
  -23.9292  -27.3629   19.0362 H   0  0  0  0  0  0
  -23.7328  -30.6447   19.4262 H   0  0  0  0  0  0
  -22.7272  -29.2959   19.8643 H   0  0  0  0  0  0
  -25.1294  -36.2004   25.0839 H   0  0  0  0  0  0
  -20.9985  -28.3241   24.1432 H   0  0  0  0  0  0
  -20.5693  -26.2287   23.3595 H   0  0  0  0  0  0
  -21.6641  -26.7470   22.1185 H   0  0  0  0  0  0
  -19.6927  -25.6328   21.1209 H   0  0  0  0  0  0
  -19.6682  -27.3227   20.6751 H   0  0  0  0  0  0
  -17.4212  -26.6694   21.4018 H   0  0  0  0  0  0
  -18.0325  -26.0054   22.8993 H   0  0  0  0  0  0
  -19.7900  -30.7276   24.2272 H   0  0  0  0  0  0
  -17.4981  -31.6242   24.5195 H   0  0  0  0  0  0
  -15.5335  -30.2980   23.7630 H   0  0  0  0  0  0
  -15.8672  -28.0810   22.7059 H   0  0  0  0  0  0
  -24.5967  -30.6992   25.7838 H   0  0  0  0  0  0
  -24.8902  -32.2847   26.4886 H   0  0  0  0  0  0
  -25.8102  -30.8911   27.0270 H   0  0  0  0  0  0
  -26.2840  -29.6833   24.1100 H   0  0  0  0  0  0
  -27.4028  -29.7193   25.4532 H   0  0  0  0  0  0
  -27.8727  -30.4345   23.9295 H   0  0  0  0  0  0
  -27.2745  -33.3557   26.2145 H   0  0  0  0  0  0
  -28.3916  -32.6790   25.0344 H   0  0  0  0  0  0
  -28.0775  -31.8326   26.5392 H   0  0  0  0  0  0
  -28.2615  -38.0126   24.7529 H   0  0  0  0  0  0
  -28.1086  -36.2653   24.6274 H   0  0  0  0  0  0
  -27.2314  -37.1469   25.8865 H   0  0  0  0  0  0
  -20.9297  -29.8846   21.7008 H   0  0  0  0  0  0
  -26.0198  -38.2896   24.1387 H   0  0  0  0  0  0
  -27.2480  -22.6923   19.9261 H   0  0  0  0  0  0
  -30.8294  -25.0316   19.8791 H   0  0  0  0  0  0
  -29.7161  -16.9885   23.6843 H   0  0  0  0  0  0
  -31.4147  -16.8429   24.1451 H   0  0  0  0  0  0
  -31.9687  -18.9274   23.2661 H   0  0  0  0  0  0
  -30.2933  -19.2942   23.6327 H   0  0  0  0  0  0
  -29.3049  -17.3388   21.0013 H   0  0  0  0  0  0
  -30.7492  -17.3635   19.9988 H   0  0  0  0  0  0
  -32.0986  -16.4948   21.8514 H   0  0  0  0  0  0
  -27.2285  -20.4604   19.3654 H   0  0  0  0  0  0
  -28.2259  -19.7030   20.5978 H   0  0  0  0  0  0
  -28.6533  -19.6028   18.8669 H   0  0  0  0  0  0
  -29.9538  -14.6049   23.8687 H   0  0  0  0  0  0
  -31.6864  -14.4516   23.5860 H   0  0  0  0  0  0
  -30.5892  -13.2135   23.0279 H   0  0  0  0  0  0
  -34.1408  -23.8506   18.9097 H   0  0  0  0  0  0
  -33.3164  -24.6725   20.2289 H   0  0  0  0  0  0
  -32.6409  -24.6788   18.5776 H   0  0  0  0  0  0
  -32.2135  -20.5495   19.0154 H   0  0  0  0  0  0
  -30.8092  -19.5871   18.9026 H   0  0  0  0  0  0
  -27.1591  -24.9260   20.5202 H   0  0  0  0  0  0
  -27.6606  -25.0956   18.8186 H   0  0  0  0  0  0
  -32.1239  -20.3867   21.5433 H   0  0  0  0  0  0
  -32.5758  -18.9399   20.6936 H   0  0  0  0  0  0
  -29.8238  -19.3864   21.5092 H   0  0  0  0  0  0
  1 25  1  0  0  0
  1 30  2  0  0  0
  1 87  1  0  0  0
  2  3  1  0  0  0
  2 25  1  0  0  0
  2 90  1  0  0  0
  2 91  1  0  0  0
  3  4  1  0  0  0
  3 92  1  0  0  0
  3 93  1  0  0  0
  4  5  1  0  0  0
  4 94  1  0  0  0
  4 95  1  0  0  0
  5  6  1  0  0  0
  5 26  1  0  0  0
  5 96  1  0  0  0
  6 25  1  0  0  0
  6 97  1  0  0  0
  6 98  1  0  0  0
  7  8  2  0  0  0
  7 26  1  0  0  0
  7 29  1  0  0  0
  8  9  1  0  0  0
  8 22  1  0  0  0
  9 10  1  0  0  0
  9 27  2  0  0  0
 10 11  2  0  0  0
 10 15  1  0  0  0
 11 12  1  0  0  0
 11 99  1  0  0  0
 12 13  2  0  0  0
 12100  1  0  0  0
 13 14  1  0  0  0
 13 31  1  0  0  0
 14 15  2  0  0  0
 14101  1  0  0  0
 15102  1  0  0  0
 16 17  2  0  0  0
 16 21  1  0  0  0
 16 31  1  0  0  0
 17 18  1  0  0  0
 17103  1  0  0  0
 18 19  2  0  0  0
 18104  1  0  0  0
 19 20  1  0  0  0
 19 24  1  0  0  0
 20 21  2  0  0  0
 20105  1  0  0  0
 21 23  1  0  0  0
 22 28  1  0  0  0
 22 32  2  0  0  0
 26 27  1  0  0  0
 28106  1  0  0  0
 28107  1  0  0  0
 29108  1  0  0  0
 29109  1  0  0  0
 33 34  1  0  0  0
 33 66  1  0  0  0
 33 70  2  0  0  0
 34 36  1  0  0  0
 34 59  1  0  0  0
 34110  1  0  0  0
 35 44  2  0  0  0
 35 45  1  0  0  0
 35 68  1  0  0  0
 36 56  1  0  0  0
 36111  1  0  0  0
 37 39  1  0  0  0
 37 47  1  0  0  0
 37 66  1  0  0  0
 37112  1  0  0  0
 38 43  2  0  0  0
 38 46  1  0  0  0
 38 47  1  0  0  0
 39 64  1  0  0  0
 39 67  2  0  0  0
 40 52  1  0  0  0
 40 53  2  0  0  0
 40 58  1  0  0  0
 41113  1  0  0  0
 41114  1  0  0  0
 41115  1  0  0  0
 41 48  1  0  0  0
 42 43  1  0  0  0
 42 66  1  0  0  0
 42116  1  0  0  0
 42117  1  0  0  0
 43 44  1  0  0  0
 44118  1  0  0  0
 45 46  2  0  0  0
 45119  1  0  0  0
 46120  1  0  0  0
 47121  1  0  0  0
 47122  1  0  0  0
 48 56  1  0  0  0
 48 65  1  0  0  0
 48123  1  0  0  0
 49 50  1  0  0  0
 49 53  1  0  0  0
 49 64  1  0  0  0
 49124  1  0  0  0
 50 51  1  0  0  0
 50125  1  0  0  0
 50126  1  0  0  0
 51 52  1  0  0  0
 51127  1  0  0  0
 51128  1  0  0  0
 52129  1  0  0  0
 52130  1  0  0  0
 53 54  1  0  0  0
 54 55  2  0  0  0
 54131  1  0  0  0
 55 57  1  0  0  0
 55132  1  0  0  0
 56 69  2  0  0  0
 57 58  2  0  0  0
 57133  1  0  0  0
 58134  1  0  0  0
 59 60  1  0  0  0
 59 61  1  0  0  0
 59 62  1  0  0  0
 60135  1  0  0  0
 60136  1  0  0  0
 60137  1  0  0  0
 61138  1  0  0  0
 61139  1  0  0  0
 61140  1  0  0  0
 62141  1  0  0  0
 62142  1  0  0  0
 62143  1  0  0  0
 63 65  1  0  0  0
 63144  1  0  0  0
 63145  1  0  0  0
 63146  1  0  0  0
 64147  1  0  0  0
 65148  1  0  0  0
 68 85  1  0  0  0
 71 73  2  0  0  0
 71 74  1  0  0  0
 71149  1  0  0  0
 72 73  1  0  0  0
 72 76  2  0  0  0
 72150  1  0  0  0
 73 85  1  0  0  0
 74 75  2  0  0  0
 74 81  1  0  0  0
 75 76  1  0  0  0
 75 84  1  0  0  0
 76 89  1  0  0  0
 77 78  1  0  0  0
 77 80  1  0  0  0
 77151  1  0  0  0
 77152  1  0  0  0
 78 88  1  0  0  0
 78153  1  0  0  0
 78154  1  0  0  0
 79 80  1  0  0  0
 79 88  1  0  0  0
 79155  1  0  0  0
 79156  1  0  0  0
 80 87  1  0  0  0
 80157  1  0  0  0
 81158  1  0  0  0
 81159  1  0  0  0
 81160  1  0  0  0
 82 87  1  0  0  0
 82161  1  0  0  0
 82162  1  0  0  0
 82163  1  0  0  0
 83 89  1  0  0  0
 83164  1  0  0  0
 83165  1  0  0  0
 83166  1  0  0  0
 84 86  1  0  0  0
 84167  1  0  0  0
 84168  1  0  0  0
 85169  1  0  0  0
 85170  1  0  0  0
 86171  1  0  0  0
 86172  1  0  0  0
 86 88  1  0  0  0
 88173  1  0  0  0
M  CHG  1  88   1
M  ISO  4   1 100  68 101  85 101  87 100
M  END
> <chiral flag>
0

> <version>
0

> <s_m_source_file>
/data/baiqing/PycharmProjects/Reinvent-master-3.2/result/LINK_invent/BTK/process_docking_weight1_custom_sum_contain_oxygen_bond_distance_aromatic_linkinvent_7_9_3/rearranged_h_0151.sdf

> <i_m_source_file_index>
83

> <r_mmod_Potential_Energy-OPLS-2005>
136.74919128418

> <r_mmod_Stretch_Energy-OPLS-2005>
51.9110870361328

> <r_mmod_Bend_Energy-OPLS-2005>
170.993591308594

> <r_mmod_Torsional_Energy-OPLS-2005>
357.873107910156

> <r_mmod_Improper_Torsional_Energy-OPLS-2005>
5.79685258865356

> <r_mmod_Van_der_Waal_Energy-OPLS-2005>
181.922821044922

> <r_mmod_Electrostatic_Energy-OPLS-2005>
-237.219207763672

> <r_mmod_Solvation_Energy-OPLS-2005>
-412.304626464844

> <b_mmod_Minimization_Converged-OPLS-2005>
0

> <r_mmod_RMS_Derivative-OPLS-2005>
5.66115474700928

$$$$
83
                    3D
 Structure written by MMmdl.
175184  0  0  1  0            999 V2000
  -30.5992  -14.7360   20.4802 C   0  0  0  0  0  0
  -30.4441  -12.4588   19.4535 C   0  0  0  0  0  0
  -29.5091  -12.5049   18.2251 C   0  0  0  0  0  0
  -28.0360  -12.3246   18.6473 C   0  0  0  0  0  0
  -27.6440  -13.2243   19.8492 C   0  0  2  0  0  0
  -28.6921  -13.1442   20.9787 C   0  0  0  0  0  0
  -25.2529  -13.8189   20.5674 C   0  0  0  0  0  0
  -24.1828  -13.0446   20.9211 C   0  0  0  0  0  0
  -24.6412  -11.6916   20.8768 C   0  0  0  0  0  0
  -23.9088  -10.4302   21.0430 C   0  0  0  0  0  0
  -24.3633   -9.4212   21.9210 C   0  0  0  0  0  0
  -23.6299   -8.2250   22.0766 C   0  0  0  0  0  0
  -22.4278   -8.0303   21.3554 C   0  0  0  0  0  0
  -21.9929   -9.0282   20.4654 C   0  0  0  0  0  0
  -22.7267  -10.2154   20.3075 C   0  0  0  0  0  0
  -21.6850   -6.0753   22.5286 C   0  0  0  0  0  0
  -21.4013   -6.5649   23.8227 C   0  0  0  0  0  0
  -21.3652   -5.6792   24.9183 C   0  0  0  0  0  0
  -21.6037   -4.3055   24.7223 C   0  0  0  0  0  0
  -21.8820   -3.8158   23.4341 C   0  0  0  0  0  0
  -21.9191   -4.6978   22.3400 C   0  0  0  0  0  0
  -22.7846  -13.5235   21.1870 C   0  0  0  0  0  0
  -22.1660   -4.2171   21.0972 F   0  0  0  0  0  0
  -21.5620   -3.4533   25.7730 F   0  0  0  0  0  0
  -29.9900  -13.5068   20.3934 N   0  0  0  0  0  0
  -26.2958  -12.9386   20.3284 N   0  0  0  0  0  0
  -25.9342  -11.6540   20.5766 N   0  0  0  0  0  0
  -22.0470  -12.8235   22.0409 N   0  0  0  0  0  0
  -25.4185  -15.1921   20.4003 N   0  0  0  0  0  0
  -31.7938  -14.8653   20.2061 O   0  0  0  0  0  0
  -21.6636   -6.8908   21.4252 O   0  0  0  0  0  0
  -22.3535  -14.5536   20.6703 O   0  0  0  0  0  0
  -24.6305  -31.8562   23.2016 C   0  0  0  0  0  0
  -25.9128  -32.4778   23.8359 C   0  0  1  0  0  0
  -27.2127  -27.2530   20.1406 C   0  0  0  0  0  0
  -25.5917  -33.8575   24.2276 N   0  0  0  0  0  0
  -23.4291  -30.4768   21.5453 C   0  0  2  0  0  0
  -24.8782  -28.9267   20.1118 C   0  0  0  0  0  0
  -22.7517  -29.4577   22.4931 C   0  0  0  0  0  0
  -18.0286  -28.1366   22.8478 C   0  0  0  0  0  0
  -24.1481  -36.7278   23.2644 C   0  0  0  0  0  0
  -25.9755  -30.7662   21.3840 C   0  0  0  0  0  0
  -26.0512  -29.3876   20.7248 C   0  0  0  0  0  0
  -27.2251  -28.5634   20.7288 C   0  0  0  0  0  0
  -26.0259  -26.8753   19.4746 C   0  0  0  0  0  0
  -24.8701  -27.6782   19.4733 C   0  0  0  0  0  0
  -23.6488  -29.8145   20.1606 C   0  0  0  0  0  0
  -25.4108  -36.3082   24.0329 C   0  0  1  0  0  0
  -20.5891  -28.3668   23.1276 C   0  0  2  0  0  0
  -20.6779  -26.9383   22.5420 C   0  0  0  0  0  0
  -19.5764  -26.6368   21.5207 C   0  0  0  0  0  0
  -18.1924  -26.7919   22.1591 C   0  0  0  0  0  0
  -19.1541  -28.8832   23.2874 C   0  0  0  0  0  0
  -18.9468  -30.1428   23.8894 C   0  0  0  0  0  0
  -17.6476  -30.6577   24.0545 C   0  0  0  0  0  0
  -25.9038  -34.9450   23.5105 C   0  0  0  0  0  0
  -16.5361  -29.9077   23.6340 C   0  0  0  0  0  0
  -16.7275  -28.6478   23.0373 C   0  0  0  0  0  0
  -26.4490  -31.6601   25.0750 C   0  0  0  0  0  0
  -25.3696  -31.3722   26.1455 C   0  0  0  0  0  0
  -27.0376  -30.3036   24.6222 C   0  0  0  0  0  0
  -27.6038  -32.4354   25.7515 C   0  0  0  0  0  0
  -27.5577  -37.1794   24.8467 C   0  0  0  0  0  0
  -21.4217  -29.3024   22.3684 N   0  0  0  0  0  0
  -26.4295  -37.3774   23.9401 N   0  0  0  0  0  0
  -24.6975  -31.0507   22.1006 N   0  0  0  0  0  0
  -23.4213  -28.8102   23.3020 O   0  0  0  0  0  0
  -28.2802  -26.3233   20.1849 O   0  0  0  0  0  0
  -26.5626  -34.8933   22.4685 O   0  0  0  0  0  0
  -23.5447  -32.1385   23.7284 O   0  0  0  0  0  0
  -30.0335  -23.8426   19.5461 C   0  0  0  0  0  0
  -30.5944  -21.4481   19.6157 C   0  0  0  0  0  0
  -28.5657  -22.2667   20.6948 C   0  0  0  0  0  0
  -28.8541  -23.6459   20.2885 C   0  0  0  0  0  0
  -30.9047  -22.7784   19.2223 C   0  0  0  0  0  0
  -29.4329  -21.1392   20.3574 C   0  0  0  0  0  0
  -27.0976  -19.1277   23.9076 C   0  0  0  0  0  0
  -26.3389  -20.9972   20.8081 C   0  0  0  0  0  0
  -26.0662  -19.8453   21.7801 C   0  0  0  0  0  0
  -27.6123  -21.3393   22.8849 C   0  0  0  0  0  0
  -27.3039  -21.9612   21.5136 C   0  0  1  0  0  0
  -28.0531  -19.4444   25.0554 C   0  0  0  0  0  0
  -34.3227  -22.7943   17.7960 C   0  0  0  0  0  0
  -27.9465  -24.9171   20.6280 C   0  0  0  0  0  0
  -30.0923  -17.2888   21.0569 C   0  0  0  0  0  0
  -33.0912  -22.1521   18.4374 C   0  0  0  0  0  0
  -29.6080  -18.5392   20.1454 C   0  0  0  0  0  0
  -26.9184  -20.0556   22.9459 N   0  0  0  0  0  0
  -29.7870  -15.8345   20.6917 N   0  0  0  0  0  0
  -26.5225  -18.0360   23.8957 O   0  0  0  0  0  0
  -32.0518  -23.1206   18.5354 O   0  0  0  0  0  0
  -29.1997  -19.8081   20.8264 O   0  0  0  0  0  0
  -31.4785  -12.6112   19.1411 H   0  0  0  0  0  0
  -30.4127  -11.4774   19.9308 H   0  0  0  0  0  0
  -29.7892  -11.7334   17.5069 H   0  0  0  0  0  0
  -29.6292  -13.4589   17.7095 H   0  0  0  0  0  0
  -27.8960  -11.2757   18.9127 H   0  0  0  0  0  0
  -27.3750  -12.5134   17.7999 H   0  0  0  0  0  0
  -27.6415  -14.2465   19.4703 H   0  0  0  0  0  0
  -28.7323  -12.1411   21.4047 H   0  0  0  0  0  0
  -28.4286  -13.8139   21.7989 H   0  0  0  0  0  0
  -25.2782   -9.5677   22.4788 H   0  0  0  0  0  0
  -23.9996   -7.4642   22.7497 H   0  0  0  0  0  0
  -21.0857   -8.8825   19.8964 H   0  0  0  0  0  0
  -22.3752  -10.9704   19.6180 H   0  0  0  0  0  0
  -21.2012   -7.6162   23.9742 H   0  0  0  0  0  0
  -21.1460   -6.0515   25.9088 H   0  0  0  0  0  0
  -22.0599   -2.7623   23.2832 H   0  0  0  0  0  0
  -22.4049  -11.9873   22.4793 H   0  0  0  0  0  0
  -21.1101  -13.1301   22.2605 H   0  0  0  0  0  0
  -24.6403  -15.8357   20.4995 H   0  0  0  0  0  0
  -26.2490  -15.6342   20.0285 H   0  0  0  0  0  0
  -26.7198  -32.5441   23.1102 H   0  0  0  0  0  0
  -25.0092  -33.9708   25.0441 H   0  0  0  0  0  0
  -22.7243  -31.2981   21.4009 H   0  0  0  0  0  0
  -23.3767  -35.9598   23.3325 H   0  0  0  0  0  0
  -24.3567  -36.8883   22.2058 H   0  0  0  0  0  0
  -23.7208  -37.6460   23.6675 H   0  0  0  0  0  0
  -26.1137  -31.5292   20.6160 H   0  0  0  0  0  0
  -26.8524  -30.8184   22.0182 H   0  0  0  0  0  0
  -28.1208  -28.9052   21.2282 H   0  0  0  0  0  0
  -25.9712  -25.9309   18.9535 H   0  0  0  0  0  0
  -23.9754  -27.3236   18.9800 H   0  0  0  0  0  0
  -23.7743  -30.5944   19.4085 H   0  0  0  0  0  0
  -22.7679  -29.2481   19.8550 H   0  0  0  0  0  0
  -25.1290  -36.1948   25.0824 H   0  0  0  0  0  0
  -20.9961  -28.3260   24.1413 H   0  0  0  0  0  0
  -20.5660  -26.2272   23.3619 H   0  0  0  0  0  0
  -21.6654  -26.7416   22.1223 H   0  0  0  0  0  0
  -19.6928  -25.6276   21.1248 H   0  0  0  0  0  0
  -19.6733  -27.3174   20.6731 H   0  0  0  0  0  0
  -17.4216  -26.6700   21.3967 H   0  0  0  0  0  0
  -18.0280  -26.0042   22.8953 H   0  0  0  0  0  0
  -19.7950  -30.7225   24.2292 H   0  0  0  0  0  0
  -17.5039  -31.6275   24.5131 H   0  0  0  0  0  0
  -15.5354  -30.2979   23.7676 H   0  0  0  0  0  0
  -15.8668  -28.0797   22.7121 H   0  0  0  0  0  0
  -24.5990  -30.6921   25.7798 H   0  0  0  0  0  0
  -24.8724  -32.2851   26.4748 H   0  0  0  0  0  0
  -25.8023  -30.9055   27.0313 H   0  0  0  0  0  0
  -26.2988  -29.6758   24.1230 H   0  0  0  0  0  0
  -27.4061  -29.7314   25.4737 H   0  0  0  0  0  0
  -27.8853  -30.4338   23.9494 H   0  0  0  0  0  0
  -27.2682  -33.3711   26.2002 H   0  0  0  0  0  0
  -28.3898  -32.6806   25.0365 H   0  0  0  0  0  0
  -28.0658  -31.8531   26.5489 H   0  0  0  0  0  0
  -28.2601  -38.0088   24.7527 H   0  0  0  0  0  0
  -28.1073  -36.2616   24.6310 H   0  0  0  0  0  0
  -27.2302  -37.1462   25.8874 H   0  0  0  0  0  0
  -20.9397  -29.8774   21.6922 H   0  0  0  0  0  0
  -26.0191  -38.2852   24.1419 H   0  0  0  0  0  0
  -30.2934  -24.8452   19.2373 H   0  0  0  0  0  0
  -31.2774  -20.6473   19.3846 H   0  0  0  0  0  0
  -25.4122  -21.5010   20.5320 H   0  0  0  0  0  0
  -26.7656  -20.6076   19.8818 H   0  0  0  0  0  0
  -26.2878  -18.8849   21.3099 H   0  0  0  0  0  0
  -25.0197  -19.8280   22.0861 H   0  0  0  0  0  0
  -27.2505  -21.9848   23.6851 H   0  0  0  0  0  0
  -28.6848  -21.2135   23.0373 H   0  0  0  0  0  0
  -26.7536  -22.8803   21.7011 H   0  0  0  0  0  0
  -29.0719  -19.5566   24.6851 H   0  0  0  0  0  0
  -28.0458  -18.6404   25.7916 H   0  0  0  0  0  0
  -27.7585  -20.3648   25.5584 H   0  0  0  0  0  0
  -35.1581  -22.0935   17.7831 H   0  0  0  0  0  0
  -34.6415  -23.6785   18.3489 H   0  0  0  0  0  0
  -34.1206  -23.0919   16.7675 H   0  0  0  0  0  0
  -27.8897  -24.9637   21.7162 H   0  0  0  0  0  0
  -26.9433  -24.6399   20.3129 H   0  0  0  0  0  0
  -29.6102  -17.4221   22.0257 H   0  0  0  0  0  0
  -31.1586  -17.3941   21.2612 H   0  0  0  0  0  0
  -33.3539  -21.7810   19.4295 H   0  0  0  0  0  0
  -32.7695  -21.3055   17.8310 H   0  0  0  0  0  0
  -28.7279  -18.2202   19.5857 H   0  0  0  0  0  0
  -30.3628  -18.7224   19.3836 H   0  0  0  0  0  0
  -28.8127  -15.5869   20.7771 H   0  0  0  0  0  0
  1 25  1  0  0  0
  1 30  2  0  0  0
  1 89  1  0  0  0
  2  3  1  0  0  0
  2 25  1  0  0  0
  2 93  1  0  0  0
  2 94  1  0  0  0
  3  4  1  0  0  0
  3 95  1  0  0  0
  3 96  1  0  0  0
  4  5  1  0  0  0
  4 97  1  0  0  0
  4 98  1  0  0  0
  5  6  1  0  0  0
  5 26  1  0  0  0
  5 99  1  0  0  0
  6 25  1  0  0  0
  6100  1  0  0  0
  6101  1  0  0  0
  7  8  2  0  0  0
  7 26  1  0  0  0
  7 29  1  0  0  0
  8  9  1  0  0  0
  8 22  1  0  0  0
  9 10  1  0  0  0
  9 27  2  0  0  0
 10 11  2  0  0  0
 10 15  1  0  0  0
 11 12  1  0  0  0
 11102  1  0  0  0
 12 13  2  0  0  0
 12103  1  0  0  0
 13 14  1  0  0  0
 13 31  1  0  0  0
 14 15  2  0  0  0
 14104  1  0  0  0
 15105  1  0  0  0
 16 17  2  0  0  0
 16 21  1  0  0  0
 16 31  1  0  0  0
 17 18  1  0  0  0
 17106  1  0  0  0
 18 19  2  0  0  0
 18107  1  0  0  0
 19 20  1  0  0  0
 19 24  1  0  0  0
 20 21  2  0  0  0
 20108  1  0  0  0
 21 23  1  0  0  0
 22 28  1  0  0  0
 22 32  2  0  0  0
 26 27  1  0  0  0
 28109  1  0  0  0
 28110  1  0  0  0
 29111  1  0  0  0
 29112  1  0  0  0
 33 34  1  0  0  0
 33 66  1  0  0  0
 33 70  2  0  0  0
 34 36  1  0  0  0
 34 59  1  0  0  0
 34113  1  0  0  0
 35 44  2  0  0  0
 35 45  1  0  0  0
 35 68  1  0  0  0
 36 56  1  0  0  0
 36114  1  0  0  0
 37 39  1  0  0  0
 37 47  1  0  0  0
 37 66  1  0  0  0
 37115  1  0  0  0
 38 43  2  0  0  0
 38 46  1  0  0  0
 38 47  1  0  0  0
 39 64  1  0  0  0
 39 67  2  0  0  0
 40 52  1  0  0  0
 40 53  2  0  0  0
 40 58  1  0  0  0
 41116  1  0  0  0
 41117  1  0  0  0
 41118  1  0  0  0
 41 48  1  0  0  0
 42 43  1  0  0  0
 42 66  1  0  0  0
 42119  1  0  0  0
 42120  1  0  0  0
 43 44  1  0  0  0
 44121  1  0  0  0
 45 46  2  0  0  0
 45122  1  0  0  0
 46123  1  0  0  0
 47124  1  0  0  0
 47125  1  0  0  0
 48 56  1  0  0  0
 48 65  1  0  0  0
 48126  1  0  0  0
 49 50  1  0  0  0
 49 53  1  0  0  0
 49 64  1  0  0  0
 49127  1  0  0  0
 50 51  1  0  0  0
 50128  1  0  0  0
 50129  1  0  0  0
 51 52  1  0  0  0
 51130  1  0  0  0
 51131  1  0  0  0
 52132  1  0  0  0
 52133  1  0  0  0
 53 54  1  0  0  0
 54 55  2  0  0  0
 54134  1  0  0  0
 55 57  1  0  0  0
 55135  1  0  0  0
 56 69  2  0  0  0
 57 58  2  0  0  0
 57136  1  0  0  0
 58137  1  0  0  0
 59 60  1  0  0  0
 59 61  1  0  0  0
 59 62  1  0  0  0
 60138  1  0  0  0
 60139  1  0  0  0
 60140  1  0  0  0
 61141  1  0  0  0
 61142  1  0  0  0
 61143  1  0  0  0
 62144  1  0  0  0
 62145  1  0  0  0
 62146  1  0  0  0
 63 65  1  0  0  0
 63147  1  0  0  0
 63148  1  0  0  0
 63149  1  0  0  0
 64150  1  0  0  0
 65151  1  0  0  0
 68 84  1  0  0  0
 71 74  2  0  0  0
 71 75  1  0  0  0
 71152  1  0  0  0
 72 75  2  0  0  0
 72 76  1  0  0  0
 72153  1  0  0  0
 73 74  1  0  0  0
 73 76  2  0  0  0
 73 81  1  0  0  0
 74 84  1  0  0  0
 75 91  1  0  0  0
 76 92  1  0  0  0
 77 82  1  0  0  0
 77 88  1  0  0  0
 77 90  2  0  0  0
 78 79  1  0  0  0
 78 81  1  0  0  0
 78154  1  0  0  0
 78155  1  0  0  0
 79 88  1  0  0  0
 79156  1  0  0  0
 79157  1  0  0  0
 80 81  1  0  0  0
 80 88  1  0  0  0
 80158  1  0  0  0
 80159  1  0  0  0
 81160  1  0  0  0
 82161  1  0  0  0
 82162  1  0  0  0
 82163  1  0  0  0
 83 86  1  0  0  0
 83164  1  0  0  0
 83165  1  0  0  0
 83166  1  0  0  0
 84167  1  0  0  0
 84168  1  0  0  0
 85 87  1  0  0  0
 85 89  1  0  0  0
 85169  1  0  0  0
 85170  1  0  0  0
 86 91  1  0  0  0
 86171  1  0  0  0
 86172  1  0  0  0
 87 92  1  0  0  0
 87173  1  0  0  0
 87174  1  0  0  0
 89175  1  0  0  0
M  ISO  4   1 100  68 101  84 101  89 100
M  END
> <chiral flag>
0

> <version>
0

> <s_m_source_file>
/data/baiqing/PycharmProjects/Reinvent-master-3.2/result/LINK_invent/BTK/process_docking_weight1_custom_sum_contain_oxygen_bond_distance_aromatic_linkinvent_7_9_3/rearranged_h_0151.sdf

> <i_m_source_file_index>
84

> <r_mmod_Potential_Energy-OPLS-2005>
213.558532714844

> <r_mmod_Stretch_Energy-OPLS-2005>
129.228103637695

> <r_mmod_Bend_Energy-OPLS-2005>
191.662124633789

> <r_mmod_Torsional_Energy-OPLS-2005>
348.045196533203

> <r_mmod_Improper_Torsional_Energy-OPLS-2005>
4.8316912651062

> <r_mmod_Van_der_Waal_Energy-OPLS-2005>
140.123062133789

> <r_mmod_Electrostatic_Energy-OPLS-2005>
-455.498687744141

> <r_mmod_Solvation_Energy-OPLS-2005>
-234.945098876953

> <b_mmod_Minimization_Converged-OPLS-2005>
0

> <r_mmod_RMS_Derivative-OPLS-2005>
2.34260010719299

$$$$
84
                    3D
 Structure written by MMmdl.
174183  0  0  1  0            999 V2000
  -30.6607  -14.6368   20.4491 C   0  0  0  0  0  0
  -30.4154  -12.3778   19.4651 C   0  0  0  0  0  0
  -29.4978  -12.4767   18.2291 C   0  0  0  0  0  0
  -28.0212  -12.3299   18.6418 C   0  0  0  0  0  0
  -27.6418  -13.2258   19.8522 C   0  0  2  0  0  0
  -28.6861  -13.1345   20.9864 C   0  0  0  0  0  0
  -25.2530  -13.8183   20.5710 C   0  0  0  0  0  0
  -24.1809  -13.0436   20.9222 C   0  0  0  0  0  0
  -24.6382  -11.6906   20.8759 C   0  0  0  0  0  0
  -23.9048  -10.4282   21.0407 C   0  0  0  0  0  0
  -24.3607   -9.4206   21.9183 C   0  0  0  0  0  0
  -23.6297   -8.2237   22.0740 C   0  0  0  0  0  0
  -22.4275   -8.0287   21.3533 C   0  0  0  0  0  0
  -21.9908   -9.0238   20.4630 C   0  0  0  0  0  0
  -22.7220  -10.2123   20.3050 C   0  0  0  0  0  0
  -21.6847   -6.0744   22.5268 C   0  0  0  0  0  0
  -21.4009   -6.5642   23.8211 C   0  0  0  0  0  0
  -21.3670   -5.6803   24.9170 C   0  0  0  0  0  0
  -21.6035   -4.3054   24.7213 C   0  0  0  0  0  0
  -21.8833   -3.8152   23.4330 C   0  0  0  0  0  0
  -21.9196   -4.6965   22.3392 C   0  0  0  0  0  0
  -22.7842  -13.5237   21.1888 C   0  0  0  0  0  0
  -22.1672   -4.2155   21.0965 F   0  0  0  0  0  0
  -21.5624   -3.4539   25.7721 F   0  0  0  0  0  0
  -29.9973  -13.4395   20.4043 N   0  0  0  0  0  0
  -26.2938  -12.9384   20.3301 N   0  0  0  0  0  0
  -25.9309  -11.6531   20.5767 N   0  0  0  0  0  0
  -22.0482  -12.8214   22.0427 N   0  0  0  0  0  0
  -25.4243  -15.1899   20.4096 N   0  0  0  0  0  0
  -31.8552  -14.7008   20.1500 O   0  0  0  0  0  0
  -21.6653   -6.8874   21.4228 O   0  0  0  0  0  0
  -22.3520  -14.5548   20.6740 O   0  0  0  0  0  0
  -24.6214  -31.8566   23.1978 C   0  0  0  0  0  0
  -25.9064  -32.4763   23.8311 C   0  0  1  0  0  0
  -27.2265  -27.3125   20.1524 C   0  0  0  0  0  0
  -25.5905  -33.8551   24.2254 N   0  0  0  0  0  0
  -23.4167  -30.4771   21.5377 C   0  0  2  0  0  0
  -24.8636  -28.9140   20.1243 C   0  0  0  0  0  0
  -22.7450  -29.4612   22.4902 C   0  0  0  0  0  0
  -18.0278  -28.1394   22.8502 C   0  0  0  0  0  0
  -24.1468  -36.7253   23.2658 C   0  0  0  0  0  0
  -25.9545  -30.7881   21.3634 C   0  0  0  0  0  0
  -26.0272  -29.4095   20.7229 C   0  0  0  0  0  0
  -27.2120  -28.6221   20.7203 C   0  0  0  0  0  0
  -26.0420  -26.8501   19.5452 C   0  0  0  0  0  0
  -24.8691  -27.6382   19.5279 C   0  0  0  0  0  0
  -23.6335  -29.7985   20.1585 C   0  0  0  0  0  0
  -25.4105  -36.3059   24.0335 C   0  0  1  0  0  0
  -20.5879  -28.3662   23.1296 C   0  0  2  0  0  0
  -20.6768  -26.9384   22.5407 C   0  0  0  0  0  0
  -19.5754  -26.6371   21.5202 C   0  0  0  0  0  0
  -18.1931  -26.7947   22.1606 C   0  0  0  0  0  0
  -19.1543  -28.8848   23.2892 C   0  0  0  0  0  0
  -18.9476  -30.1467   23.8879 C   0  0  0  0  0  0
  -17.6487  -30.6599   24.0583 C   0  0  0  0  0  0
  -25.9045  -34.9435   23.5088 C   0  0  0  0  0  0
  -16.5360  -29.9120   23.6355 C   0  0  0  0  0  0
  -16.7279  -28.6544   23.0355 C   0  0  0  0  0  0
  -26.4468  -31.6590   25.0693 C   0  0  0  0  0  0
  -25.3727  -31.3736   26.1443 C   0  0  0  0  0  0
  -27.0324  -30.3046   24.6101 C   0  0  0  0  0  0
  -27.6014  -32.4338   25.7475 C   0  0  0  0  0  0
  -27.5551  -37.1786   24.8484 C   0  0  0  0  0  0
  -21.4164  -29.3030   22.3695 N   0  0  0  0  0  0
  -26.4279  -37.3765   23.9415 N   0  0  0  0  0  0
  -24.6832  -31.0607   22.0897 N   0  0  0  0  0  0
  -23.4184  -28.8157   23.2982 O   0  0  0  0  0  0
  -28.4100  -26.5782   20.0677 O   0  0  0  0  0  0
  -26.5622  -34.8919   22.4666 O   0  0  0  0  0  0
  -23.5384  -32.1321   23.7351 O   0  0  0  0  0  0
  -30.0555  -21.0146   20.1533 C   0  0  0  0  0  0
  -28.5139  -18.7556   20.7740 C   0  0  0  0  0  0
  -28.7547  -21.2460   20.6644 C   0  0  0  0  0  0
  -29.8324  -18.5353   20.3131 C   0  0  0  0  0  0
  -30.5924  -19.6991   19.9975 C   0  0  0  0  0  0
  -27.9816  -20.0768   20.9733 C   0  0  0  0  0  0
  -28.1384  -23.8317   19.9015 C   0  0  0  0  0  0
  -28.6075  -24.9187   22.0365 C   0  0  0  0  0  0
  -28.2654  -22.7109   21.0224 C   0  0  2  0  0  0
  -29.0667  -23.4370   22.1503 C   0  0  2  0  0  0
  -28.6315  -25.1910   20.5336 C   0  0  2  0  0  0
  -29.6456  -21.4654   23.7095 C   0  0  0  0  0  0
  -29.6326  -23.7808   24.6372 C   0  0  0  0  0  0
  -32.8477  -20.4831   19.8502 C   0  0  0  0  0  0
  -26.0242  -19.1541   22.0375 C   0  0  0  0  0  0
  -30.5152  -17.1243   20.1453 C   0  0  0  0  0  0
  -28.9803  -22.8512   23.5929 C   0  0  0  0  0  0
  -29.9350  -15.7964   20.5565 N   0  0  0  0  0  0
  -31.8762  -19.4885   19.5458 O   0  0  0  0  0  0
  -26.7292  -20.2789   21.5186 O   0  0  0  0  0  0
  -31.4599  -12.4707   19.1640 H   0  0  0  0  0  0
  -30.3284  -11.3972   19.9351 H   0  0  0  0  0  0
  -29.7587  -11.7054   17.5034 H   0  0  0  0  0  0
  -29.6486  -13.4314   17.7280 H   0  0  0  0  0  0
  -27.8623  -11.2811   18.8949 H   0  0  0  0  0  0
  -27.3666  -12.5377   17.7935 H   0  0  0  0  0  0
  -27.6452  -14.2508   19.4824 H   0  0  0  0  0  0
  -28.6920  -12.1375   21.4319 H   0  0  0  0  0  0
  -28.4440  -13.8287   21.7934 H   0  0  0  0  0  0
  -25.2735   -9.5703   22.4777 H   0  0  0  0  0  0
  -24.0002   -7.4636   22.7457 H   0  0  0  0  0  0
  -21.0846   -8.8742   19.8939 H   0  0  0  0  0  0
  -22.3659  -10.9663   19.6177 H   0  0  0  0  0  0
  -21.2009   -7.6160   23.9704 H   0  0  0  0  0  0
  -21.1478   -6.0535   25.9077 H   0  0  0  0  0  0
  -22.0601   -2.7611   23.2818 H   0  0  0  0  0  0
  -22.4117  -11.9855   22.4775 H   0  0  0  0  0  0
  -21.1091  -13.1210   22.2632 H   0  0  0  0  0  0
  -24.6498  -15.8384   20.5007 H   0  0  0  0  0  0
  -26.2532  -15.6114   20.0102 H   0  0  0  0  0  0
  -26.7131  -32.5417   23.1052 H   0  0  0  0  0  0
  -25.0096  -33.9703   25.0434 H   0  0  0  0  0  0
  -22.7109  -31.2943   21.3883 H   0  0  0  0  0  0
  -23.3738  -35.9577   23.3329 H   0  0  0  0  0  0
  -24.3575  -36.8852   22.2073 H   0  0  0  0  0  0
  -23.7174  -37.6448   23.6667 H   0  0  0  0  0  0
  -26.0768  -31.5395   20.5841 H   0  0  0  0  0  0
  -26.8410  -30.8460   21.9839 H   0  0  0  0  0  0
  -28.1162  -29.0134   21.1665 H   0  0  0  0  0  0
  -26.0277  -25.8835   19.0636 H   0  0  0  0  0  0
  -23.9729  -27.2533   19.0630 H   0  0  0  0  0  0
  -23.7601  -30.5657   19.3934 H   0  0  0  0  0  0
  -22.7533  -29.2269   19.8582 H   0  0  0  0  0  0
  -25.1266  -36.1904   25.0826 H   0  0  0  0  0  0
  -20.9966  -28.3222   24.1408 H   0  0  0  0  0  0
  -20.5644  -26.2251   23.3587 H   0  0  0  0  0  0
  -21.6646  -26.7406   22.1206 H   0  0  0  0  0  0
  -19.6901  -25.6282   21.1229 H   0  0  0  0  0  0
  -19.6728  -27.3201   20.6756 H   0  0  0  0  0  0
  -17.4192  -26.6693   21.4013 H   0  0  0  0  0  0
  -18.0341  -26.0103   22.9005 H   0  0  0  0  0  0
  -19.7959  -30.7312   24.2179 H   0  0  0  0  0  0
  -17.5056  -31.6275   24.5203 H   0  0  0  0  0  0
  -15.5384  -30.3032   23.7715 H   0  0  0  0  0  0
  -15.8655  -28.0901   22.7033 H   0  0  0  0  0  0
  -24.5892  -30.7083   25.7806 H   0  0  0  0  0  0
  -24.8954  -32.2927   26.4850 H   0  0  0  0  0  0
  -25.8085  -30.8948   27.0213 H   0  0  0  0  0  0
  -26.2914  -29.6802   24.1136 H   0  0  0  0  0  0
  -27.4108  -29.7273   25.4532 H   0  0  0  0  0  0
  -27.8699  -30.4379   23.9262 H   0  0  0  0  0  0
  -27.2582  -33.3633   26.2023 H   0  0  0  0  0  0
  -28.3851  -32.6898   25.0327 H   0  0  0  0  0  0
  -28.0636  -31.8476   26.5420 H   0  0  0  0  0  0
  -28.2588  -38.0080   24.7524 H   0  0  0  0  0  0
  -28.1020  -36.2594   24.6301 H   0  0  0  0  0  0
  -27.2289  -37.1432   25.8909 H   0  0  0  0  0  0
  -20.9307  -29.8731   21.6909 H   0  0  0  0  0  0
  -26.0128  -38.2813   24.1494 H   0  0  0  0  0  0
  -30.6595  -21.8783   19.9187 H   0  0  0  0  0  0
  -27.9256  -17.8776   20.9919 H   0  0  0  0  0  0
  -27.1037  -23.8930   19.5650 H   0  0  0  0  0  0
  -28.7438  -23.5906   19.0280 H   0  0  0  0  0  0
  -29.2711  -25.5980   22.5728 H   0  0  0  0  0  0
  -27.6002  -25.0463   22.4338 H   0  0  0  0  0  0
  -27.2540  -22.6085   21.4185 H   0  0  0  0  0  0
  -30.1217  -23.4199   21.8672 H   0  0  0  0  0  0
  -29.6980  -25.1501   20.3072 H   0  0  0  0  0  0
  -29.0111  -20.6829   23.3056 H   0  0  0  0  0  0
  -29.8364  -21.1838   24.7448 H   0  0  0  0  0  0
  -30.6024  -21.4268   23.1857 H   0  0  0  0  0  0
  -29.1065  -24.7308   24.7244 H   0  0  0  0  0  0
  -30.6721  -23.9924   24.3853 H   0  0  0  0  0  0
  -29.6232  -23.3277   25.6309 H   0  0  0  0  0  0
  -32.7816  -20.8071   20.8920 H   0  0  0  0  0  0
  -32.7512  -21.3501   19.1934 H   0  0  0  0  0  0
  -33.8416  -20.0613   19.7040 H   0  0  0  0  0  0
  -25.1579  -19.4933   22.6047 H   0  0  0  0  0  0
  -26.6348  -18.5574   22.7205 H   0  0  0  0  0  0
  -25.6640  -18.5177   21.2296 H   0  0  0  0  0  0
  -31.4741  -17.2089   20.6607 H   0  0  0  0  0  0
  -30.7675  -17.0352   19.0858 H   0  0  0  0  0  0
  -27.9305  -22.7421   23.8669 H   0  0  0  0  0  0
  -28.9484  -15.7314   20.7505 H   0  0  0  0  0  0
  1 25  1  0  0  0
  1 30  2  0  0  0
  1 88  1  0  0  0
  2  3  1  0  0  0
  2 25  1  0  0  0
  2 91  1  0  0  0
  2 92  1  0  0  0
  3  4  1  0  0  0
  3 93  1  0  0  0
  3 94  1  0  0  0
  4  5  1  0  0  0
  4 95  1  0  0  0
  4 96  1  0  0  0
  5  6  1  0  0  0
  5 26  1  0  0  0
  5 97  1  0  0  0
  6 25  1  0  0  0
  6 98  1  0  0  0
  6 99  1  0  0  0
  7  8  2  0  0  0
  7 26  1  0  0  0
  7 29  1  0  0  0
  8  9  1  0  0  0
  8 22  1  0  0  0
  9 10  1  0  0  0
  9 27  2  0  0  0
 10 11  2  0  0  0
 10 15  1  0  0  0
 11 12  1  0  0  0
 11100  1  0  0  0
 12 13  2  0  0  0
 12101  1  0  0  0
 13 14  1  0  0  0
 13 31  1  0  0  0
 14 15  2  0  0  0
 14102  1  0  0  0
 15103  1  0  0  0
 16 17  2  0  0  0
 16 21  1  0  0  0
 16 31  1  0  0  0
 17 18  1  0  0  0
 17104  1  0  0  0
 18 19  2  0  0  0
 18105  1  0  0  0
 19 20  1  0  0  0
 19 24  1  0  0  0
 20 21  2  0  0  0
 20106  1  0  0  0
 21 23  1  0  0  0
 22 28  1  0  0  0
 22 32  2  0  0  0
 26 27  1  0  0  0
 28107  1  0  0  0
 28108  1  0  0  0
 29109  1  0  0  0
 29110  1  0  0  0
 33 34  1  0  0  0
 33 66  1  0  0  0
 33 70  2  0  0  0
 34 36  1  0  0  0
 34 59  1  0  0  0
 34111  1  0  0  0
 35 44  2  0  0  0
 35 45  1  0  0  0
 35 68  1  0  0  0
 36 56  1  0  0  0
 36112  1  0  0  0
 37 39  1  0  0  0
 37 47  1  0  0  0
 37 66  1  0  0  0
 37113  1  0  0  0
 38 43  2  0  0  0
 38 46  1  0  0  0
 38 47  1  0  0  0
 39 64  1  0  0  0
 39 67  2  0  0  0
 40 52  1  0  0  0
 40 53  2  0  0  0
 40 58  1  0  0  0
 41114  1  0  0  0
 41115  1  0  0  0
 41116  1  0  0  0
 41 48  1  0  0  0
 42 43  1  0  0  0
 42 66  1  0  0  0
 42117  1  0  0  0
 42118  1  0  0  0
 43 44  1  0  0  0
 44119  1  0  0  0
 45 46  2  0  0  0
 45120  1  0  0  0
 46121  1  0  0  0
 47122  1  0  0  0
 47123  1  0  0  0
 48 56  1  0  0  0
 48 65  1  0  0  0
 48124  1  0  0  0
 49 50  1  0  0  0
 49 53  1  0  0  0
 49 64  1  0  0  0
 49125  1  0  0  0
 50 51  1  0  0  0
 50126  1  0  0  0
 50127  1  0  0  0
 51 52  1  0  0  0
 51128  1  0  0  0
 51129  1  0  0  0
 52130  1  0  0  0
 52131  1  0  0  0
 53 54  1  0  0  0
 54 55  2  0  0  0
 54132  1  0  0  0
 55 57  1  0  0  0
 55133  1  0  0  0
 56 69  2  0  0  0
 57 58  2  0  0  0
 57134  1  0  0  0
 58135  1  0  0  0
 59 60  1  0  0  0
 59 61  1  0  0  0
 59 62  1  0  0  0
 60136  1  0  0  0
 60137  1  0  0  0
 60138  1  0  0  0
 61139  1  0  0  0
 61140  1  0  0  0
 61141  1  0  0  0
 62142  1  0  0  0
 62143  1  0  0  0
 62144  1  0  0  0
 63 65  1  0  0  0
 63145  1  0  0  0
 63146  1  0  0  0
 63147  1  0  0  0
 64148  1  0  0  0
 65149  1  0  0  0
 68 81  1  0  0  0
 71 73  2  0  0  0
 71 75  1  0  0  0
 71150  1  0  0  0
 72 74  1  0  0  0
 72 76  2  0  0  0
 72151  1  0  0  0
 73 76  1  0  0  0
 73 79  1  0  0  0
 74 75  2  0  0  0
 74 86  1  0  0  0
 75 89  1  0  0  0
 76 90  1  0  0  0
 77 79  1  0  0  0
 77 81  1  0  0  0
 77152  1  0  0  0
 77153  1  0  0  0
 78 81  1  0  0  0
 78154  1  0  0  0
 78155  1  0  0  0
 78 80  1  0  0  0
 79 80  1  0  0  0
 79156  1  0  0  0
 80 87  1  0  0  0
 80157  1  0  0  0
 81158  1  0  0  0
 82159  1  0  0  0
 82160  1  0  0  0
 82161  1  0  0  0
 82 87  1  0  0  0
 83 87  1  0  0  0
 83162  1  0  0  0
 83163  1  0  0  0
 83164  1  0  0  0
 84 89  1  0  0  0
 84165  1  0  0  0
 84166  1  0  0  0
 84167  1  0  0  0
 85 90  1  0  0  0
 85168  1  0  0  0
 85169  1  0  0  0
 85170  1  0  0  0
 86 88  1  0  0  0
 86171  1  0  0  0
 86172  1  0  0  0
 87173  1  0  0  0
 88174  1  0  0  0
M  ISO  4   1 100  68 101  81 101  88 100
M  END
> <chiral flag>
0

> <version>
0

> <s_m_source_file>
/data/baiqing/PycharmProjects/Reinvent-master-3.2/result/LINK_invent/BTK/process_docking_weight1_custom_sum_contain_oxygen_bond_distance_aromatic_linkinvent_7_9_3/rearranged_h_0151.sdf

> <i_m_source_file_index>
85

> <r_mmod_Potential_Energy-OPLS-2005>
159.720809936523

> <r_mmod_Stretch_Energy-OPLS-2005>
83.9752731323242

> <r_mmod_Bend_Energy-OPLS-2005>
244.553802490234

> <r_mmod_Torsional_Energy-OPLS-2005>
275.416778564453

> <r_mmod_Improper_Torsional_Energy-OPLS-2005>
8.12679958343506

> <r_mmod_Van_der_Waal_Energy-OPLS-2005>
143.757583618164

> <r_mmod_Electrostatic_Energy-OPLS-2005>
-435.517974853516

> <r_mmod_Solvation_Energy-OPLS-2005>
-207.464019775391

> <b_mmod_Minimization_Converged-OPLS-2005>
0

> <r_mmod_RMS_Derivative-OPLS-2005>
4.35887575149536

$$$$
85
                    3D
 Structure written by MMmdl.
150159  0  0  1  0            999 V2000
  -30.4009  -15.3410   20.3322 C   0  0  0  0  0  0
  -30.4312  -12.8523   19.5380 C   0  0  0  0  0  0
  -29.5361  -12.5818   18.3008 C   0  0  0  0  0  0
  -28.0894  -12.2904   18.7310 C   0  0  0  0  0  0
  -27.6049  -13.2803   19.8185 C   0  0  2  0  0  0
  -28.6316  -13.4881   20.9531 C   0  0  0  0  0  0
  -25.2346  -13.8251   20.5755 C   0  0  0  0  0  0
  -24.1707  -13.0434   20.9265 C   0  0  0  0  0  0
  -24.6356  -11.6928   20.8740 C   0  0  0  0  0  0
  -23.9061  -10.4285   21.0369 C   0  0  0  0  0  0
  -24.3613   -9.4208   21.9158 C   0  0  0  0  0  0
  -23.6295   -8.2244   22.0742 C   0  0  0  0  0  0
  -22.4279   -8.0266   21.3531 C   0  0  0  0  0  0
  -21.9901   -9.0228   20.4626 C   0  0  0  0  0  0
  -22.7228  -10.2115   20.3025 C   0  0  0  0  0  0
  -21.6854   -6.0715   22.5276 C   0  0  0  0  0  0
  -21.4016   -6.5625   23.8207 C   0  0  0  0  0  0
  -21.3669   -5.6780   24.9169 C   0  0  0  0  0  0
  -21.6050   -4.3039   24.7222 C   0  0  0  0  0  0
  -21.8822   -3.8136   23.4339 C   0  0  0  0  0  0
  -21.9193   -4.6948   22.3398 C   0  0  0  0  0  0
  -22.7728  -13.5173   21.1929 C   0  0  0  0  0  0
  -22.1661   -4.2127   21.0970 F   0  0  0  0  0  0
  -21.5634   -3.4527   25.7736 F   0  0  0  0  0  0
  -29.8590  -14.0125   20.3276 N   0  0  0  0  0  0
  -26.2761  -12.9530   20.3185 N   0  0  0  0  0  0
  -25.9290  -11.6632   20.5692 N   0  0  0  0  0  0
  -22.0401  -12.8124   22.0474 N   0  0  0  0  0  0
  -25.4000  -15.1982   20.4215 N   0  0  0  0  0  0
  -31.6222  -15.3174   20.0946 O   0  0  0  0  0  0
  -21.6646   -6.8863   21.4240 O   0  0  0  0  0  0
  -22.3391  -14.5476   20.6783 O   0  0  0  0  0  0
  -24.6670  -31.8175   23.1651 C   0  0  0  0  0  0
  -25.9322  -32.4568   23.8146 C   0  0  1  0  0  0
  -27.2263  -26.8771   20.1878 C   0  0  0  0  0  0
  -25.5961  -33.8390   24.2055 N   0  0  0  0  0  0
  -23.4845  -30.4253   21.5161 C   0  0  2  0  0  0
  -24.9400  -28.7964   20.1104 C   0  0  0  0  0  0
  -22.7690  -29.4418   22.4779 C   0  0  0  0  0  0
  -18.0324  -28.1437   22.8483 C   0  0  0  0  0  0
  -24.1474  -36.7184   23.2652 C   0  0  0  0  0  0
  -26.0535  -30.6047   21.4036 C   0  0  0  0  0  0
  -26.1211  -29.1869   20.7518 C   0  0  0  0  0  0
  -27.2502  -28.2459   20.7710 C   0  0  0  0  0  0
  -26.0184  -26.6480   19.4909 C   0  0  0  0  0  0
  -24.9156  -27.5483   19.4619 C   0  0  0  0  0  0
  -23.7274  -29.7305   20.1456 C   0  0  0  0  0  0
  -25.4129  -36.2971   24.0305 C   0  0  1  0  0  0
  -20.5954  -28.3783   23.1186 C   0  0  2  0  0  0
  -20.6794  -26.9456   22.5413 C   0  0  0  0  0  0
  -19.5772  -26.6406   21.5225 C   0  0  0  0  0  0
  -18.1958  -26.7971   22.1630 C   0  0  0  0  0  0
  -19.1593  -28.8934   23.2816 C   0  0  0  0  0  0
  -18.9492  -30.1517   23.8866 C   0  0  0  0  0  0
  -17.6489  -30.6619   24.0577 C   0  0  0  0  0  0
  -25.9100  -34.9351   23.5017 C   0  0  0  0  0  0
  -16.5381  -29.9120   23.6351 C   0  0  0  0  0  0
  -16.7306  -28.6538   23.0371 C   0  0  0  0  0  0
  -26.4564  -31.6541   25.0694 C   0  0  0  0  0  0
  -25.3678  -31.3780   26.1337 C   0  0  0  0  0  0
  -27.0451  -30.2922   24.6423 C   0  0  0  0  0  0
  -27.6068  -32.4344   25.7489 C   0  0  0  0  0  0
  -27.5562  -37.1755   24.8480 C   0  0  0  0  0  0
  -21.4351  -29.3054   22.3524 N   0  0  0  0  0  0
  -26.4268  -37.3719   23.9423 N   0  0  0  0  0  0
  -24.7576  -30.9770   22.0826 N   0  0  0  0  0  0
  -23.4213  -28.8013   23.3055 O   0  0  0  0  0  0
  -28.2352  -25.7702   20.3261 O   0  0  0  0  0  0
  -26.5718  -34.8889   22.4615 O   0  0  0  0  0  0
  -23.5730  -32.1171   23.6721 O   0  0  0  0  0  0
  -30.1702  -21.0192   19.2044 C   0  0  0  0  0  0
  -28.9744  -19.4861   20.5746 C   0  0  0  0  0  0
  -30.8821  -19.8608   18.7927 C   0  0  0  0  0  0
  -29.1267  -20.9799   20.1497 C   0  0  0  0  0  0
  -29.7600  -18.2219   20.1252 C   0  0  0  0  0  0
  -27.1554  -22.2938   21.4773 C   0  0  0  0  0  0
  -28.4301  -22.6872   22.1617 C   0  0  0  0  0  0
  -28.4065  -22.5356   20.6537 C   0  0  0  0  0  0
  -28.3245  -24.1557   19.8627 C   0  0  0  0  0  0
  -30.7032  -18.5736   19.2175 N   0  0  0  0  0  0
  -29.6300  -16.6249   20.4712 N   0  0  0  0  0  0
  -31.4498  -13.0538   19.2045 H   0  0  0  0  0  0
  -30.5062  -11.9582   20.1575 H   0  0  0  0  0  0
  -29.9267  -11.7455   17.7189 H   0  0  0  0  0  0
  -29.5553  -13.4515   17.6439 H   0  0  0  0  0  0
  -28.0630  -11.2751   19.1295 H   0  0  0  0  0  0
  -27.4188  -12.2988   17.8706 H   0  0  0  0  0  0
  -27.5096  -14.2365   19.3033 H   0  0  0  0  0  0
  -28.8096  -12.5615   21.5015 H   0  0  0  0  0  0
  -28.2550  -14.2098   21.6797 H   0  0  0  0  0  0
  -25.2748   -9.5694   22.4730 H   0  0  0  0  0  0
  -23.9997   -7.4634   22.7457 H   0  0  0  0  0  0
  -21.0842   -8.8726   19.8924 H   0  0  0  0  0  0
  -22.3663  -10.9638   19.6125 H   0  0  0  0  0  0
  -21.2009   -7.6130   23.9702 H   0  0  0  0  0  0
  -21.1496   -6.0506   25.9068 H   0  0  0  0  0  0
  -22.0596   -2.7592   23.2846 H   0  0  0  0  0  0
  -22.4060  -11.9790   22.4844 H   0  0  0  0  0  0
  -21.0999  -13.1101   22.2693 H   0  0  0  0  0  0
  -24.6333  -15.8513   20.5422 H   0  0  0  0  0  0
  -26.2345  -15.6361   20.0543 H   0  0  0  0  0  0
  -26.7393  -32.5107   23.0852 H   0  0  0  0  0  0
  -25.0041  -33.9465   25.0165 H   0  0  0  0  0  0
  -22.8014  -31.2584   21.3395 H   0  0  0  0  0  0
  -23.3767  -35.9479   23.3303 H   0  0  0  0  0  0
  -24.3533  -36.8844   22.2063 H   0  0  0  0  0  0
  -23.7187  -37.6356   23.6712 H   0  0  0  0  0  0
  -26.2335  -31.3379   20.6166 H   0  0  0  0  0  0
  -26.9131  -30.6726   22.0574 H   0  0  0  0  0  0
  -28.1368  -28.5358   21.3170 H   0  0  0  0  0  0
  -25.8843  -25.6910   19.0073 H   0  0  0  0  0  0
  -24.0149  -27.2392   18.9487 H   0  0  0  0  0  0
  -23.8846  -30.4930   19.3818 H   0  0  0  0  0  0
  -22.8349  -29.1854   19.8345 H   0  0  0  0  0  0
  -25.1329  -36.1771   25.0796 H   0  0  0  0  0  0
  -21.0041  -28.3384   24.1307 H   0  0  0  0  0  0
  -20.5671  -26.2397   23.3654 H   0  0  0  0  0  0
  -21.6654  -26.7418   22.1223 H   0  0  0  0  0  0
  -19.6911  -25.6307   21.1281 H   0  0  0  0  0  0
  -19.6704  -27.3187   20.6738 H   0  0  0  0  0  0
  -17.4216  -26.6724   21.4034 H   0  0  0  0  0  0
  -18.0338  -26.0119   22.9035 H   0  0  0  0  0  0
  -19.7963  -30.7360   24.2204 H   0  0  0  0  0  0
  -17.5033  -31.6299   24.5192 H   0  0  0  0  0  0
  -15.5376  -30.3016   23.7703 H   0  0  0  0  0  0
  -15.8698  -28.0856   22.7107 H   0  0  0  0  0  0
  -24.5914  -30.7068   25.7651 H   0  0  0  0  0  0
  -24.8771  -32.2950   26.4616 H   0  0  0  0  0  0
  -25.7892  -30.9071   27.0224 H   0  0  0  0  0  0
  -26.3108  -29.6609   24.1404 H   0  0  0  0  0  0
  -27.3973  -29.7296   25.5076 H   0  0  0  0  0  0
  -27.9064  -30.4143   23.9850 H   0  0  0  0  0  0
  -27.2692  -33.3730   26.1902 H   0  0  0  0  0  0
  -28.3960  -32.6758   25.0355 H   0  0  0  0  0  0
  -28.0635  -31.8557   26.5528 H   0  0  0  0  0  0
  -28.2604  -38.0038   24.7534 H   0  0  0  0  0  0
  -28.1036  -36.2571   24.6309 H   0  0  0  0  0  0
  -27.2269  -37.1400   25.8880 H   0  0  0  0  0  0
  -20.9623  -29.8707   21.6613 H   0  0  0  0  0  0
  -26.0118  -38.2778   24.1445 H   0  0  0  0  0  0
  -30.4594  -21.9746   18.7897 H   0  0  0  0  0  0
  -28.2087  -19.2990   21.3152 H   0  0  0  0  0  0
  -31.6678  -19.9817   18.0608 H   0  0  0  0  0  0
  -26.8115  -21.2668   21.5826 H   0  0  0  0  0  0
  -26.3635  -23.0388   21.4206 H   0  0  0  0  0  0
  -28.9722  -21.9301   22.7244 H   0  0  0  0  0  0
  -28.4721  -23.6933   22.5747 H   0  0  0  0  0  0
  -27.5737  -24.0419   19.0816 H   0  0  0  0  0  0
  -29.2572  -24.1761   19.2998 H   0  0  0  0  0  0
  -28.7063  -16.4130   20.8152 H   0  0  0  0  0  0
  1 25  1  0  0  0
  1 30  2  0  0  0
  1 81  1  0  0  0
  2  3  1  0  0  0
  2 25  1  0  0  0
  2 82  1  0  0  0
  2 83  1  0  0  0
  3  4  1  0  0  0
  3 84  1  0  0  0
  3 85  1  0  0  0
  4  5  1  0  0  0
  4 86  1  0  0  0
  4 87  1  0  0  0
  5  6  1  0  0  0
  5 26  1  0  0  0
  5 88  1  0  0  0
  6 25  1  0  0  0
  6 89  1  0  0  0
  6 90  1  0  0  0
  7  8  2  0  0  0
  7 26  1  0  0  0
  7 29  1  0  0  0
  8  9  1  0  0  0
  8 22  1  0  0  0
  9 10  1  0  0  0
  9 27  2  0  0  0
 10 11  2  0  0  0
 10 15  1  0  0  0
 11 12  1  0  0  0
 11 91  1  0  0  0
 12 13  2  0  0  0
 12 92  1  0  0  0
 13 14  1  0  0  0
 13 31  1  0  0  0
 14 15  2  0  0  0
 14 93  1  0  0  0
 15 94  1  0  0  0
 16 17  2  0  0  0
 16 21  1  0  0  0
 16 31  1  0  0  0
 17 18  1  0  0  0
 17 95  1  0  0  0
 18 19  2  0  0  0
 18 96  1  0  0  0
 19 20  1  0  0  0
 19 24  1  0  0  0
 20 21  2  0  0  0
 20 97  1  0  0  0
 21 23  1  0  0  0
 22 28  1  0  0  0
 22 32  2  0  0  0
 26 27  1  0  0  0
 28 98  1  0  0  0
 28 99  1  0  0  0
 29100  1  0  0  0
 29101  1  0  0  0
 33 34  1  0  0  0
 33 66  1  0  0  0
 33 70  2  0  0  0
 34 36  1  0  0  0
 34 59  1  0  0  0
 34102  1  0  0  0
 35 44  2  0  0  0
 35 45  1  0  0  0
 35 68  1  0  0  0
 36 56  1  0  0  0
 36103  1  0  0  0
 37 39  1  0  0  0
 37 47  1  0  0  0
 37 66  1  0  0  0
 37104  1  0  0  0
 38 43  2  0  0  0
 38 46  1  0  0  0
 38 47  1  0  0  0
 39 64  1  0  0  0
 39 67  2  0  0  0
 40 52  1  0  0  0
 40 53  2  0  0  0
 40 58  1  0  0  0
 41105  1  0  0  0
 41106  1  0  0  0
 41107  1  0  0  0
 41 48  1  0  0  0
 42 43  1  0  0  0
 42 66  1  0  0  0
 42108  1  0  0  0
 42109  1  0  0  0
 43 44  1  0  0  0
 44110  1  0  0  0
 45 46  2  0  0  0
 45111  1  0  0  0
 46112  1  0  0  0
 47113  1  0  0  0
 47114  1  0  0  0
 48 56  1  0  0  0
 48 65  1  0  0  0
 48115  1  0  0  0
 49 50  1  0  0  0
 49 53  1  0  0  0
 49 64  1  0  0  0
 49116  1  0  0  0
 50 51  1  0  0  0
 50117  1  0  0  0
 50118  1  0  0  0
 51 52  1  0  0  0
 51119  1  0  0  0
 51120  1  0  0  0
 52121  1  0  0  0
 52122  1  0  0  0
 53 54  1  0  0  0
 54 55  2  0  0  0
 54123  1  0  0  0
 55 57  1  0  0  0
 55124  1  0  0  0
 56 69  2  0  0  0
 57 58  2  0  0  0
 57125  1  0  0  0
 58126  1  0  0  0
 59 60  1  0  0  0
 59 61  1  0  0  0
 59 62  1  0  0  0
 60127  1  0  0  0
 60128  1  0  0  0
 60129  1  0  0  0
 61130  1  0  0  0
 61131  1  0  0  0
 61132  1  0  0  0
 62133  1  0  0  0
 62134  1  0  0  0
 62135  1  0  0  0
 63 65  1  0  0  0
 63136  1  0  0  0
 63137  1  0  0  0
 63138  1  0  0  0
 64139  1  0  0  0
 65140  1  0  0  0
 68 79  1  0  0  0
 71 73  2  0  0  0
 71 74  1  0  0  0
 71141  1  0  0  0
 72 74  2  0  0  0
 72 75  1  0  0  0
 72142  1  0  0  0
 73 80  1  0  0  0
 73143  1  0  0  0
 74 78  1  0  0  0
 75 80  2  0  0  0
 75 81  1  0  0  0
 76 77  1  0  0  0
 76 78  1  0  0  0
 76144  1  0  0  0
 76145  1  0  0  0
 77 78  1  0  0  0
 77146  1  0  0  0
 77147  1  0  0  0
 78 79  1  0  0  0
 79148  1  0  0  0
 79149  1  0  0  0
 81150  1  0  0  0
M  ISO  4   1 100  68 101  79 101  81 100
M  END
> <chiral flag>
0

> <version>
0

> <s_m_source_file>
/data/baiqing/PycharmProjects/Reinvent-master-3.2/result/LINK_invent/BTK/process_docking_weight1_custom_sum_contain_oxygen_bond_distance_aromatic_linkinvent_7_9_3/rearranged_h_0151.sdf

> <i_m_source_file_index>
86

> <r_mmod_Potential_Energy-OPLS-2005>
1332.02197265625

> <r_mmod_Stretch_Energy-OPLS-2005>
673.335083007812

> <r_mmod_Bend_Energy-OPLS-2005>
472.124389648438

> <r_mmod_Torsional_Energy-OPLS-2005>
243.599975585938

> <r_mmod_Improper_Torsional_Energy-OPLS-2005>
3.23069834709167

> <r_mmod_Van_der_Waal_Energy-OPLS-2005>
124.679466247559

> <r_mmod_Electrostatic_Energy-OPLS-2005>
-483.409759521484

> <r_mmod_Solvation_Energy-OPLS-2005>
-238.788772583008

> <b_mmod_Minimization_Converged-OPLS-2005>
0

> <r_mmod_RMS_Derivative-OPLS-2005>
2.41868662834167

$$$$
86
                    3D
 Structure written by MMmdl.
175185  0  0  1  0            999 V2000
  -30.7433  -14.4415   20.5829 C   0  0  0  0  0  0
  -30.4054  -12.2905   19.4328 C   0  0  0  0  0  0
  -29.4886  -12.4928   18.2105 C   0  0  0  0  0  0
  -28.0099  -12.3605   18.6200 C   0  0  0  0  0  0
  -27.6557  -13.2109   19.8689 C   0  0  2  0  0  0
  -28.6926  -13.0145   20.9957 C   0  0  0  0  0  0
  -25.2564  -13.8187   20.5683 C   0  0  0  0  0  0
  -24.1820  -13.0452   20.9178 C   0  0  0  0  0  0
  -24.6387  -11.6921   20.8742 C   0  0  0  0  0  0
  -23.9058  -10.4298   21.0412 C   0  0  0  0  0  0
  -24.3618   -9.4213   21.9185 C   0  0  0  0  0  0
  -23.6299   -8.2247   22.0754 C   0  0  0  0  0  0
  -22.4275   -8.0286   21.3547 C   0  0  0  0  0  0
  -21.9911   -9.0254   20.4647 C   0  0  0  0  0  0
  -22.7239  -10.2140   20.3059 C   0  0  0  0  0  0
  -21.6850   -6.0744   22.5284 C   0  0  0  0  0  0
  -21.4016   -6.5648   23.8216 C   0  0  0  0  0  0
  -21.3655   -5.6799   24.9175 C   0  0  0  0  0  0
  -21.6043   -4.3059   24.7226 C   0  0  0  0  0  0
  -21.8818   -3.8158   23.4343 C   0  0  0  0  0  0
  -21.9192   -4.6975   22.3404 C   0  0  0  0  0  0
  -22.7844  -13.5244   21.1844 C   0  0  0  0  0  0
  -22.1661   -4.2165   21.0979 F   0  0  0  0  0  0
  -21.5626   -3.4541   25.7733 F   0  0  0  0  0  0
  -30.0250  -13.2935   20.4411 N   0  0  0  0  0  0
  -26.2990  -12.9361   20.3348 N   0  0  0  0  0  0
  -25.9308  -11.6514   20.5763 N   0  0  0  0  0  0
  -22.0497  -12.8224   22.0409 N   0  0  0  0  0  0
  -25.4319  -15.1902   20.4120 N   0  0  0  0  0  0
  -31.8856  -14.5547   20.1223 O   0  0  0  0  0  0
  -21.6642   -6.8889   21.4242 O   0  0  0  0  0  0
  -22.3520  -14.5551   20.6708 O   0  0  0  0  0  0
  -24.6116  -31.8699   23.2115 C   0  0  0  0  0  0
  -25.9018  -32.4829   23.8422 C   0  0  1  0  0  0
  -27.2393  -27.4756   20.0960 C   0  0  0  0  0  0
  -25.5884  -33.8631   24.2352 N   0  0  0  0  0  0
  -23.3984  -30.4931   21.5498 C   0  0  2  0  0  0
  -24.8468  -28.9612   20.1162 C   0  0  0  0  0  0
  -22.7398  -29.4678   22.5004 C   0  0  0  0  0  0
  -18.0281  -28.1381   22.8502 C   0  0  0  0  0  0
  -24.1477  -36.7338   23.2632 C   0  0  0  0  0  0
  -25.9207  -30.8511   21.3562 C   0  0  0  0  0  0
  -26.0005  -29.4846   20.7140 C   0  0  0  0  0  0
  -27.2008  -28.7464   20.7084 C   0  0  0  0  0  0
  -26.0792  -26.9619   19.4846 C   0  0  0  0  0  0
  -24.8775  -27.6962   19.5006 C   0  0  0  0  0  0
  -23.6055  -29.8210   20.1655 C   0  0  0  0  0  0
  -25.4091  -36.3125   24.0346 C   0  0  1  0  0  0
  -20.5867  -28.3663   23.1334 C   0  0  2  0  0  0
  -20.6784  -26.9398   22.5430 C   0  0  0  0  0  0
  -19.5757  -26.6378   21.5232 C   0  0  0  0  0  0
  -18.1930  -26.7929   22.1630 C   0  0  0  0  0  0
  -19.1529  -28.8842   23.2917 C   0  0  0  0  0  0
  -18.9447  -30.1450   23.8922 C   0  0  0  0  0  0
  -17.6450  -30.6584   24.0579 C   0  0  0  0  0  0
  -25.9025  -34.9482   23.5141 C   0  0  0  0  0  0
  -16.5343  -29.9091   23.6330 C   0  0  0  0  0  0
  -16.7271  -28.6513   23.0345 C   0  0  0  0  0  0
  -26.4465  -31.6586   25.0729 C   0  0  0  0  0  0
  -25.3754  -31.3674   26.1499 C   0  0  0  0  0  0
  -27.0282  -30.3033   24.6066 C   0  0  0  0  0  0
  -27.6058  -32.4301   25.7477 C   0  0  0  0  0  0
  -27.5587  -37.1797   24.8445 C   0  0  0  0  0  0
  -21.4130  -29.3038   22.3744 N   0  0  0  0  0  0
  -26.4269  -37.3821   23.9438 N   0  0  0  0  0  0
  -24.6620  -31.0851   22.0982 N   0  0  0  0  0  0
  -23.4191  -28.8232   23.3038 O   0  0  0  0  0  0
  -28.3841  -26.7212   20.0711 O   0  0  0  0  0  0
  -26.5590  -34.8921   22.4701 O   0  0  0  0  0  0
  -23.5324  -32.1421   23.7548 O   0  0  0  0  0  0
  -28.1702  -22.6523   21.8645 C   0  0  0  0  0  0
  -29.0883  -24.8755   21.4902 C   0  0  0  0  0  0
  -27.9717  -24.0535   21.7612 C   0  0  0  0  0  0
  -30.3493  -24.2626   21.3340 C   0  0  0  0  0  0
  -29.4660  -22.1391   21.6611 C   0  0  0  0  0  0
  -29.4205  -17.9489   20.3839 C   0  0  0  0  0  0
  -29.1519  -17.1512   22.7004 C   0  0  0  0  0  0
  -24.3921  -24.8099   22.2908 C   0  0  0  0  0  0
  -30.2765  -16.7197   20.0520 C   0  0  0  0  0  0
  -30.0225  -15.9085   22.3810 C   0  0  0  0  0  0
  -29.6089  -18.3472   21.8512 C   0  0  0  0  0  0
  -24.9729  -24.0191   23.4437 C   0  0  2  0  0  0
  -25.5820  -23.9083   22.0659 C   0  0  2  0  0  0
  -31.6087  -25.0642   21.0612 C   0  0  0  0  0  0
  -24.1951  -22.8707   24.0472 C   0  0  0  0  0  0
  -28.9045  -26.3853   21.3560 C   0  0  0  0  0  0
  -28.9521  -19.7105   22.1794 C   0  0  0  0  0  0
  -30.5236  -22.9265   21.4099 N   0  0  0  0  0  0
  -30.0572  -15.5575   20.9444 N   0  0  0  0  0  0
  -29.7934  -20.7832   21.6574 N   0  0  0  0  0  0
  -26.7533  -24.6855   21.8873 O   0  0  0  0  0  0
  -31.4526  -12.3589   19.1344 H   0  0  0  0  0  0
  -30.2829  -11.2875   19.8435 H   0  0  0  0  0  0
  -29.7287  -11.7631   17.4361 H   0  0  0  0  0  0
  -29.6641  -13.4760   17.7718 H   0  0  0  0  0  0
  -27.8182  -11.3060   18.8235 H   0  0  0  0  0  0
  -27.3617  -12.6301   17.7852 H   0  0  0  0  0  0
  -27.6955  -14.2563   19.5607 H   0  0  0  0  0  0
  -28.6600  -11.9928   21.3754 H   0  0  0  0  0  0
  -28.4464  -13.6528   21.8423 H   0  0  0  0  0  0
  -25.2765   -9.5691   22.4754 H   0  0  0  0  0  0
  -24.0016   -7.4634   22.7463 H   0  0  0  0  0  0
  -21.0849   -8.8765   19.8945 H   0  0  0  0  0  0
  -22.3694  -10.9675   19.6165 H   0  0  0  0  0  0
  -21.2010   -7.6156   23.9726 H   0  0  0  0  0  0
  -21.1478   -6.0527   25.9078 H   0  0  0  0  0  0
  -22.0603   -2.7623   23.2836 H   0  0  0  0  0  0
  -22.4122  -11.9880   22.4777 H   0  0  0  0  0  0
  -21.1118  -13.1241   22.2636 H   0  0  0  0  0  0
  -24.6756  -15.8551   20.5325 H   0  0  0  0  0  0
  -26.3022  -15.6247   20.1311 H   0  0  0  0  0  0
  -26.7107  -32.5570   23.1209 H   0  0  0  0  0  0
  -25.0027  -33.9808   25.0496 H   0  0  0  0  0  0
  -22.6866  -31.3091   21.4095 H   0  0  0  0  0  0
  -23.3749  -35.9661   23.3249 H   0  0  0  0  0  0
  -24.3584  -36.9002   22.2055 H   0  0  0  0  0  0
  -23.7203  -37.6520   23.6671 H   0  0  0  0  0  0
  -26.0194  -31.6105   20.5805 H   0  0  0  0  0  0
  -26.8144  -30.9139   21.9651 H   0  0  0  0  0  0
  -28.0919  -29.1514   21.1666 H   0  0  0  0  0  0
  -26.1060  -25.9900   19.0131 H   0  0  0  0  0  0
  -23.9904  -27.2905   19.0351 H   0  0  0  0  0  0
  -23.7047  -30.5921   19.4006 H   0  0  0  0  0  0
  -22.7338  -29.2306   19.8781 H   0  0  0  0  0  0
  -25.1249  -36.1989   25.0840 H   0  0  0  0  0  0
  -20.9968  -28.3220   24.1450 H   0  0  0  0  0  0
  -20.5710  -26.2256   23.3608 H   0  0  0  0  0  0
  -21.6651  -26.7446   22.1212 H   0  0  0  0  0  0
  -19.6906  -25.6292   21.1249 H   0  0  0  0  0  0
  -19.6702  -27.3207   20.6779 H   0  0  0  0  0  0
  -17.4206  -26.6701   21.4022 H   0  0  0  0  0  0
  -18.0309  -26.0077   22.9027 H   0  0  0  0  0  0
  -19.7922  -30.7272   24.2287 H   0  0  0  0  0  0
  -17.5001  -31.6261   24.5172 H   0  0  0  0  0  0
  -15.5344  -30.2996   23.7639 H   0  0  0  0  0  0
  -15.8675  -28.0843   22.7026 H   0  0  0  0  0  0
  -24.5922  -30.7020   25.7847 H   0  0  0  0  0  0
  -24.8951  -32.2818   26.4987 H   0  0  0  0  0  0
  -25.8132  -30.8822   27.0229 H   0  0  0  0  0  0
  -26.2797  -29.6813   24.1144 H   0  0  0  0  0  0
  -27.4080  -29.7247   25.4493 H   0  0  0  0  0  0
  -27.8621  -30.4365   23.9176 H   0  0  0  0  0  0
  -27.2685  -33.3594   26.2083 H   0  0  0  0  0  0
  -28.3838  -32.6876   25.0276 H   0  0  0  0  0  0
  -28.0757  -31.8408   26.5362 H   0  0  0  0  0  0
  -28.2546  -38.0155   24.7601 H   0  0  0  0  0  0
  -28.1127  -36.2694   24.6104 H   0  0  0  0  0  0
  -27.2326  -37.1259   25.8847 H   0  0  0  0  0  0
  -20.9269  -29.8737   21.6962 H   0  0  0  0  0  0
  -26.0154  -38.2884   24.1510 H   0  0  0  0  0  0
  -27.3499  -21.9821   22.0706 H   0  0  0  0  0  0
  -28.3686  -17.7452   20.1760 H   0  0  0  0  0  0
  -29.7081  -18.7715   19.7273 H   0  0  0  0  0  0
  -29.2427  -17.3921   23.7604 H   0  0  0  0  0  0
  -28.0964  -16.9351   22.5243 H   0  0  0  0  0  0
  -24.5611  -25.8858   22.2876 H   0  0  0  0  0  0
  -23.4300  -24.4923   21.8936 H   0  0  0  0  0  0
  -31.3263  -17.0182   20.0953 H   0  0  0  0  0  0
  -30.0850  -16.4260   19.0175 H   0  0  0  0  0  0
  -29.6833  -15.0627   22.9796 H   0  0  0  0  0  0
  -31.0462  -16.1017   22.7081 H   0  0  0  0  0  0
  -30.6787  -18.4582   22.0435 H   0  0  0  0  0  0
  -25.5314  -24.5998   24.1761 H   0  0  0  0  0  0
  -25.4481  -23.0432   21.4189 H   0  0  0  0  0  0
  -31.8449  -25.6971   21.9170 H   0  0  0  0  0  0
  -31.4801  -25.6995   20.1840 H   0  0  0  0  0  0
  -32.4696  -24.4186   20.8815 H   0  0  0  0  0  0
  -23.7295  -22.2651   23.2686 H   0  0  0  0  0  0
  -23.4123  -23.2549   24.7009 H   0  0  0  0  0  0
  -24.8578  -22.2350   24.6356 H   0  0  0  0  0  0
  -29.8407  -26.9222   21.5020 H   0  0  0  0  0  0
  -28.2574  -26.7189   22.1706 H   0  0  0  0  0  0
  -28.8668  -19.8394   23.2595 H   0  0  0  0  0  0
  -27.9467  -19.7660   21.7608 H   0  0  0  0  0  0
  -30.7691  -20.5611   21.5002 H   0  0  0  0  0  0
  1 25  1  0  0  0
  1 30  2  0  0  0
  1 89  1  0  0  0
  2  3  1  0  0  0
  2 25  1  0  0  0
  2 92  1  0  0  0
  2 93  1  0  0  0
  3  4  1  0  0  0
  3 94  1  0  0  0
  3 95  1  0  0  0
  4  5  1  0  0  0
  4 96  1  0  0  0
  4 97  1  0  0  0
  5  6  1  0  0  0
  5 26  1  0  0  0
  5 98  1  0  0  0
  6 25  1  0  0  0
  6 99  1  0  0  0
  6100  1  0  0  0
  7  8  2  0  0  0
  7 26  1  0  0  0
  7 29  1  0  0  0
  8  9  1  0  0  0
  8 22  1  0  0  0
  9 10  1  0  0  0
  9 27  2  0  0  0
 10 11  2  0  0  0
 10 15  1  0  0  0
 11 12  1  0  0  0
 11101  1  0  0  0
 12 13  2  0  0  0
 12102  1  0  0  0
 13 14  1  0  0  0
 13 31  1  0  0  0
 14 15  2  0  0  0
 14103  1  0  0  0
 15104  1  0  0  0
 16 17  2  0  0  0
 16 21  1  0  0  0
 16 31  1  0  0  0
 17 18  1  0  0  0
 17105  1  0  0  0
 18 19  2  0  0  0
 18106  1  0  0  0
 19 20  1  0  0  0
 19 24  1  0  0  0
 20 21  2  0  0  0
 20107  1  0  0  0
 21 23  1  0  0  0
 22 28  1  0  0  0
 22 32  2  0  0  0
 26 27  1  0  0  0
 28108  1  0  0  0
 28109  1  0  0  0
 29110  1  0  0  0
 29111  1  0  0  0
 33 34  1  0  0  0
 33 66  1  0  0  0
 33 70  2  0  0  0
 34 36  1  0  0  0
 34 59  1  0  0  0
 34112  1  0  0  0
 35 44  2  0  0  0
 35 45  1  0  0  0
 35 68  1  0  0  0
 36 56  1  0  0  0
 36113  1  0  0  0
 37 39  1  0  0  0
 37 47  1  0  0  0
 37 66  1  0  0  0
 37114  1  0  0  0
 38 43  2  0  0  0
 38 46  1  0  0  0
 38 47  1  0  0  0
 39 64  1  0  0  0
 39 67  2  0  0  0
 40 52  1  0  0  0
 40 53  2  0  0  0
 40 58  1  0  0  0
 41115  1  0  0  0
 41116  1  0  0  0
 41117  1  0  0  0
 41 48  1  0  0  0
 42 43  1  0  0  0
 42 66  1  0  0  0
 42118  1  0  0  0
 42119  1  0  0  0
 43 44  1  0  0  0
 44120  1  0  0  0
 45 46  2  0  0  0
 45121  1  0  0  0
 46122  1  0  0  0
 47123  1  0  0  0
 47124  1  0  0  0
 48 56  1  0  0  0
 48 65  1  0  0  0
 48125  1  0  0  0
 49 50  1  0  0  0
 49 53  1  0  0  0
 49 64  1  0  0  0
 49126  1  0  0  0
 50 51  1  0  0  0
 50127  1  0  0  0
 50128  1  0  0  0
 51 52  1  0  0  0
 51129  1  0  0  0
 51130  1  0  0  0
 52131  1  0  0  0
 52132  1  0  0  0
 53 54  1  0  0  0
 54 55  2  0  0  0
 54133  1  0  0  0
 55 57  1  0  0  0
 55134  1  0  0  0
 56 69  2  0  0  0
 57 58  2  0  0  0
 57135  1  0  0  0
 58136  1  0  0  0
 59 60  1  0  0  0
 59 61  1  0  0  0
 59 62  1  0  0  0
 60137  1  0  0  0
 60138  1  0  0  0
 60139  1  0  0  0
 61140  1  0  0  0
 61141  1  0  0  0
 61142  1  0  0  0
 62143  1  0  0  0
 62144  1  0  0  0
 62145  1  0  0  0
 63 65  1  0  0  0
 63146  1  0  0  0
 63147  1  0  0  0
 63148  1  0  0  0
 64149  1  0  0  0
 65150  1  0  0  0
 68 86  1  0  0  0
 71 73  2  0  0  0
 71 75  1  0  0  0
 71151  1  0  0  0
 72 73  1  0  0  0
 72 74  2  0  0  0
 72 86  1  0  0  0
 73 91  1  0  0  0
 74 84  1  0  0  0
 74 88  1  0  0  0
 75 88  2  0  0  0
 75 90  1  0  0  0
 76 79  1  0  0  0
 76 81  1  0  0  0
 76152  1  0  0  0
 76153  1  0  0  0
 77 80  1  0  0  0
 77 81  1  0  0  0
 77154  1  0  0  0
 77155  1  0  0  0
 78 82  1  0  0  0
 78 83  1  0  0  0
 78156  1  0  0  0
 78157  1  0  0  0
 79 89  1  0  0  0
 79158  1  0  0  0
 79159  1  0  0  0
 80 89  1  0  0  0
 80160  1  0  0  0
 80161  1  0  0  0
 81 87  1  0  0  0
 81162  1  0  0  0
 82 83  1  0  0  0
 82 85  1  0  0  0
 82163  1  0  0  0
 83 91  1  0  0  0
 83164  1  0  0  0
 84165  1  0  0  0
 84166  1  0  0  0
 84167  1  0  0  0
 85168  1  0  0  0
 85169  1  0  0  0
 85170  1  0  0  0
 86171  1  0  0  0
 86172  1  0  0  0
 87 90  1  0  0  0
 87173  1  0  0  0
 87174  1  0  0  0
 90175  1  0  0  0
M  ISO  4   1 100  68 101  86 101  89 100
M  END
> <chiral flag>
0

> <version>
0

> <s_m_source_file>
/data/baiqing/PycharmProjects/Reinvent-master-3.2/result/LINK_invent/BTK/process_docking_weight1_custom_sum_contain_oxygen_bond_distance_aromatic_linkinvent_7_9_3/rearranged_h_0151.sdf

> <i_m_source_file_index>
87

> <r_mmod_Potential_Energy-OPLS-2005>
7.94304418563843

> <r_mmod_Stretch_Energy-OPLS-2005>
36.7201271057129

> <r_mmod_Bend_Energy-OPLS-2005>
138.990707397461

> <r_mmod_Torsional_Energy-OPLS-2005>
380.218566894531

> <r_mmod_Improper_Torsional_Energy-OPLS-2005>
12.5607843399048

> <r_mmod_Van_der_Waal_Energy-OPLS-2005>
150.425689697266

> <r_mmod_Electrostatic_Energy-OPLS-2005>
-507.795532226562

> <r_mmod_Solvation_Energy-OPLS-2005>
-215.310302734375

> <b_mmod_Minimization_Converged-OPLS-2005>
0

> <r_mmod_RMS_Derivative-OPLS-2005>
1.84426951408386

$$$$
87
                    3D
 Structure written by MMmdl.
164174  0  0  1  0            999 V2000
  -30.5716  -14.8798   20.4192 C   0  0  0  0  0  0
  -30.4299  -12.5411   19.4937 C   0  0  0  0  0  0
  -29.5153  -12.5162   18.2491 C   0  0  0  0  0  0
  -28.0456  -12.3178   18.6647 C   0  0  0  0  0  0
  -27.6296  -13.2442   19.8385 C   0  0  2  0  0  0
  -28.6711  -13.2533   20.9770 C   0  0  0  0  0  0
  -25.2466  -13.8215   20.5708 C   0  0  0  0  0  0
  -24.1778  -13.0442   20.9223 C   0  0  0  0  0  0
  -24.6384  -11.6927   20.8756 C   0  0  0  0  0  0
  -23.9064  -10.4300   21.0412 C   0  0  0  0  0  0
  -24.3617   -9.4215   21.9187 C   0  0  0  0  0  0
  -23.6297   -8.2247   22.0755 C   0  0  0  0  0  0
  -22.4280   -8.0281   21.3542 C   0  0  0  0  0  0
  -21.9913   -9.0252   20.4644 C   0  0  0  0  0  0
  -22.7239  -10.2133   20.3056 C   0  0  0  0  0  0
  -21.6856   -6.0739   22.5279 C   0  0  0  0  0  0
  -21.4013   -6.5640   23.8211 C   0  0  0  0  0  0
  -21.3659   -5.6790   24.9173 C   0  0  0  0  0  0
  -21.6046   -4.3054   24.7223 C   0  0  0  0  0  0
  -21.8821   -3.8146   23.4343 C   0  0  0  0  0  0
  -21.9191   -4.6964   22.3402 C   0  0  0  0  0  0
  -22.7800  -13.5218   21.1875 C   0  0  0  0  0  0
  -22.1665   -4.2153   21.0980 F   0  0  0  0  0  0
  -21.5629   -3.4536   25.7735 F   0  0  0  0  0  0
  -29.9535  -13.6380   20.3793 N   0  0  0  0  0  0
  -26.2880  -12.9437   20.3237 N   0  0  0  0  0  0
  -25.9315  -11.6569   20.5736 N   0  0  0  0  0  0
  -22.0440  -12.8214   22.0425 N   0  0  0  0  0  0
  -25.4128  -15.1941   20.4132 N   0  0  0  0  0  0
  -31.7747  -14.9269   20.1444 O   0  0  0  0  0  0
  -21.6641   -6.8880   21.4240 O   0  0  0  0  0  0
  -22.3491  -14.5520   20.6707 O   0  0  0  0  0  0
  -24.6385  -31.8464   23.1891 C   0  0  0  0  0  0
  -25.9174  -32.4705   23.8275 C   0  0  1  0  0  0
  -27.2218  -27.1777   20.1437 C   0  0  0  0  0  0
  -25.5936  -33.8509   24.2197 N   0  0  0  0  0  0
  -23.4395  -30.4644   21.5337 C   0  0  2  0  0  0
  -24.8873  -28.8918   20.1072 C   0  0  0  0  0  0
  -22.7535  -29.4559   22.4879 C   0  0  0  0  0  0
  -18.0293  -28.1400   22.8490 C   0  0  0  0  0  0
  -24.1483  -36.7259   23.2645 C   0  0  0  0  0  0
  -25.9899  -30.7321   21.3794 C   0  0  0  0  0  0
  -26.0600  -29.3461   20.7226 C   0  0  0  0  0  0
  -27.2248  -28.5024   20.7252 C   0  0  0  0  0  0
  -26.0240  -26.8042   19.4987 C   0  0  0  0  0  0
  -24.8793  -27.6330   19.4828 C   0  0  0  0  0  0
  -23.6611  -29.7890   20.1528 C   0  0  0  0  0  0
  -25.4118  -36.3038   24.0320 C   0  0  1  0  0  0
  -20.5904  -28.3711   23.1254 C   0  0  2  0  0  0
  -20.6779  -26.9420   22.5407 C   0  0  0  0  0  0
  -19.5750  -26.6384   21.5216 C   0  0  0  0  0  0
  -18.1929  -26.7943   22.1627 C   0  0  0  0  0  0
  -19.1552  -28.8877   23.2862 C   0  0  0  0  0  0
  -18.9476  -30.1480   23.8875 C   0  0  0  0  0  0
  -17.6475  -30.6601   24.0565 C   0  0  0  0  0  0
  -25.9068  -34.9412   23.5071 C   0  0  0  0  0  0
  -16.5362  -29.9095   23.6345 C   0  0  0  0  0  0
  -16.7278  -28.6514   23.0365 C   0  0  0  0  0  0
  -26.4508  -31.6567   25.0706 C   0  0  0  0  0  0
  -25.3700  -31.3746   26.1408 C   0  0  0  0  0  0
  -27.0377  -30.2973   24.6259 C   0  0  0  0  0  0
  -27.6049  -32.4326   25.7486 C   0  0  0  0  0  0
  -27.5573  -37.1788   24.8467 C   0  0  0  0  0  0
  -21.4237  -29.3040   22.3627 N   0  0  0  0  0  0
  -26.4281  -37.3751   23.9411 N   0  0  0  0  0  0
  -24.7090  -31.0356   22.0897 N   0  0  0  0  0  0
  -23.4196  -28.8119   23.3025 O   0  0  0  0  0  0
  -28.3193  -26.2653   20.2421 O   0  0  0  0  0  0
  -26.5655  -34.8909   22.4648 O   0  0  0  0  0  0
  -23.5519  -32.1327   23.7143 O   0  0  0  0  0  0
  -27.9679  -20.8650   20.0236 C   0  0  0  0  0  0
  -28.3904  -19.4716   19.9711 C   0  0  0  0  0  0
  -30.4583  -20.1122   20.8875 C   0  0  0  0  0  0
  -28.7576  -21.9673   20.5218 C   0  0  0  0  0  0
  -30.0569  -21.5055   20.9395 C   0  0  0  0  0  0
  -29.6685  -19.0108   20.4220 C   0  0  0  0  0  0
  -26.9047  -24.3082   22.4243 C   0  0  0  0  0  0
  -31.6565  -23.5779   20.6644 C   0  0  0  0  0  0
  -32.5190  -22.4175   21.0923 C   0  0  0  0  0  0
  -26.6536  -23.3655   21.2525 C   0  0  0  0  0  0
  -28.3622  -23.8699   22.3222 C   0  0  0  0  0  0
  -31.0636  -22.4699   21.5030 C   0  0  0  0  0  0
  -28.1452  -23.4786   20.8377 C   0  0  0  0  0  0
  -30.3537  -17.5235   20.2612 C   0  0  0  0  0  0
  -28.3632  -24.7770   19.8267 C   0  0  0  0  0  0
  -29.8315  -16.0792   20.5343 N   0  0  0  0  0  0
  -31.4678  -12.6777   19.1868 H   0  0  0  0  0  0
  -30.3995  -11.5849   20.0185 H   0  0  0  0  0  0
  -29.8247  -11.7222   17.5679 H   0  0  0  0  0  0
  -29.6192  -13.4519   17.6972 H   0  0  0  0  0  0
  -27.9283  -11.2749   18.9609 H   0  0  0  0  0  0
  -27.3850  -12.4659   17.8095 H   0  0  0  0  0  0
  -27.6006  -14.2511   19.4212 H   0  0  0  0  0  0
  -28.7420  -12.2763   21.4573 H   0  0  0  0  0  0
  -28.3849  -13.9626   21.7553 H   0  0  0  0  0  0
  -25.2761   -9.5698   22.4763 H   0  0  0  0  0  0
  -24.0008   -7.4641   22.7475 H   0  0  0  0  0  0
  -21.0846   -8.8767   19.8949 H   0  0  0  0  0  0
  -22.3695  -10.9670   19.6167 H   0  0  0  0  0  0
  -21.2003   -7.6148   23.9717 H   0  0  0  0  0  0
  -21.1482   -6.0520   25.9077 H   0  0  0  0  0  0
  -22.0597   -2.7609   23.2840 H   0  0  0  0  0  0
  -22.4056  -11.9888   22.4840 H   0  0  0  0  0  0
  -21.1047  -13.1234   22.2597 H   0  0  0  0  0  0
  -24.6419  -15.8436   20.5262 H   0  0  0  0  0  0
  -26.2526  -15.6351   20.0623 H   0  0  0  0  0  0
  -26.7244  -32.5320   23.1011 H   0  0  0  0  0  0
  -25.0063  -33.9629   25.0333 H   0  0  0  0  0  0
  -22.7399  -31.2888   21.3808 H   0  0  0  0  0  0
  -23.3754  -35.9581   23.3291 H   0  0  0  0  0  0
  -24.3574  -36.8900   22.2062 H   0  0  0  0  0  0
  -23.7224  -37.6446   23.6690 H   0  0  0  0  0  0
  -26.1394  -31.4866   20.6062 H   0  0  0  0  0  0
  -26.8638  -30.7835   22.0170 H   0  0  0  0  0  0
  -28.1199  -28.8463   21.2243 H   0  0  0  0  0  0
  -25.9396  -25.8366   19.0287 H   0  0  0  0  0  0
  -23.9807  -27.2779   18.9969 H   0  0  0  0  0  0
  -23.7882  -30.5607   19.3924 H   0  0  0  0  0  0
  -22.7777  -29.2239   19.8502 H   0  0  0  0  0  0
  -25.1306  -36.1868   25.0813 H   0  0  0  0  0  0
  -21.0004  -28.3294   24.1373 H   0  0  0  0  0  0
  -20.5675  -26.2325   23.3620 H   0  0  0  0  0  0
  -21.6648  -26.7429   22.1205 H   0  0  0  0  0  0
  -19.6898  -25.6285   21.1263 H   0  0  0  0  0  0
  -19.6689  -27.3185   20.6737 H   0  0  0  0  0  0
  -17.4203  -26.6699   21.4020 H   0  0  0  0  0  0
  -18.0319  -26.0086   22.9025 H   0  0  0  0  0  0
  -19.7950  -30.7309   24.2223 H   0  0  0  0  0  0
  -17.5027  -31.6278   24.5173 H   0  0  0  0  0  0
  -15.5364  -30.2994   23.7686 H   0  0  0  0  0  0
  -15.8675  -28.0828   22.7095 H   0  0  0  0  0  0
  -24.5891  -30.7077   25.7733 H   0  0  0  0  0  0
  -24.8873  -32.2923   26.4779 H   0  0  0  0  0  0
  -25.7993  -30.8961   27.0217 H   0  0  0  0  0  0
  -26.2985  -29.6689   24.1279 H   0  0  0  0  0  0
  -27.4027  -29.7275   25.4814 H   0  0  0  0  0  0
  -27.8870  -30.4231   23.9540 H   0  0  0  0  0  0
  -27.2659  -33.3654   26.2001 H   0  0  0  0  0  0
  -28.3894  -32.6833   25.0333 H   0  0  0  0  0  0
  -28.0676  -31.8482   26.5448 H   0  0  0  0  0  0
  -28.2593  -38.0085   24.7528 H   0  0  0  0  0  0
  -28.1069  -36.2620   24.6283 H   0  0  0  0  0  0
  -27.2297  -37.1424   25.8872 H   0  0  0  0  0  0
  -20.9437  -29.8743   21.6806 H   0  0  0  0  0  0
  -26.0146  -38.2815   24.1423 H   0  0  0  0  0  0
  -26.9631  -21.0805   19.6881 H   0  0  0  0  0  0
  -27.7043  -18.7468   19.5554 H   0  0  0  0  0  0
  -31.4590  -19.8785   21.2230 H   0  0  0  0  0  0
  -26.4072  -24.0287   23.3537 H   0  0  0  0  0  0
  -26.7460  -25.3594   22.1840 H   0  0  0  0  0  0
  -31.3958  -23.6260   19.6096 H   0  0  0  0  0  0
  -31.8414  -24.5359   21.1465 H   0  0  0  0  0  0
  -33.2684  -22.6125   21.8570 H   0  0  0  0  0  0
  -32.8151  -21.7128   20.3177 H   0  0  0  0  0  0
  -25.9428  -23.7343   20.5127 H   0  0  0  0  0  0
  -26.3629  -22.3759   21.6088 H   0  0  0  0  0  0
  -28.5622  -23.0162   22.9718 H   0  0  0  0  0  0
  -29.0894  -24.6666   22.4841 H   0  0  0  0  0  0
  -30.8715  -22.6638   22.5565 H   0  0  0  0  0  0
  -31.2825  -17.5806   20.8306 H   0  0  0  0  0  0
  -30.6888  -17.4992   19.2233 H   0  0  0  0  0  0
  -27.7445  -24.6421   18.9408 H   0  0  0  0  0  0
  -29.3688  -24.6821   19.4233 H   0  0  0  0  0  0
  -28.8447  -15.9845   20.7203 H   0  0  0  0  0  0
  1 25  1  0  0  0
  1 30  2  0  0  0
  1 86  1  0  0  0
  2  3  1  0  0  0
  2 25  1  0  0  0
  2 87  1  0  0  0
  2 88  1  0  0  0
  3  4  1  0  0  0
  3 89  1  0  0  0
  3 90  1  0  0  0
  4  5  1  0  0  0
  4 91  1  0  0  0
  4 92  1  0  0  0
  5  6  1  0  0  0
  5 26  1  0  0  0
  5 93  1  0  0  0
  6 25  1  0  0  0
  6 94  1  0  0  0
  6 95  1  0  0  0
  7  8  2  0  0  0
  7 26  1  0  0  0
  7 29  1  0  0  0
  8  9  1  0  0  0
  8 22  1  0  0  0
  9 10  1  0  0  0
  9 27  2  0  0  0
 10 11  2  0  0  0
 10 15  1  0  0  0
 11 12  1  0  0  0
 11 96  1  0  0  0
 12 13  2  0  0  0
 12 97  1  0  0  0
 13 14  1  0  0  0
 13 31  1  0  0  0
 14 15  2  0  0  0
 14 98  1  0  0  0
 15 99  1  0  0  0
 16 17  2  0  0  0
 16 21  1  0  0  0
 16 31  1  0  0  0
 17 18  1  0  0  0
 17100  1  0  0  0
 18 19  2  0  0  0
 18101  1  0  0  0
 19 20  1  0  0  0
 19 24  1  0  0  0
 20 21  2  0  0  0
 20102  1  0  0  0
 21 23  1  0  0  0
 22 28  1  0  0  0
 22 32  2  0  0  0
 26 27  1  0  0  0
 28103  1  0  0  0
 28104  1  0  0  0
 29105  1  0  0  0
 29106  1  0  0  0
 33 34  1  0  0  0
 33 66  1  0  0  0
 33 70  2  0  0  0
 34 36  1  0  0  0
 34 59  1  0  0  0
 34107  1  0  0  0
 35 44  2  0  0  0
 35 45  1  0  0  0
 35 68  1  0  0  0
 36 56  1  0  0  0
 36108  1  0  0  0
 37 39  1  0  0  0
 37 47  1  0  0  0
 37 66  1  0  0  0
 37109  1  0  0  0
 38 43  2  0  0  0
 38 46  1  0  0  0
 38 47  1  0  0  0
 39 64  1  0  0  0
 39 67  2  0  0  0
 40 52  1  0  0  0
 40 53  2  0  0  0
 40 58  1  0  0  0
 41110  1  0  0  0
 41111  1  0  0  0
 41112  1  0  0  0
 41 48  1  0  0  0
 42 43  1  0  0  0
 42 66  1  0  0  0
 42113  1  0  0  0
 42114  1  0  0  0
 43 44  1  0  0  0
 44115  1  0  0  0
 45 46  2  0  0  0
 45116  1  0  0  0
 46117  1  0  0  0
 47118  1  0  0  0
 47119  1  0  0  0
 48 56  1  0  0  0
 48 65  1  0  0  0
 48120  1  0  0  0
 49 50  1  0  0  0
 49 53  1  0  0  0
 49 64  1  0  0  0
 49121  1  0  0  0
 50 51  1  0  0  0
 50122  1  0  0  0
 50123  1  0  0  0
 51 52  1  0  0  0
 51124  1  0  0  0
 51125  1  0  0  0
 52126  1  0  0  0
 52127  1  0  0  0
 53 54  1  0  0  0
 54 55  2  0  0  0
 54128  1  0  0  0
 55 57  1  0  0  0
 55129  1  0  0  0
 56 69  2  0  0  0
 57 58  2  0  0  0
 57130  1  0  0  0
 58131  1  0  0  0
 59 60  1  0  0  0
 59 61  1  0  0  0
 59 62  1  0  0  0
 60132  1  0  0  0
 60133  1  0  0  0
 60134  1  0  0  0
 61135  1  0  0  0
 61136  1  0  0  0
 61137  1  0  0  0
 62138  1  0  0  0
 62139  1  0  0  0
 62140  1  0  0  0
 63 65  1  0  0  0
 63141  1  0  0  0
 63142  1  0  0  0
 63143  1  0  0  0
 64144  1  0  0  0
 65145  1  0  0  0
 68 85  1  0  0  0
 71 72  2  0  0  0
 71 74  1  0  0  0
 71146  1  0  0  0
 72 76  1  0  0  0
 72147  1  0  0  0
 73 75  1  0  0  0
 73 76  2  0  0  0
 73148  1  0  0  0
 74 75  2  0  0  0
 74 83  1  0  0  0
 75 82  1  0  0  0
 76 84  1  0  0  0
 77 80  1  0  0  0
 77 81  1  0  0  0
 77149  1  0  0  0
 77150  1  0  0  0
 78 79  1  0  0  0
 78 82  1  0  0  0
 78151  1  0  0  0
 78152  1  0  0  0
 79 82  1  0  0  0
 79153  1  0  0  0
 79154  1  0  0  0
 80 83  1  0  0  0
 80155  1  0  0  0
 80156  1  0  0  0
 81 83  1  0  0  0
 81157  1  0  0  0
 81158  1  0  0  0
 82159  1  0  0  0
 83 85  1  0  0  0
 84 86  1  0  0  0
 84160  1  0  0  0
 84161  1  0  0  0
 85162  1  0  0  0
 85163  1  0  0  0
 86164  1  0  0  0
M  ISO  4   1 100  68 101  85 101  86 100
M  END
> <chiral flag>
0

> <version>
0

> <s_m_source_file>
/data/baiqing/PycharmProjects/Reinvent-master-3.2/result/LINK_invent/BTK/process_docking_weight1_custom_sum_contain_oxygen_bond_distance_aromatic_linkinvent_7_9_3/rearranged_h_0151.sdf

> <i_m_source_file_index>
88

> <r_mmod_Potential_Energy-OPLS-2005>
447.441009521484

> <r_mmod_Stretch_Energy-OPLS-2005>
208.137939453125

> <r_mmod_Bend_Energy-OPLS-2005>
287.711334228516

> <r_mmod_Torsional_Energy-OPLS-2005>
270.391662597656

> <r_mmod_Improper_Torsional_Energy-OPLS-2005>
7.84589290618896

> <r_mmod_Van_der_Waal_Energy-OPLS-2005>
128.452987670898

> <r_mmod_Electrostatic_Energy-OPLS-2005>
-401.962097167969

> <r_mmod_Solvation_Energy-OPLS-2005>
-202.340881347656

> <b_mmod_Minimization_Converged-OPLS-2005>
0

> <r_mmod_RMS_Derivative-OPLS-2005>
0.98627758026123

$$$$
88
                    3D
 Structure written by MMmdl.
162171  0  0  1  0            999 V2000
  -30.6644  -14.5427   20.5298 C   0  0  0  0  0  0
  -30.4317  -12.3391   19.4381 C   0  0  0  0  0  0
  -29.5031  -12.5005   18.2153 C   0  0  0  0  0  0
  -28.0246  -12.3501   18.6270 C   0  0  0  0  0  0
  -27.6570  -13.2091   19.8661 C   0  0  2  0  0  0
  -28.6994  -13.0306   20.9939 C   0  0  0  0  0  0
  -25.2571  -13.8161   20.5664 C   0  0  0  0  0  0
  -24.1834  -13.0438   20.9187 C   0  0  0  0  0  0
  -24.6388  -11.6905   20.8738 C   0  0  0  0  0  0
  -23.9054  -10.4292   21.0406 C   0  0  0  0  0  0
  -24.3609   -9.4208   21.9178 C   0  0  0  0  0  0
  -23.6286   -8.2240   22.0748 C   0  0  0  0  0  0
  -22.4266   -8.0280   21.3547 C   0  0  0  0  0  0
  -21.9900   -9.0255   20.4653 C   0  0  0  0  0  0
  -22.7223  -10.2132   20.3057 C   0  0  0  0  0  0
  -21.6853   -6.0730   22.5279 C   0  0  0  0  0  0
  -21.4016   -6.5633   23.8210 C   0  0  0  0  0  0
  -21.3659   -5.6787   24.9171 C   0  0  0  0  0  0
  -21.6043   -4.3047   24.7224 C   0  0  0  0  0  0
  -21.8819   -3.8142   23.4344 C   0  0  0  0  0  0
  -21.9196   -4.6963   22.3401 C   0  0  0  0  0  0
  -22.7855  -13.5242   21.1846 C   0  0  0  0  0  0
  -22.1661   -4.2149   21.0979 F   0  0  0  0  0  0
  -21.5628   -3.4532   25.7734 F   0  0  0  0  0  0
  -30.0240  -13.3436   20.4351 N   0  0  0  0  0  0
  -26.2998  -12.9332   20.3312 N   0  0  0  0  0  0
  -25.9311  -11.6493   20.5746 N   0  0  0  0  0  0
  -22.0490  -12.8248   22.0411 N   0  0  0  0  0  0
  -25.4283  -15.1878   20.4047 N   0  0  0  0  0  0
  -31.8250  -14.7068   20.1425 O   0  0  0  0  0  0
  -21.6635   -6.8875   21.4240 O   0  0  0  0  0  0
  -22.3541  -14.5543   20.6683 O   0  0  0  0  0  0
  -24.6178  -31.8660   23.2073 C   0  0  0  0  0  0
  -25.9054  -32.4808   23.8387 C   0  0  1  0  0  0
  -27.2302  -27.3947   20.1144 C   0  0  0  0  0  0
  -25.5895  -33.8607   24.2318 N   0  0  0  0  0  0
  -23.4077  -30.4886   21.5490 C   0  0  2  0  0  0
  -24.8542  -28.9453   20.1219 C   0  0  0  0  0  0
  -22.7428  -29.4652   22.4985 C   0  0  0  0  0  0
  -18.0283  -28.1391   22.8492 C   0  0  0  0  0  0
  -24.1485  -36.7308   23.2641 C   0  0  0  0  0  0
  -25.9399  -30.8205   21.3653 C   0  0  0  0  0  0
  -26.0170  -29.4494   20.7186 C   0  0  0  0  0  0
  -27.2100  -28.6833   20.7074 C   0  0  0  0  0  0
  -26.0497  -26.9144   19.5106 C   0  0  0  0  0  0
  -24.8669  -27.6785   19.5145 C   0  0  0  0  0  0
  -23.6190  -29.8188   20.1657 C   0  0  0  0  0  0
  -25.4102  -36.3096   24.0341 C   0  0  1  0  0  0
  -20.5875  -28.3676   23.1324 C   0  0  2  0  0  0
  -20.6772  -26.9406   22.5435 C   0  0  0  0  0  0
  -19.5755  -26.6394   21.5226 C   0  0  0  0  0  0
  -18.1928  -26.7938   22.1619 C   0  0  0  0  0  0
  -19.1530  -28.8850   23.2904 C   0  0  0  0  0  0
  -18.9451  -30.1457   23.8913 C   0  0  0  0  0  0
  -17.6453  -30.6591   24.0576 C   0  0  0  0  0  0
  -25.9035  -34.9465   23.5127 C   0  0  0  0  0  0
  -16.5345  -29.9093   23.6327 C   0  0  0  0  0  0
  -16.7271  -28.6515   23.0342 C   0  0  0  0  0  0
  -26.4470  -31.6598   25.0728 C   0  0  0  0  0  0
  -25.3732  -31.3742   26.1485 C   0  0  0  0  0  0
  -27.0298  -30.3031   24.6122 C   0  0  0  0  0  0
  -27.6055  -32.4324   25.7469 C   0  0  0  0  0  0
  -27.5588  -37.1792   24.8451 C   0  0  0  0  0  0
  -21.4154  -29.3033   22.3717 N   0  0  0  0  0  0
  -26.4281  -37.3787   23.9423 N   0  0  0  0  0  0
  -24.6734  -31.0742   22.0981 N   0  0  0  0  0  0
  -23.4186  -28.8200   23.3043 O   0  0  0  0  0  0
  -28.3906  -26.6418   20.0651 O   0  0  0  0  0  0
  -26.5606  -34.8918   22.4694 O   0  0  0  0  0  0
  -23.5358  -32.1428   23.7442 O   0  0  0  0  0  0
  -29.0633  -20.6508   20.3193 C   0  0  0  0  0  0
  -29.0311  -22.1811   22.2065 C   0  0  0  0  0  0
  -29.1810  -19.5235   21.1824 C   0  0  0  0  0  0
  -29.2386  -19.7643   22.5799 C   0  0  0  0  0  0
  -28.9680  -21.9813   20.8135 C   0  0  0  0  0  0
  -29.1821  -21.0861   23.0957 C   0  0  0  0  0  0
  -29.9880  -17.7077   19.4422 C   0  0  0  0  0  0
  -29.1390  -18.0940   20.6262 C   0  0  1  0  0  0
  -30.2339  -17.0083   20.7640 C   0  0  1  0  0  0
  -29.3526  -18.5874   23.5416 C   0  0  0  0  0  0
  -29.2799  -22.5541   25.0085 C   0  0  0  0  0  0
  -28.4377  -25.4228   20.8512 C   0  0  0  0  0  0
  -27.9060  -24.1028   20.1993 C   0  0  0  0  0  0
  -29.8806  -15.6000   20.8516 N   0  0  0  0  0  0
  -29.2732  -21.2395   24.4647 O   0  0  0  0  0  0
  -28.8648  -23.0497   19.9307 O   0  0  0  0  0  0
  -31.4746  -12.4512   19.1371 H   0  0  0  0  0  0
  -30.3470  -11.3356   19.8577 H   0  0  0  0  0  0
  -29.7552  -11.7631   17.4518 H   0  0  0  0  0  0
  -29.6619  -13.4786   17.7580 H   0  0  0  0  0  0
  -27.8480  -11.2964   18.8451 H   0  0  0  0  0  0
  -27.3733  -12.5985   17.7882 H   0  0  0  0  0  0
  -27.6879  -14.2486   19.5398 H   0  0  0  0  0  0
  -28.6881  -12.0055   21.3672 H   0  0  0  0  0  0
  -28.4592  -13.6617   21.8509 H   0  0  0  0  0  0
  -25.2754   -9.5683   22.4747 H   0  0  0  0  0  0
  -24.0004   -7.4630   22.7457 H   0  0  0  0  0  0
  -21.0828   -8.8774   19.8961 H   0  0  0  0  0  0
  -22.3679  -10.9674   19.6168 H   0  0  0  0  0  0
  -21.2007   -7.6139   23.9712 H   0  0  0  0  0  0
  -21.1478   -6.0513   25.9073 H   0  0  0  0  0  0
  -22.0601   -2.7606   23.2839 H   0  0  0  0  0  0
  -22.4091  -11.9922   22.4834 H   0  0  0  0  0  0
  -21.1109  -13.1295   22.2605 H   0  0  0  0  0  0
  -24.6554  -15.8381   20.4968 H   0  0  0  0  0  0
  -26.2667  -15.6228   20.0419 H   0  0  0  0  0  0
  -26.7124  -32.5513   23.1150 H   0  0  0  0  0  0
  -25.0038  -33.9766   25.0455 H   0  0  0  0  0  0
  -22.6976  -31.3059   21.4081 H   0  0  0  0  0  0
  -23.3745  -35.9639   23.3278 H   0  0  0  0  0  0
  -24.3591  -36.8950   22.2061 H   0  0  0  0  0  0
  -23.7232  -37.6502   23.6672 H   0  0  0  0  0  0
  -26.0574  -31.5818   20.5927 H   0  0  0  0  0  0
  -26.8258  -30.8760   21.9857 H   0  0  0  0  0  0
  -28.1105  -29.0727   21.1611 H   0  0  0  0  0  0
  -26.0341  -25.9545   19.0181 H   0  0  0  0  0  0
  -23.9736  -27.2870   19.0475 H   0  0  0  0  0  0
  -23.7323  -30.5922   19.4051 H   0  0  0  0  0  0
  -22.7409  -29.2422   19.8690 H   0  0  0  0  0  0
  -25.1273  -36.1950   25.0833 H   0  0  0  0  0  0
  -20.9978  -28.3245   24.1442 H   0  0  0  0  0  0
  -20.5682  -26.2277   23.3624 H   0  0  0  0  0  0
  -21.6643  -26.7453   22.1230 H   0  0  0  0  0  0
  -19.6915  -25.6307   21.1249 H   0  0  0  0  0  0
  -19.6706  -27.3211   20.6760 H   0  0  0  0  0  0
  -17.4213  -26.6715   21.4001 H   0  0  0  0  0  0
  -18.0299  -26.0078   22.9008 H   0  0  0  0  0  0
  -19.7927  -30.7276   24.2281 H   0  0  0  0  0  0
  -17.5006  -31.6265   24.5191 H   0  0  0  0  0  0
  -15.5345  -30.2999   23.7641 H   0  0  0  0  0  0
  -15.8675  -28.0843   22.7035 H   0  0  0  0  0  0
  -24.5871  -30.7120   25.7838 H   0  0  0  0  0  0
  -24.8960  -32.2918   26.4939 H   0  0  0  0  0  0
  -25.8075  -30.8907   27.0243 H   0  0  0  0  0  0
  -26.2849  -29.6793   24.1168 H   0  0  0  0  0  0
  -27.4050  -29.7271   25.4591 H   0  0  0  0  0  0
  -27.8691  -30.4345   23.9290 H   0  0  0  0  0  0
  -27.2680  -33.3609   26.2085 H   0  0  0  0  0  0
  -28.3822  -32.6917   25.0262 H   0  0  0  0  0  0
  -28.0772  -31.8435   26.5343 H   0  0  0  0  0  0
  -28.2580  -38.0115   24.7532 H   0  0  0  0  0  0
  -28.1107  -36.2650   24.6207 H   0  0  0  0  0  0
  -27.2332  -37.1373   25.8861 H   0  0  0  0  0  0
  -20.9317  -29.8729   21.6915 H   0  0  0  0  0  0
  -26.0163  -38.2856   24.1448 H   0  0  0  0  0  0
  -29.0083  -20.4892   19.2518 H   0  0  0  0  0  0
  -28.9837  -23.1928   22.5771 H   0  0  0  0  0  0
  -30.7558  -18.4041   19.1109 H   0  0  0  0  0  0
  -29.5083  -17.1370   18.6493 H   0  0  0  0  0  0
  -28.1055  -17.7508   20.6155 H   0  0  0  0  0  0
  -31.1385  -17.3032   21.2940 H   0  0  0  0  0  0
  -28.7002  -17.7678   23.2414 H   0  0  0  0  0  0
  -29.0715  -18.8496   24.5611 H   0  0  0  0  0  0
  -30.3786  -18.2210   23.5637 H   0  0  0  0  0  0
  -29.4069  -22.4966   26.0893 H   0  0  0  0  0  0
  -28.3383  -23.0706   24.8168 H   0  0  0  0  0  0
  -30.1064  -23.1476   24.6148 H   0  0  0  0  0  0
  -29.4783  -25.2713   21.1386 H   0  0  0  0  0  0
  -27.9081  -25.5921   21.7910 H   0  0  0  0  0  0
  -27.4626  -24.3405   19.2342 H   0  0  0  0  0  0
  -27.0833  -23.7087   20.7985 H   0  0  0  0  0  0
  -28.9388  -15.3808   21.1376 H   0  0  0  0  0  0
  1 25  1  0  0  0
  1 30  2  0  0  0
  1 84  1  0  0  0
  2  3  1  0  0  0
  2 25  1  0  0  0
  2 87  1  0  0  0
  2 88  1  0  0  0
  3  4  1  0  0  0
  3 89  1  0  0  0
  3 90  1  0  0  0
  4  5  1  0  0  0
  4 91  1  0  0  0
  4 92  1  0  0  0
  5  6  1  0  0  0
  5 26  1  0  0  0
  5 93  1  0  0  0
  6 25  1  0  0  0
  6 94  1  0  0  0
  6 95  1  0  0  0
  7  8  2  0  0  0
  7 26  1  0  0  0
  7 29  1  0  0  0
  8  9  1  0  0  0
  8 22  1  0  0  0
  9 10  1  0  0  0
  9 27  2  0  0  0
 10 11  2  0  0  0
 10 15  1  0  0  0
 11 12  1  0  0  0
 11 96  1  0  0  0
 12 13  2  0  0  0
 12 97  1  0  0  0
 13 14  1  0  0  0
 13 31  1  0  0  0
 14 15  2  0  0  0
 14 98  1  0  0  0
 15 99  1  0  0  0
 16 17  2  0  0  0
 16 21  1  0  0  0
 16 31  1  0  0  0
 17 18  1  0  0  0
 17100  1  0  0  0
 18 19  2  0  0  0
 18101  1  0  0  0
 19 20  1  0  0  0
 19 24  1  0  0  0
 20 21  2  0  0  0
 20102  1  0  0  0
 21 23  1  0  0  0
 22 28  1  0  0  0
 22 32  2  0  0  0
 26 27  1  0  0  0
 28103  1  0  0  0
 28104  1  0  0  0
 29105  1  0  0  0
 29106  1  0  0  0
 33 34  1  0  0  0
 33 66  1  0  0  0
 33 70  2  0  0  0
 34 36  1  0  0  0
 34 59  1  0  0  0
 34107  1  0  0  0
 35 44  2  0  0  0
 35 45  1  0  0  0
 35 68  1  0  0  0
 36 56  1  0  0  0
 36108  1  0  0  0
 37 39  1  0  0  0
 37 47  1  0  0  0
 37 66  1  0  0  0
 37109  1  0  0  0
 38 43  2  0  0  0
 38 46  1  0  0  0
 38 47  1  0  0  0
 39 64  1  0  0  0
 39 67  2  0  0  0
 40 52  1  0  0  0
 40 53  2  0  0  0
 40 58  1  0  0  0
 41110  1  0  0  0
 41111  1  0  0  0
 41112  1  0  0  0
 41 48  1  0  0  0
 42 43  1  0  0  0
 42 66  1  0  0  0
 42113  1  0  0  0
 42114  1  0  0  0
 43 44  1  0  0  0
 44115  1  0  0  0
 45 46  2  0  0  0
 45116  1  0  0  0
 46117  1  0  0  0
 47118  1  0  0  0
 47119  1  0  0  0
 48 56  1  0  0  0
 48 65  1  0  0  0
 48120  1  0  0  0
 49 50  1  0  0  0
 49 53  1  0  0  0
 49 64  1  0  0  0
 49121  1  0  0  0
 50 51  1  0  0  0
 50122  1  0  0  0
 50123  1  0  0  0
 51 52  1  0  0  0
 51124  1  0  0  0
 51125  1  0  0  0
 52126  1  0  0  0
 52127  1  0  0  0
 53 54  1  0  0  0
 54 55  2  0  0  0
 54128  1  0  0  0
 55 57  1  0  0  0
 55129  1  0  0  0
 56 69  2  0  0  0
 57 58  2  0  0  0
 57130  1  0  0  0
 58131  1  0  0  0
 59 60  1  0  0  0
 59 61  1  0  0  0
 59 62  1  0  0  0
 60132  1  0  0  0
 60133  1  0  0  0
 60134  1  0  0  0
 61135  1  0  0  0
 61136  1  0  0  0
 61137  1  0  0  0
 62138  1  0  0  0
 62139  1  0  0  0
 62140  1  0  0  0
 63 65  1  0  0  0
 63141  1  0  0  0
 63142  1  0  0  0
 63143  1  0  0  0
 64144  1  0  0  0
 65145  1  0  0  0
 68 82  1  0  0  0
 71 73  2  0  0  0
 71 75  1  0  0  0
 71146  1  0  0  0
 72 75  2  0  0  0
 72 76  1  0  0  0
 72147  1  0  0  0
 73 74  1  0  0  0
 73 78  1  0  0  0
 74 76  2  0  0  0
 74 80  1  0  0  0
 75 86  1  0  0  0
 76 85  1  0  0  0
 77 78  1  0  0  0
 77 79  1  0  0  0
 77148  1  0  0  0
 77149  1  0  0  0
 78 79  1  0  0  0
 78150  1  0  0  0
 79 84  1  0  0  0
 79151  1  0  0  0
 80152  1  0  0  0
 80153  1  0  0  0
 80154  1  0  0  0
 81 85  1  0  0  0
 81155  1  0  0  0
 81156  1  0  0  0
 81157  1  0  0  0
 82 83  1  0  0  0
 82158  1  0  0  0
 82159  1  0  0  0
 83 86  1  0  0  0
 83160  1  0  0  0
 83161  1  0  0  0
 84162  1  0  0  0
M  ISO  4   1 100  68 101  82 101  84 100
M  END
> <chiral flag>
0

> <version>
0

> <s_m_source_file>
/data/baiqing/PycharmProjects/Reinvent-master-3.2/result/LINK_invent/BTK/process_docking_weight1_custom_sum_contain_oxygen_bond_distance_aromatic_linkinvent_7_9_3/rearranged_h_0151.sdf

> <i_m_source_file_index>
89

> <r_mmod_Potential_Energy-OPLS-2005>
37.1827697753906

> <r_mmod_Stretch_Energy-OPLS-2005>
50.0341377258301

> <r_mmod_Bend_Energy-OPLS-2005>
116.12085723877

> <r_mmod_Torsional_Energy-OPLS-2005>
302.810394287109

> <r_mmod_Improper_Torsional_Energy-OPLS-2005>
5.8354868888855

> <r_mmod_Van_der_Waal_Energy-OPLS-2005>
147.488189697266

> <r_mmod_Electrostatic_Energy-OPLS-2005>
-386.585266113281

> <r_mmod_Solvation_Energy-OPLS-2005>
-220.045837402344

> <b_mmod_Minimization_Converged-OPLS-2005>
0

> <r_mmod_RMS_Derivative-OPLS-2005>
1.10265374183655

$$$$
89
                    3D
 Structure written by MMmdl.
173183  0  0  1  0            999 V2000
  -30.6918  -14.7587   20.4570 C   0  0  0  0  0  0
  -30.4124  -12.4761   19.4734 C   0  0  0  0  0  0
  -29.4968  -12.4829   18.2338 C   0  0  0  0  0  0
  -28.0328  -12.2778   18.6582 C   0  0  0  0  0  0
  -27.6254  -13.2120   19.8239 C   0  0  2  0  0  0
  -28.6736  -13.2509   20.9610 C   0  0  0  0  0  0
  -25.2505  -13.8133   20.5711 C   0  0  0  0  0  0
  -24.1774  -13.0417   20.9218 C   0  0  0  0  0  0
  -24.6341  -11.6885   20.8770 C   0  0  0  0  0  0
  -23.9017  -10.4278   21.0437 C   0  0  0  0  0  0
  -24.3586   -9.4197   21.9207 C   0  0  0  0  0  0
  -23.6268   -8.2230   22.0763 C   0  0  0  0  0  0
  -22.4254   -8.0263   21.3540 C   0  0  0  0  0  0
  -21.9884   -9.0236   20.4644 C   0  0  0  0  0  0
  -22.7202  -10.2125   20.3067 C   0  0  0  0  0  0
  -21.6848   -6.0719   22.5277 C   0  0  0  0  0  0
  -21.4001   -6.5630   23.8205 C   0  0  0  0  0  0
  -21.3657   -5.6786   24.9170 C   0  0  0  0  0  0
  -21.6049   -4.3047   24.7228 C   0  0  0  0  0  0
  -21.8822   -3.8136   23.4351 C   0  0  0  0  0  0
  -21.9196   -4.6949   22.3403 C   0  0  0  0  0  0
  -22.7810  -13.5223   21.1874 C   0  0  0  0  0  0
  -22.1667   -4.2132   21.0980 F   0  0  0  0  0  0
  -21.5633   -3.4533   25.7745 F   0  0  0  0  0  0
  -29.9726  -13.5820   20.3636 N   0  0  0  0  0  0
  -26.2865  -12.9287   20.3212 N   0  0  0  0  0  0
  -25.9252  -11.6459   20.5746 N   0  0  0  0  0  0
  -22.0442  -12.8218   22.0426 N   0  0  0  0  0  0
  -25.4248  -15.1853   20.4175 N   0  0  0  0  0  0
  -31.8950  -14.7171   20.1826 O   0  0  0  0  0  0
  -21.6630   -6.8852   21.4234 O   0  0  0  0  0  0
  -22.3518  -14.5532   20.6719 O   0  0  0  0  0  0
  -24.6341  -31.8543   23.1971 C   0  0  0  0  0  0
  -25.9160  -32.4756   23.8318 C   0  0  1  0  0  0
  -27.2218  -27.2696   20.1297 C   0  0  0  0  0  0
  -25.5971  -33.8558   24.2266 N   0  0  0  0  0  0
  -23.4307  -30.4762   21.5409 C   0  0  2  0  0  0
  -24.8805  -28.9252   20.1072 C   0  0  0  0  0  0
  -22.7508  -29.4613   22.4915 C   0  0  0  0  0  0
  -18.0298  -28.1402   22.8487 C   0  0  0  0  0  0
  -24.1484  -36.7282   23.2634 C   0  0  0  0  0  0
  -25.9746  -30.7710   21.3731 C   0  0  0  0  0  0
  -26.0519  -29.3926   20.7196 C   0  0  0  0  0  0
  -27.2293  -28.5774   20.7210 C   0  0  0  0  0  0
  -26.0364  -26.8729   19.4766 C   0  0  0  0  0  0
  -24.8783  -27.6735   19.4730 C   0  0  0  0  0  0
  -23.6493  -29.8097   20.1563 C   0  0  0  0  0  0
  -25.4107  -36.3072   24.0321 C   0  0  1  0  0  0
  -20.5905  -28.3715   23.1283 C   0  0  2  0  0  0
  -20.6788  -26.9430   22.5413 C   0  0  0  0  0  0
  -19.5761  -26.6398   21.5222 C   0  0  0  0  0  0
  -18.1939  -26.7944   22.1632 C   0  0  0  0  0  0
  -19.1546  -28.8874   23.2872 C   0  0  0  0  0  0
  -18.9471  -30.1479   23.8881 C   0  0  0  0  0  0
  -17.6460  -30.6588   24.0579 C   0  0  0  0  0  0
  -25.9049  -34.9448   23.5079 C   0  0  0  0  0  0
  -16.5355  -29.9092   23.6342 C   0  0  0  0  0  0
  -16.7281  -28.6518   23.0349 C   0  0  0  0  0  0
  -26.4493  -31.6562   25.0707 C   0  0  0  0  0  0
  -25.3695  -31.3721   26.1416 C   0  0  0  0  0  0
  -27.0331  -30.2988   24.6161 C   0  0  0  0  0  0
  -27.6054  -32.4289   25.7475 C   0  0  0  0  0  0
  -27.5571  -37.1806   24.8473 C   0  0  0  0  0  0
  -21.4214  -29.3063   22.3664 N   0  0  0  0  0  0
  -26.4280  -37.3788   23.9413 N   0  0  0  0  0  0
  -24.6989  -31.0513   22.0946 N   0  0  0  0  0  0
  -23.4192  -28.8158   23.3023 O   0  0  0  0  0  0
  -28.2740  -26.3294   20.1699 O   0  0  0  0  0  0
  -26.5609  -34.8923   22.4651 O   0  0  0  0  0  0
  -23.5493  -32.1364   23.7271 O   0  0  0  0  0  0
  -28.9181  -21.3049   21.6471 C   0  0  0  0  0  0
  -28.9375  -23.0602   19.4888 C   0  0  0  0  0  0
  -29.3104  -20.7328   20.4087 C   0  0  0  0  0  0
  -29.3159  -21.6719   19.3076 C   0  0  0  0  0  0
  -28.5512  -22.6783   21.8150 C   0  0  0  0  0  0
  -28.5502  -23.6211   20.7365 C   0  0  0  0  0  0
  -30.4807  -18.5474   21.5186 C   0  0  0  0  0  0
  -28.5929  -18.1259   20.1235 C   0  0  0  0  0  0
  -30.2981  -22.2120   16.9118 C   0  0  0  0  0  0
  -31.0299  -17.0834   21.2678 C   0  0  0  0  0  0
  -29.0532  -16.6214   19.8826 C   0  0  0  0  0  0
  -30.1991  -21.4675   15.5731 C   0  0  0  0  0  0
  -28.5379  -20.6220   17.0750 C   0  0  0  0  0  0
  -29.7229  -19.1742   20.3170 C   0  0  0  0  0  0
  -29.6983  -21.1973   17.8935 C   0  0  2  0  0  0
  -28.1235  -23.1139   23.2081 C   0  0  0  0  0  0
  -27.9639  -25.0998   20.9634 C   0  0  0  0  0  0
  -30.1134  -16.0103   20.7470 N   0  0  0  0  0  0
  -29.0295  -20.5705   15.6844 N   0  3  0  0  0  0
  -31.4524  -12.5726   19.1568 H   0  0  0  0  0  0
  -30.3520  -11.5199   19.9950 H   0  0  0  0  0  0
  -29.7963  -11.6956   17.5404 H   0  0  0  0  0  0
  -29.6003  -13.4262   17.6954 H   0  0  0  0  0  0
  -27.9193  -11.2355   18.9612 H   0  0  0  0  0  0
  -27.3668  -12.4220   17.8059 H   0  0  0  0  0  0
  -27.5725  -14.1849   19.3508 H   0  0  0  0  0  0
  -28.7268  -12.2924   21.4796 H   0  0  0  0  0  0
  -28.3951  -13.9964   21.7080 H   0  0  0  0  0  0
  -25.2736   -9.5686   22.4779 H   0  0  0  0  0  0
  -23.9981   -7.4626   22.7482 H   0  0  0  0  0  0
  -21.0814   -8.8738   19.8948 H   0  0  0  0  0  0
  -22.3647  -10.9662   19.6173 H   0  0  0  0  0  0
  -21.1977   -7.6138   23.9695 H   0  0  0  0  0  0
  -21.1476   -6.0521   25.9067 H   0  0  0  0  0  0
  -22.0605   -2.7599   23.2858 H   0  0  0  0  0  0
  -22.4030  -11.9857   22.4788 H   0  0  0  0  0  0
  -21.1072  -13.1263   22.2630 H   0  0  0  0  0  0
  -24.6662  -15.8468   20.5425 H   0  0  0  0  0  0
  -26.2882  -15.6237   20.1298 H   0  0  0  0  0  0
  -26.7228  -32.5388   23.1060 H   0  0  0  0  0  0
  -25.0174  -33.9698   25.0452 H   0  0  0  0  0  0
  -22.7282  -31.2983   21.3920 H   0  0  0  0  0  0
  -23.3748  -35.9616   23.3290 H   0  0  0  0  0  0
  -24.3570  -36.8903   22.2050 H   0  0  0  0  0  0
  -23.7233  -37.6484   23.6652 H   0  0  0  0  0  0
  -26.1063  -31.5290   20.5985 H   0  0  0  0  0  0
  -26.8567  -30.8253   22.0001 H   0  0  0  0  0  0
  -28.1256  -28.9300   21.2125 H   0  0  0  0  0  0
  -25.9994  -25.9082   18.9876 H   0  0  0  0  0  0
  -23.9872  -27.3116   18.9796 H   0  0  0  0  0  0
  -23.7679  -30.5848   19.3976 H   0  0  0  0  0  0
  -22.7688  -29.2396   19.8565 H   0  0  0  0  0  0
  -25.1293  -36.1921   25.0815 H   0  0  0  0  0  0
  -20.9987  -28.3287   24.1410 H   0  0  0  0  0  0
  -20.5714  -26.2318   23.3616 H   0  0  0  0  0  0
  -21.6652  -26.7473   22.1184 H   0  0  0  0  0  0
  -19.6914  -25.6314   21.1258 H   0  0  0  0  0  0
  -19.6702  -27.3205   20.6747 H   0  0  0  0  0  0
  -17.4218  -26.6723   21.4016 H   0  0  0  0  0  0
  -18.0302  -26.0079   22.9018 H   0  0  0  0  0  0
  -19.7937  -30.7320   24.2220 H   0  0  0  0  0  0
  -17.5012  -31.6262   24.5199 H   0  0  0  0  0  0
  -15.5356  -30.2993   23.7667 H   0  0  0  0  0  0
  -15.8689  -28.0841   22.7059 H   0  0  0  0  0  0
  -24.5954  -30.6972   25.7750 H   0  0  0  0  0  0
  -24.8778  -32.2876   26.4735 H   0  0  0  0  0  0
  -25.8009  -30.9007   27.0259 H   0  0  0  0  0  0
  -26.2900  -29.6768   24.1161 H   0  0  0  0  0  0
  -27.4011  -29.7232   25.4666 H   0  0  0  0  0  0
  -27.8775  -30.4274   23.9381 H   0  0  0  0  0  0
  -27.2709  -33.3649   26.1952 H   0  0  0  0  0  0
  -28.3904  -32.6742   25.0316 H   0  0  0  0  0  0
  -28.0655  -31.8461   26.5461 H   0  0  0  0  0  0
  -28.2608  -38.0091   24.7515 H   0  0  0  0  0  0
  -28.1045  -36.2626   24.6291 H   0  0  0  0  0  0
  -27.2282  -37.1440   25.8877 H   0  0  0  0  0  0
  -20.9408  -29.8789   21.6864 H   0  0  0  0  0  0
  -26.0150  -38.2862   24.1421 H   0  0  0  0  0  0
  -28.8876  -20.6596   22.5132 H   0  0  0  0  0  0
  -28.9090  -23.7333   18.6474 H   0  0  0  0  0  0
  -31.3259  -19.1880   21.7755 H   0  0  0  0  0  0
  -29.8391  -18.5397   22.4010 H   0  0  0  0  0  0
  -27.9404  -18.1514   20.9977 H   0  0  0  0  0  0
  -27.9552  -18.4263   19.2937 H   0  0  0  0  0  0
  -29.6949  -23.1140   16.8257 H   0  0  0  0  0  0
  -31.3164  -22.5086   17.1637 H   0  0  0  0  0  0
  -31.4787  -16.7218   22.1946 H   0  0  0  0  0  0
  -31.8600  -17.1838   20.5655 H   0  0  0  0  0  0
  -29.3779  -16.5165   18.8456 H   0  0  0  0  0  0
  -28.1554  -16.0282   19.9868 H   0  0  0  0  0  0
  -31.0906  -20.8613   15.4077 H   0  0  0  0  0  0
  -30.1047  -22.1482   14.7276 H   0  0  0  0  0  0
  -27.6782  -21.2915   17.1228 H   0  0  0  0  0  0
  -28.2102  -19.6425   17.4180 H   0  0  0  0  0  0
  -30.4060  -19.0598   19.4810 H   0  0  0  0  0  0
  -30.4676  -20.4350   17.9777 H   0  0  0  0  0  0
  -28.0860  -22.2731   23.9018 H   0  0  0  0  0  0
  -27.1321  -23.5690   23.1950 H   0  0  0  0  0  0
  -28.8303  -23.8390   23.6112 H   0  0  0  0  0  0
  -28.2509  -25.3965   21.9717 H   0  0  0  0  0  0
  -26.8848  -24.9553   21.0216 H   0  0  0  0  0  0
  -29.3091  -19.6323   15.4481 H   0  0  0  0  0  0
  -28.3001  -20.8480   15.0476 H   0  0  0  0  0  0
  1 25  1  0  0  0
  1 30  2  0  0  0
  1 88  1  0  0  0
  2  3  1  0  0  0
  2 25  1  0  0  0
  2 90  1  0  0  0
  2 91  1  0  0  0
  3  4  1  0  0  0
  3 92  1  0  0  0
  3 93  1  0  0  0
  4  5  1  0  0  0
  4 94  1  0  0  0
  4 95  1  0  0  0
  5  6  1  0  0  0
  5 26  1  0  0  0
  5 96  1  0  0  0
  6 25  1  0  0  0
  6 97  1  0  0  0
  6 98  1  0  0  0
  7  8  2  0  0  0
  7 26  1  0  0  0
  7 29  1  0  0  0
  8  9  1  0  0  0
  8 22  1  0  0  0
  9 10  1  0  0  0
  9 27  2  0  0  0
 10 11  2  0  0  0
 10 15  1  0  0  0
 11 12  1  0  0  0
 11 99  1  0  0  0
 12 13  2  0  0  0
 12100  1  0  0  0
 13 14  1  0  0  0
 13 31  1  0  0  0
 14 15  2  0  0  0
 14101  1  0  0  0
 15102  1  0  0  0
 16 17  2  0  0  0
 16 21  1  0  0  0
 16 31  1  0  0  0
 17 18  1  0  0  0
 17103  1  0  0  0
 18 19  2  0  0  0
 18104  1  0  0  0
 19 20  1  0  0  0
 19 24  1  0  0  0
 20 21  2  0  0  0
 20105  1  0  0  0
 21 23  1  0  0  0
 22 28  1  0  0  0
 22 32  2  0  0  0
 26 27  1  0  0  0
 28106  1  0  0  0
 28107  1  0  0  0
 29108  1  0  0  0
 29109  1  0  0  0
 33 34  1  0  0  0
 33 66  1  0  0  0
 33 70  2  0  0  0
 34 36  1  0  0  0
 34 59  1  0  0  0
 34110  1  0  0  0
 35 44  2  0  0  0
 35 45  1  0  0  0
 35 68  1  0  0  0
 36 56  1  0  0  0
 36111  1  0  0  0
 37 39  1  0  0  0
 37 47  1  0  0  0
 37 66  1  0  0  0
 37112  1  0  0  0
 38 43  2  0  0  0
 38 46  1  0  0  0
 38 47  1  0  0  0
 39 64  1  0  0  0
 39 67  2  0  0  0
 40 52  1  0  0  0
 40 53  2  0  0  0
 40 58  1  0  0  0
 41113  1  0  0  0
 41114  1  0  0  0
 41115  1  0  0  0
 41 48  1  0  0  0
 42 43  1  0  0  0
 42 66  1  0  0  0
 42116  1  0  0  0
 42117  1  0  0  0
 43 44  1  0  0  0
 44118  1  0  0  0
 45 46  2  0  0  0
 45119  1  0  0  0
 46120  1  0  0  0
 47121  1  0  0  0
 47122  1  0  0  0
 48 56  1  0  0  0
 48 65  1  0  0  0
 48123  1  0  0  0
 49 50  1  0  0  0
 49 53  1  0  0  0
 49 64  1  0  0  0
 49124  1  0  0  0
 50 51  1  0  0  0
 50125  1  0  0  0
 50126  1  0  0  0
 51 52  1  0  0  0
 51127  1  0  0  0
 51128  1  0  0  0
 52129  1  0  0  0
 52130  1  0  0  0
 53 54  1  0  0  0
 54 55  2  0  0  0
 54131  1  0  0  0
 55 57  1  0  0  0
 55132  1  0  0  0
 56 69  2  0  0  0
 57 58  2  0  0  0
 57133  1  0  0  0
 58134  1  0  0  0
 59 60  1  0  0  0
 59 61  1  0  0  0
 59 62  1  0  0  0
 60135  1  0  0  0
 60136  1  0  0  0
 60137  1  0  0  0
 61138  1  0  0  0
 61139  1  0  0  0
 61140  1  0  0  0
 62141  1  0  0  0
 62142  1  0  0  0
 62143  1  0  0  0
 63 65  1  0  0  0
 63144  1  0  0  0
 63145  1  0  0  0
 63146  1  0  0  0
 64147  1  0  0  0
 65148  1  0  0  0
 68 87  1  0  0  0
 71 73  2  0  0  0
 71 75  1  0  0  0
 71149  1  0  0  0
 72 74  2  0  0  0
 72 76  1  0  0  0
 72150  1  0  0  0
 73 74  1  0  0  0
 73 84  1  0  0  0
 74 85  1  0  0  0
 75 76  2  0  0  0
 75 86  1  0  0  0
 76 87  1  0  0  0
 77 80  1  0  0  0
 77 84  1  0  0  0
 77151  1  0  0  0
 77152  1  0  0  0
 78 81  1  0  0  0
 78 84  1  0  0  0
 78153  1  0  0  0
 78154  1  0  0  0
 79 82  1  0  0  0
 79 85  1  0  0  0
 79155  1  0  0  0
 79156  1  0  0  0
 80 88  1  0  0  0
 80157  1  0  0  0
 80158  1  0  0  0
 81 88  1  0  0  0
 81159  1  0  0  0
 81160  1  0  0  0
 82 89  1  0  0  0
 82161  1  0  0  0
 82162  1  0  0  0
 83 85  1  0  0  0
 83 89  1  0  0  0
 83163  1  0  0  0
 83164  1  0  0  0
 84165  1  0  0  0
 85166  1  0  0  0
 86167  1  0  0  0
 86168  1  0  0  0
 86169  1  0  0  0
 87170  1  0  0  0
 87171  1  0  0  0
 89172  1  0  0  0
 89173  1  0  0  0
M  CHG  1  89   1
M  ISO  4   1 100  68 101  87 101  88 100
M  END
> <chiral flag>
0

> <version>
0

> <s_m_source_file>
/data/baiqing/PycharmProjects/Reinvent-master-3.2/result/LINK_invent/BTK/process_docking_weight1_custom_sum_contain_oxygen_bond_distance_aromatic_linkinvent_7_9_3/rearranged_h_0151.sdf

> <i_m_source_file_index>
90

> <r_mmod_Potential_Energy-OPLS-2005>
347.402893066406

> <r_mmod_Stretch_Energy-OPLS-2005>
124.340812683105

> <r_mmod_Bend_Energy-OPLS-2005>
240.468368530273

> <r_mmod_Torsional_Energy-OPLS-2005>
405.948516845703

> <r_mmod_Improper_Torsional_Energy-OPLS-2005>
6.09106111526489

> <r_mmod_Van_der_Waal_Energy-OPLS-2005>
150.579895019531

> <r_mmod_Electrostatic_Energy-OPLS-2005>
-211.725875854492

> <r_mmod_Solvation_Energy-OPLS-2005>
-467.322937011719

> <b_mmod_Minimization_Converged-OPLS-2005>
0

> <r_mmod_RMS_Derivative-OPLS-2005>
2.32267451286316

$$$$
90
                    3D
 Structure written by MMmdl.
178187  0  0  1  0            999 V2000
  -30.6828  -14.4692   20.5376 C   0  0  0  0  0  0
  -30.4265  -12.2927   19.4227 C   0  0  0  0  0  0
  -29.4975  -12.5025   18.2077 C   0  0  0  0  0  0
  -28.0175  -12.3643   18.6187 C   0  0  0  0  0  0
  -27.6644  -13.2017   19.8771 C   0  0  2  0  0  0
  -28.7081  -12.9746   20.9973 C   0  0  0  0  0  0
  -25.2606  -13.8150   20.5685 C   0  0  0  0  0  0
  -24.1849  -13.0438   20.9185 C   0  0  0  0  0  0
  -24.6394  -11.6903   20.8738 C   0  0  0  0  0  0
  -23.9058  -10.4291   21.0410 C   0  0  0  0  0  0
  -24.3612   -9.4205   21.9188 C   0  0  0  0  0  0
  -23.6287   -8.2237   22.0754 C   0  0  0  0  0  0
  -22.4268   -8.0278   21.3543 C   0  0  0  0  0  0
  -21.9903   -9.0255   20.4647 C   0  0  0  0  0  0
  -22.7231  -10.2136   20.3058 C   0  0  0  0  0  0
  -21.6849   -6.0732   22.5283 C   0  0  0  0  0  0
  -21.4011   -6.5638   23.8216 C   0  0  0  0  0  0
  -21.3660   -5.6791   24.9178 C   0  0  0  0  0  0
  -21.6046   -4.3051   24.7229 C   0  0  0  0  0  0
  -21.8816   -3.8147   23.4349 C   0  0  0  0  0  0
  -21.9191   -4.6963   22.3406 C   0  0  0  0  0  0
  -22.7873  -13.5241   21.1847 C   0  0  0  0  0  0
  -22.1660   -4.2148   21.0982 F   0  0  0  0  0  0
  -21.5631   -3.4538   25.7741 F   0  0  0  0  0  0
  -30.0417  -13.2747   20.4461 N   0  0  0  0  0  0
  -26.3043  -12.9310   20.3375 N   0  0  0  0  0  0
  -25.9322  -11.6477   20.5774 N   0  0  0  0  0  0
  -22.0501  -12.8240   22.0400 N   0  0  0  0  0  0
  -25.4337  -15.1865   20.4083 N   0  0  0  0  0  0
  -31.8137  -14.6701   20.0881 O   0  0  0  0  0  0
  -21.6633   -6.8877   21.4242 O   0  0  0  0  0  0
  -22.3564  -14.5551   20.6698 O   0  0  0  0  0  0
  -24.6142  -31.8680   23.2091 C   0  0  0  0  0  0
  -25.9042  -32.4817   23.8383 C   0  0  1  0  0  0
  -27.2370  -27.4416   20.0945 C   0  0  0  0  0  0
  -25.5899  -33.8612   24.2321 N   0  0  0  0  0  0
  -23.4012  -30.4905   21.5494 C   0  0  2  0  0  0
  -24.8485  -28.9536   20.1143 C   0  0  0  0  0  0
  -22.7402  -29.4661   22.4991 C   0  0  0  0  0  0
  -18.0275  -28.1373   22.8497 C   0  0  0  0  0  0
  -24.1483  -36.7308   23.2634 C   0  0  0  0  0  0
  -25.9279  -30.8354   21.3600 C   0  0  0  0  0  0
  -26.0085  -29.4701   20.7072 C   0  0  0  0  0  0
  -27.2089  -28.7236   20.6896 C   0  0  0  0  0  0
  -26.0625  -26.9365   19.4978 C   0  0  0  0  0  0
  -24.8696  -27.6854   19.5066 C   0  0  0  0  0  0
  -23.6098  -29.8197   20.1641 C   0  0  0  0  0  0
  -25.4101  -36.3107   24.0341 C   0  0  1  0  0  0
  -20.5865  -28.3660   23.1319 C   0  0  2  0  0  0
  -20.6764  -26.9397   22.5418 C   0  0  0  0  0  0
  -19.5738  -26.6388   21.5210 C   0  0  0  0  0  0
  -18.1920  -26.7920   22.1629 C   0  0  0  0  0  0
  -19.1526  -28.8838   23.2903 C   0  0  0  0  0  0
  -18.9455  -30.1451   23.8906 C   0  0  0  0  0  0
  -17.6451  -30.6579   24.0571 C   0  0  0  0  0  0
  -25.9024  -34.9474   23.5124 C   0  0  0  0  0  0
  -16.5347  -29.9084   23.6328 C   0  0  0  0  0  0
  -16.7266  -28.6500   23.0343 C   0  0  0  0  0  0
  -26.4473  -31.6585   25.0708 C   0  0  0  0  0  0
  -25.3751  -31.3706   26.1466 C   0  0  0  0  0  0
  -27.0280  -30.3024   24.6071 C   0  0  0  0  0  0
  -27.6057  -32.4294   25.7462 C   0  0  0  0  0  0
  -27.5577  -37.1806   24.8467 C   0  0  0  0  0  0
  -21.4134  -29.3029   22.3726 N   0  0  0  0  0  0
  -26.4288  -37.3796   23.9415 N   0  0  0  0  0  0
  -24.6662  -31.0787   22.0986 N   0  0  0  0  0  0
  -23.4178  -28.8214   23.3037 O   0  0  0  0  0  0
  -28.3967  -26.6969   20.0931 O   0  0  0  0  0  0
  -26.5589  -34.8928   22.4686 O   0  0  0  0  0  0
  -23.5343  -32.1434   23.7496 O   0  0  0  0  0  0
  -27.9171  -19.7577   21.5649 C   0  0  0  0  0  0
  -30.0154  -20.0613   20.3841 C   0  0  0  0  0  0
  -27.5077  -21.0440   21.1639 C   0  0  0  0  0  0
  -29.6083  -21.3629   19.9966 C   0  0  0  0  0  0
  -29.1856  -19.2549   21.2004 C   0  0  0  0  0  0
  -28.3495  -21.8750   20.4000 C   0  0  0  0  0  0
  -30.8592  -16.7308   23.7404 C   0  0  0  0  0  0
  -30.6685  -17.6453   24.9344 C   0  0  0  0  0  0
  -30.6758  -17.9544   22.8418 C   0  0  1  0  0  0
  -28.7108  -21.3296   24.9232 C   0  0  0  0  0  0
  -30.9183  -21.9897   25.9740 C   0  0  0  0  0  0
  -30.0609  -16.9042   20.5850 C   0  0  0  0  0  0
  -28.7113  -24.2267   19.8081 C   0  0  0  0  0  0
  -28.2976  -25.4059   20.7211 C   0  0  0  0  0  0
  -29.6201  -17.8719   21.7155 C   0  0  2  0  0  0
  -30.0860  -20.8252   25.4087 C   0  0  0  0  0  0
  -30.8762  -20.0363   24.3331 C   0  0  2  0  0  0
  -31.0579  -20.8923   23.1666 N   0  0  0  0  0  0
  -29.9021  -15.4835   20.9451 N   0  0  0  0  0  0
  -30.2349  -18.7152   24.0311 N   0  3  2  0  0  0
  -27.8430  -23.1178   20.0678 O   0  0  0  0  0  0
  -31.4723  -12.3880   19.1250 H   0  0  0  0  0  0
  -30.3205  -11.2813   19.8175 H   0  0  0  0  0  0
  -29.7360  -11.7842   17.4223 H   0  0  0  0  0  0
  -29.6690  -13.4911   17.7795 H   0  0  0  0  0  0
  -27.8248  -11.3085   18.8120 H   0  0  0  0  0  0
  -27.3682  -12.6436   17.7879 H   0  0  0  0  0  0
  -27.7088  -14.2494   19.5800 H   0  0  0  0  0  0
  -28.6799  -11.9378   21.3355 H   0  0  0  0  0  0
  -28.4781  -13.5739   21.8798 H   0  0  0  0  0  0
  -25.2759   -9.5678   22.4759 H   0  0  0  0  0  0
  -23.9999   -7.4627   22.7467 H   0  0  0  0  0  0
  -21.0835   -8.8777   19.8954 H   0  0  0  0  0  0
  -22.3695  -10.9675   19.6165 H   0  0  0  0  0  0
  -21.2000   -7.6145   23.9721 H   0  0  0  0  0  0
  -21.1485   -6.0520   25.9082 H   0  0  0  0  0  0
  -22.0594   -2.7609   23.2853 H   0  0  0  0  0  0
  -22.4096  -11.9891   22.4788 H   0  0  0  0  0  0
  -21.1126  -13.1278   22.2602 H   0  0  0  0  0  0
  -24.6638  -15.8397   20.5048 H   0  0  0  0  0  0
  -26.2785  -15.6223   20.0623 H   0  0  0  0  0  0
  -26.7109  -32.5530   23.1145 H   0  0  0  0  0  0
  -25.0084  -33.9770   25.0491 H   0  0  0  0  0  0
  -22.6899  -31.3068   21.4092 H   0  0  0  0  0  0
  -23.3742  -35.9644   23.3307 H   0  0  0  0  0  0
  -24.3576  -36.8906   22.2046 H   0  0  0  0  0  0
  -23.7237  -37.6524   23.6623 H   0  0  0  0  0  0
  -26.0393  -31.6020   20.5922 H   0  0  0  0  0  0
  -26.8161  -30.8892   21.9779 H   0  0  0  0  0  0
  -28.1059  -29.1198   21.1458 H   0  0  0  0  0  0
  -26.0696  -25.9640   19.0250 H   0  0  0  0  0  0
  -23.9781  -27.2818   19.0453 H   0  0  0  0  0  0
  -23.7184  -30.5929   19.4021 H   0  0  0  0  0  0
  -22.7333  -29.2391   19.8696 H   0  0  0  0  0  0
  -25.1277  -36.1971   25.0837 H   0  0  0  0  0  0
  -20.9968  -28.3227   24.1436 H   0  0  0  0  0  0
  -20.5660  -26.2270   23.3608 H   0  0  0  0  0  0
  -21.6635  -26.7433   22.1217 H   0  0  0  0  0  0
  -19.6891  -25.6304   21.1226 H   0  0  0  0  0  0
  -19.6671  -27.3215   20.6749 H   0  0  0  0  0  0
  -17.4191  -26.6688   21.4025 H   0  0  0  0  0  0
  -18.0314  -26.0052   22.9019 H   0  0  0  0  0  0
  -19.7930  -30.7275   24.2263 H   0  0  0  0  0  0
  -17.5006  -31.6257   24.5179 H   0  0  0  0  0  0
  -15.5347  -30.2987   23.7636 H   0  0  0  0  0  0
  -15.8670  -28.0830   22.7032 H   0  0  0  0  0  0
  -24.5935  -30.7024   25.7826 H   0  0  0  0  0  0
  -24.8932  -32.2866   26.4887 H   0  0  0  0  0  0
  -25.8133  -30.8916   27.0229 H   0  0  0  0  0  0
  -26.2808  -29.6808   24.1123 H   0  0  0  0  0  0
  -27.4038  -29.7235   25.4518 H   0  0  0  0  0  0
  -27.8651  -30.4326   23.9211 H   0  0  0  0  0  0
  -27.2680  -33.3579   26.2066 H   0  0  0  0  0  0
  -28.3850  -32.6866   25.0279 H   0  0  0  0  0  0
  -28.0733  -31.8398   26.5357 H   0  0  0  0  0  0
  -28.2613  -38.0088   24.7509 H   0  0  0  0  0  0
  -28.1056  -36.2623   24.6292 H   0  0  0  0  0  0
  -27.2299  -37.1466   25.8873 H   0  0  0  0  0  0
  -20.9290  -29.8758   21.6959 H   0  0  0  0  0  0
  -26.0180  -38.2874   24.1422 H   0  0  0  0  0  0
  -27.2388  -19.1642   22.1621 H   0  0  0  0  0  0
  -30.9817  -19.6949   20.0673 H   0  0  0  0  0  0
  -26.5309  -21.4020   21.4580 H   0  0  0  0  0  0
  -30.2713  -21.9474   19.3753 H   0  0  0  0  0  0
  -30.0632  -15.9901   23.6536 H   0  0  0  0  0  0
  -31.8464  -16.2712   23.6764 H   0  0  0  0  0  0
  -31.6058  -17.8412   25.4578 H   0  0  0  0  0  0
  -29.8859  -17.3260   25.6229 H   0  0  0  0  0  0
  -31.6468  -18.3139   22.4967 H   0  0  0  0  0  0
  -28.1629  -21.8032   25.7386 H   0  0  0  0  0  0
  -28.0841  -20.5213   24.5479 H   0  0  0  0  0  0
  -28.8070  -22.0709   24.1286 H   0  0  0  0  0  0
  -30.3964  -22.4878   26.7915 H   0  0  0  0  0  0
  -31.1283  -22.7401   25.2106 H   0  0  0  0  0  0
  -31.8749  -21.6394   26.3632 H   0  0  0  0  0  0
  -31.0791  -17.1333   20.2655 H   0  0  0  0  0  0
  -29.4284  -17.0666   19.7109 H   0  0  0  0  0  0
  -29.7696  -24.0134   19.9496 H   0  0  0  0  0  0
  -28.5776  -24.5025   18.7618 H   0  0  0  0  0  0
  -28.9303  -25.4093   21.6090 H   0  0  0  0  0  0
  -27.2892  -25.2285   21.1007 H   0  0  0  0  0  0
  -28.7147  -17.4289   22.1350 H   0  0  0  0  0  0
  -29.9060  -20.1479   26.2455 H   0  0  0  0  0  0
  -31.8819  -19.8453   24.7114 H   0  0  0  0  0  0
  -30.2129  -20.9376   22.6104 H   0  0  0  0  0  0
  -31.7574  -20.4988   22.5506 H   0  0  0  0  0  0
  -28.9969  -15.2062   21.2927 H   0  0  0  0  0  0
  -29.2276  -18.7766   24.0569 H   0  0  0  0  0  0
  1 25  1  0  0  0
  1 30  2  0  0  0
  1 89  1  0  0  0
  2  3  1  0  0  0
  2 25  1  0  0  0
  2 92  1  0  0  0
  2 93  1  0  0  0
  3  4  1  0  0  0
  3 94  1  0  0  0
  3 95  1  0  0  0
  4  5  1  0  0  0
  4 96  1  0  0  0
  4 97  1  0  0  0
  5  6  1  0  0  0
  5 26  1  0  0  0
  5 98  1  0  0  0
  6 25  1  0  0  0
  6 99  1  0  0  0
  6100  1  0  0  0
  7  8  2  0  0  0
  7 26  1  0  0  0
  7 29  1  0  0  0
  8  9  1  0  0  0
  8 22  1  0  0  0
  9 10  1  0  0  0
  9 27  2  0  0  0
 10 11  2  0  0  0
 10 15  1  0  0  0
 11 12  1  0  0  0
 11101  1  0  0  0
 12 13  2  0  0  0
 12102  1  0  0  0
 13 14  1  0  0  0
 13 31  1  0  0  0
 14 15  2  0  0  0
 14103  1  0  0  0
 15104  1  0  0  0
 16 17  2  0  0  0
 16 21  1  0  0  0
 16 31  1  0  0  0
 17 18  1  0  0  0
 17105  1  0  0  0
 18 19  2  0  0  0
 18106  1  0  0  0
 19 20  1  0  0  0
 19 24  1  0  0  0
 20 21  2  0  0  0
 20107  1  0  0  0
 21 23  1  0  0  0
 22 28  1  0  0  0
 22 32  2  0  0  0
 26 27  1  0  0  0
 28108  1  0  0  0
 28109  1  0  0  0
 29110  1  0  0  0
 29111  1  0  0  0
 33 34  1  0  0  0
 33 66  1  0  0  0
 33 70  2  0  0  0
 34 36  1  0  0  0
 34 59  1  0  0  0
 34112  1  0  0  0
 35 44  2  0  0  0
 35 45  1  0  0  0
 35 68  1  0  0  0
 36 56  1  0  0  0
 36113  1  0  0  0
 37 39  1  0  0  0
 37 47  1  0  0  0
 37 66  1  0  0  0
 37114  1  0  0  0
 38 43  2  0  0  0
 38 46  1  0  0  0
 38 47  1  0  0  0
 39 64  1  0  0  0
 39 67  2  0  0  0
 40 52  1  0  0  0
 40 53  2  0  0  0
 40 58  1  0  0  0
 41115  1  0  0  0
 41116  1  0  0  0
 41117  1  0  0  0
 41 48  1  0  0  0
 42 43  1  0  0  0
 42 66  1  0  0  0
 42118  1  0  0  0
 42119  1  0  0  0
 43 44  1  0  0  0
 44120  1  0  0  0
 45 46  2  0  0  0
 45121  1  0  0  0
 46122  1  0  0  0
 47123  1  0  0  0
 47124  1  0  0  0
 48 56  1  0  0  0
 48 65  1  0  0  0
 48125  1  0  0  0
 49 50  1  0  0  0
 49 53  1  0  0  0
 49 64  1  0  0  0
 49126  1  0  0  0
 50 51  1  0  0  0
 50127  1  0  0  0
 50128  1  0  0  0
 51 52  1  0  0  0
 51129  1  0  0  0
 51130  1  0  0  0
 52131  1  0  0  0
 52132  1  0  0  0
 53 54  1  0  0  0
 54 55  2  0  0  0
 54133  1  0  0  0
 55 57  1  0  0  0
 55134  1  0  0  0
 56 69  2  0  0  0
 57 58  2  0  0  0
 57135  1  0  0  0
 58136  1  0  0  0
 59 60  1  0  0  0
 59 61  1  0  0  0
 59 62  1  0  0  0
 60137  1  0  0  0
 60138  1  0  0  0
 60139  1  0  0  0
 61140  1  0  0  0
 61141  1  0  0  0
 61142  1  0  0  0
 62143  1  0  0  0
 62144  1  0  0  0
 62145  1  0  0  0
 63 65  1  0  0  0
 63146  1  0  0  0
 63147  1  0  0  0
 63148  1  0  0  0
 64149  1  0  0  0
 65150  1  0  0  0
 68 84  1  0  0  0
 71 73  2  0  0  0
 71 75  1  0  0  0
 71151  1  0  0  0
 72 74  1  0  0  0
 72 75  2  0  0  0
 72152  1  0  0  0
 73 76  1  0  0  0
 73153  1  0  0  0
 74 76  2  0  0  0
 74154  1  0  0  0
 75 85  1  0  0  0
 76 91  1  0  0  0
 77 78  1  0  0  0
 77155  1  0  0  0
 77156  1  0  0  0
 77 79  1  0  0  0
 78157  1  0  0  0
 78158  1  0  0  0
 78 90  1  0  0  0
 79 85  1  0  0  0
 79 90  1  0  0  0
 79159  1  0  0  0
 80160  1  0  0  0
 80161  1  0  0  0
 80162  1  0  0  0
 80 86  1  0  0  0
 81 86  1  0  0  0
 81163  1  0  0  0
 81164  1  0  0  0
 81165  1  0  0  0
 82 89  1  0  0  0
 82166  1  0  0  0
 82167  1  0  0  0
 82 85  1  0  0  0
 83 84  1  0  0  0
 83 91  1  0  0  0
 83168  1  0  0  0
 83169  1  0  0  0
 84170  1  0  0  0
 84171  1  0  0  0
 85172  1  0  0  0
 86 87  1  0  0  0
 86173  1  0  0  0
 87 88  1  0  0  0
 87 90  1  0  0  0
 87174  1  0  0  0
 88175  1  0  0  0
 88176  1  0  0  0
 89177  1  0  0  0
 90178  1  0  0  0
M  CHG  1  90   1
M  ISO  4   1 100  68 101  84 101  89 100
M  END
> <chiral flag>
0

> <version>
0

> <s_m_source_file>
/data/baiqing/PycharmProjects/Reinvent-master-3.2/result/LINK_invent/BTK/process_docking_weight1_custom_sum_contain_oxygen_bond_distance_aromatic_linkinvent_7_9_3/rearranged_h_0151.sdf

> <i_m_source_file_index>
91

> <r_mmod_Potential_Energy-OPLS-2005>
-47.2820358276367

> <r_mmod_Stretch_Energy-OPLS-2005>
42.2169075012207

> <r_mmod_Bend_Energy-OPLS-2005>
123.181945800781

> <r_mmod_Torsional_Energy-OPLS-2005>
326.821899414062

> <r_mmod_Improper_Torsional_Energy-OPLS-2005>
6.36995887756348

> <r_mmod_Van_der_Waal_Energy-OPLS-2005>
147.337036132812

> <r_mmod_Electrostatic_Energy-OPLS-2005>
-255.991806030273

> <r_mmod_Solvation_Energy-OPLS-2005>
-449.598205566406

> <b_mmod_Minimization_Converged-OPLS-2005>
0

> <r_mmod_RMS_Derivative-OPLS-2005>
1.40622246265411

$$$$
91
                    3D
 Structure written by MMmdl.
166176  0  0  1  0            999 V2000
  -30.7410  -14.4974   20.5564 C   0  0  0  0  0  0
  -30.4100  -12.3172   19.4422 C   0  0  0  0  0  0
  -29.4949  -12.5027   18.2164 C   0  0  0  0  0  0
  -28.0184  -12.3578   18.6274 C   0  0  0  0  0  0
  -27.6589  -13.2135   19.8728 C   0  0  2  0  0  0
  -28.7036  -13.0467   21.0026 C   0  0  0  0  0  0
  -25.2579  -13.8174   20.5664 C   0  0  0  0  0  0
  -24.1851  -13.0450   20.9194 C   0  0  0  0  0  0
  -24.6421  -11.6920   20.8760 C   0  0  0  0  0  0
  -23.9090  -10.4306   21.0407 C   0  0  0  0  0  0
  -24.3647   -9.4222   21.9174 C   0  0  0  0  0  0
  -23.6322   -8.2262   22.0744 C   0  0  0  0  0  0
  -22.4303   -8.0298   21.3542 C   0  0  0  0  0  0
  -21.9940   -9.0273   20.4647 C   0  0  0  0  0  0
  -22.7270  -10.2148   20.3053 C   0  0  0  0  0  0
  -21.6865   -6.0750   22.5282 C   0  0  0  0  0  0
  -21.4030   -6.5649   23.8215 C   0  0  0  0  0  0
  -21.3656   -5.6792   24.9166 C   0  0  0  0  0  0
  -21.6043   -4.3057   24.7208 C   0  0  0  0  0  0
  -21.8824   -3.8157   23.4330 C   0  0  0  0  0  0
  -21.9207   -4.6981   22.3394 C   0  0  0  0  0  0
  -22.7877  -13.5247   21.1837 C   0  0  0  0  0  0
  -22.1669   -4.2177   21.0963 F   0  0  0  0  0  0
  -21.5623   -3.4534   25.7709 F   0  0  0  0  0  0
  -30.0334  -13.3335   20.4443 N   0  0  0  0  0  0
  -26.3022  -12.9362   20.3357 N   0  0  0  0  0  0
  -25.9352  -11.6521   20.5806 N   0  0  0  0  0  0
  -22.0526  -12.8228   22.0392 N   0  0  0  0  0  0
  -25.4243  -15.1894   20.4009 N   0  0  0  0  0  0
  -31.8537  -14.6256   20.0396 O   0  0  0  0  0  0
  -21.6668   -6.8894   21.4246 O   0  0  0  0  0  0
  -22.3557  -14.5536   20.6664 O   0  0  0  0  0  0
  -24.6191  -31.8681   23.2100 C   0  0  0  0  0  0
  -25.9081  -32.4814   23.8397 C   0  0  1  0  0  0
  -27.2222  -27.4014   20.0996 C   0  0  0  0  0  0
  -25.5923  -33.8615   24.2321 N   0  0  0  0  0  0
  -23.4064  -30.4962   21.5515 C   0  0  2  0  0  0
  -24.8504  -28.9685   20.1104 C   0  0  0  0  0  0
  -22.7431  -29.4671   22.4968 C   0  0  0  0  0  0
  -18.0287  -28.1388   22.8492 C   0  0  0  0  0  0
  -24.1485  -36.7309   23.2631 C   0  0  0  0  0  0
  -25.9417  -30.8273   21.3687 C   0  0  0  0  0  0
  -26.0172  -29.4622   20.7090 C   0  0  0  0  0  0
  -27.2070  -28.6888   20.6975 C   0  0  0  0  0  0
  -26.0327  -26.9493   19.4758 C   0  0  0  0  0  0
  -24.8560  -27.7119   19.4900 C   0  0  0  0  0  0
  -23.6161  -29.8379   20.1643 C   0  0  0  0  0  0
  -25.4112  -36.3108   24.0330 C   0  0  1  0  0  0
  -20.5880  -28.3680   23.1311 C   0  0  2  0  0  0
  -20.6777  -26.9410   22.5422 C   0  0  0  0  0  0
  -19.5749  -26.6387   21.5226 C   0  0  0  0  0  0
  -18.1927  -26.7932   22.1631 C   0  0  0  0  0  0
  -19.1530  -28.8848   23.2897 C   0  0  0  0  0  0
  -18.9457  -30.1460   23.8903 C   0  0  0  0  0  0
  -17.6450  -30.6588   24.0570 C   0  0  0  0  0  0
  -25.9045  -34.9476   23.5110 C   0  0  0  0  0  0
  -16.5346  -29.9086   23.6331 C   0  0  0  0  0  0
  -16.7271  -28.6512   23.0335 C   0  0  0  0  0  0
  -26.4496  -31.6591   25.0728 C   0  0  0  0  0  0
  -25.3742  -31.3718   26.1458 C   0  0  0  0  0  0
  -27.0316  -30.3017   24.6135 C   0  0  0  0  0  0
  -27.6068  -32.4302   25.7504 C   0  0  0  0  0  0
  -27.5581  -37.1809   24.8460 C   0  0  0  0  0  0
  -21.4154  -29.3042   22.3709 N   0  0  0  0  0  0
  -26.4294  -37.3797   23.9400 N   0  0  0  0  0  0
  -24.6739  -31.0779   22.1008 N   0  0  0  0  0  0
  -23.4195  -28.8213   23.3014 O   0  0  0  0  0  0
  -28.3533  -26.5925   20.1566 O   0  0  0  0  0  0
  -26.5606  -34.8925   22.4673 O   0  0  0  0  0  0
  -23.5382  -32.1437   23.7483 O   0  0  0  0  0  0
  -30.0645  -19.7961   20.6720 C   0  0  0  0  0  0
  -29.8235  -21.1951   20.5975 C   0  0  0  0  0  0
  -28.3957  -19.6032   22.4021 C   0  0  0  0  0  0
  -29.3520  -18.9765   21.5791 C   0  0  0  0  0  0
  -28.8617  -21.8234   21.4341 C   0  0  0  0  0  0
  -28.1605  -20.9948   22.3590 C   0  0  0  0  0  0
  -33.3972  -16.7728   22.5181 C   0  0  0  0  0  0
  -32.6165  -17.7825   23.3175 C   0  0  0  0  0  0
  -29.0873  -16.3813   20.7844 C   0  0  0  0  0  0
  -29.6044  -17.4594   21.7447 C   0  0  1  0  0  0
  -31.9080  -16.5873   22.7180 C   0  0  0  0  0  0
  -30.9561  -16.7749   21.5486 C   0  0  1  0  0  0
  -27.4695  -22.6928   23.9063 C   0  0  0  0  0  0
  -28.0978  -25.1628   20.0847 C   0  0  0  0  0  0
  -29.1837  -24.1795   20.6118 C   0  0  0  0  0  0
  -30.1992  -15.5303   21.2561 N   0  0  0  0  0  0
  -27.2114  -21.4603   23.2424 O   0  0  0  0  0  0
  -28.5215  -23.1729   21.4026 O   0  0  0  0  0  0
  -31.4590  -12.3797   19.1455 H   0  0  0  0  0  0
  -30.2813  -11.3162   19.8574 H   0  0  0  0  0  0
  -29.7390  -11.7718   17.4448 H   0  0  0  0  0  0
  -29.6643  -13.4856   17.7743 H   0  0  0  0  0  0
  -27.8354  -11.3020   18.8341 H   0  0  0  0  0  0
  -27.3687  -12.6207   17.7926 H   0  0  0  0  0  0
  -27.6866  -14.2508   19.5467 H   0  0  0  0  0  0
  -28.6802  -12.0288   21.3946 H   0  0  0  0  0  0
  -28.4674  -13.6949   21.8475 H   0  0  0  0  0  0
  -25.2797   -9.5706   22.4733 H   0  0  0  0  0  0
  -24.0050   -7.4653   22.7453 H   0  0  0  0  0  0
  -21.0869   -8.8796   19.8950 H   0  0  0  0  0  0
  -22.3733  -10.9688   19.6159 H   0  0  0  0  0  0
  -21.2021   -7.6155   23.9724 H   0  0  0  0  0  0
  -21.1471   -6.0512   25.9067 H   0  0  0  0  0  0
  -22.0604   -2.7624   23.2817 H   0  0  0  0  0  0
  -22.4170  -11.9921   22.4804 H   0  0  0  0  0  0
  -21.1131  -13.1220   22.2568 H   0  0  0  0  0  0
  -24.6487  -15.8353   20.4994 H   0  0  0  0  0  0
  -26.2596  -15.6288   20.0395 H   0  0  0  0  0  0
  -26.7155  -32.5523   23.1163 H   0  0  0  0  0  0
  -25.0060  -33.9773   25.0458 H   0  0  0  0  0  0
  -22.6964  -31.3143   21.4152 H   0  0  0  0  0  0
  -23.3747  -35.9636   23.3305 H   0  0  0  0  0  0
  -24.3585  -36.8921   22.2041 H   0  0  0  0  0  0
  -23.7236  -37.6516   23.6646 H   0  0  0  0  0  0
  -26.0617  -31.5975   20.6055 H   0  0  0  0  0  0
  -26.8279  -30.8731   21.9907 H   0  0  0  0  0  0
  -28.1017  -29.0646   21.1750 H   0  0  0  0  0  0
  -25.9788  -25.9950   18.9754 H   0  0  0  0  0  0
  -23.9606  -27.3250   19.0234 H   0  0  0  0  0  0
  -23.7273  -30.6170   19.4093 H   0  0  0  0  0  0
  -22.7380  -29.2623   19.8642 H   0  0  0  0  0  0
  -25.1293  -36.1964   25.0826 H   0  0  0  0  0  0
  -20.9977  -28.3242   24.1429 H   0  0  0  0  0  0
  -20.5703  -26.2273   23.3610 H   0  0  0  0  0  0
  -21.6639  -26.7466   22.1187 H   0  0  0  0  0  0
  -19.6901  -25.6302   21.1242 H   0  0  0  0  0  0
  -19.6682  -27.3211   20.6768 H   0  0  0  0  0  0
  -17.4195  -26.6684   21.4037 H   0  0  0  0  0  0
  -18.0326  -26.0088   22.9039 H   0  0  0  0  0  0
  -19.7930  -30.7289   24.2255 H   0  0  0  0  0  0
  -17.5005  -31.6274   24.5164 H   0  0  0  0  0  0
  -15.5342  -30.2983   23.7670 H   0  0  0  0  0  0
  -15.8675  -28.0855   22.7015 H   0  0  0  0  0  0
  -24.5918  -30.7065   25.7802 H   0  0  0  0  0  0
  -24.8924  -32.2869   26.4899 H   0  0  0  0  0  0
  -25.8073  -30.8894   27.0219 H   0  0  0  0  0  0
  -26.2869  -29.6784   24.1164 H   0  0  0  0  0  0
  -27.4036  -29.7271   25.4628 H   0  0  0  0  0  0
  -27.8735  -30.4330   23.9330 H   0  0  0  0  0  0
  -27.2692  -33.3594   26.2113 H   0  0  0  0  0  0
  -28.3873  -32.6865   25.0325 H   0  0  0  0  0  0
  -28.0726  -31.8383   26.5391 H   0  0  0  0  0  0
  -28.2604  -38.0106   24.7525 H   0  0  0  0  0  0
  -28.1077  -36.2639   24.6272 H   0  0  0  0  0  0
  -27.2295  -37.1441   25.8864 H   0  0  0  0  0  0
  -20.9306  -29.8770   21.6943 H   0  0  0  0  0  0
  -26.0179  -38.2871   24.1421 H   0  0  0  0  0  0
  -30.8090  -19.3590   20.0208 H   0  0  0  0  0  0
  -30.3945  -21.7610   19.8778 H   0  0  0  0  0  0
  -27.8396  -19.0080   23.1138 H   0  0  0  0  0  0
  -34.0596  -16.0981   23.0563 H   0  0  0  0  0  0
  -33.7515  -17.0885   21.5369 H   0  0  0  0  0  0
  -32.4465  -18.7576   22.8641 H   0  0  0  0  0  0
  -32.7547  -17.7888   24.3974 H   0  0  0  0  0  0
  -29.1520  -16.6546   19.7283 H   0  0  0  0  0  0
  -28.0893  -16.0322   21.0455 H   0  0  0  0  0  0
  -29.2518  -17.2101   22.7497 H   0  0  0  0  0  0
  -31.6085  -15.8201   23.4308 H   0  0  0  0  0  0
  -31.4611  -17.1607   20.6584 H   0  0  0  0  0  0
  -27.0444  -22.6555   24.9091 H   0  0  0  0  0  0
  -26.9949  -23.5229   23.3827 H   0  0  0  0  0  0
  -28.5360  -22.9004   24.0136 H   0  0  0  0  0  0
  -27.1989  -24.9596   20.6735 H   0  0  0  0  0  0
  -27.8622  -24.8807   19.0577 H   0  0  0  0  0  0
  -29.8782  -24.7110   21.2623 H   0  0  0  0  0  0
  -29.7590  -23.7851   19.7772 H   0  0  0  0  0  0
  1 25  1  0  0  0
  1 30  2  0  0  0
  1 86  1  0  0  0
  2  3  1  0  0  0
  2 25  1  0  0  0
  2 89  1  0  0  0
  2 90  1  0  0  0
  3  4  1  0  0  0
  3 91  1  0  0  0
  3 92  1  0  0  0
  4  5  1  0  0  0
  4 93  1  0  0  0
  4 94  1  0  0  0
  5  6  1  0  0  0
  5 26  1  0  0  0
  5 95  1  0  0  0
  6 25  1  0  0  0
  6 96  1  0  0  0
  6 97  1  0  0  0
  7  8  2  0  0  0
  7 26  1  0  0  0
  7 29  1  0  0  0
  8  9  1  0  0  0
  8 22  1  0  0  0
  9 10  1  0  0  0
  9 27  2  0  0  0
 10 11  2  0  0  0
 10 15  1  0  0  0
 11 12  1  0  0  0
 11 98  1  0  0  0
 12 13  2  0  0  0
 12 99  1  0  0  0
 13 14  1  0  0  0
 13 31  1  0  0  0
 14 15  2  0  0  0
 14100  1  0  0  0
 15101  1  0  0  0
 16 17  2  0  0  0
 16 21  1  0  0  0
 16 31  1  0  0  0
 17 18  1  0  0  0
 17102  1  0  0  0
 18 19  2  0  0  0
 18103  1  0  0  0
 19 20  1  0  0  0
 19 24  1  0  0  0
 20 21  2  0  0  0
 20104  1  0  0  0
 21 23  1  0  0  0
 22 28  1  0  0  0
 22 32  2  0  0  0
 26 27  1  0  0  0
 28105  1  0  0  0
 28106  1  0  0  0
 29107  1  0  0  0
 29108  1  0  0  0
 33 34  1  0  0  0
 33 66  1  0  0  0
 33 70  2  0  0  0
 34 36  1  0  0  0
 34 59  1  0  0  0
 34109  1  0  0  0
 35 44  2  0  0  0
 35 45  1  0  0  0
 35 68  1  0  0  0
 36 56  1  0  0  0
 36110  1  0  0  0
 37 39  1  0  0  0
 37 47  1  0  0  0
 37 66  1  0  0  0
 37111  1  0  0  0
 38 43  2  0  0  0
 38 46  1  0  0  0
 38 47  1  0  0  0
 39 64  1  0  0  0
 39 67  2  0  0  0
 40 52  1  0  0  0
 40 53  2  0  0  0
 40 58  1  0  0  0
 41112  1  0  0  0
 41113  1  0  0  0
 41114  1  0  0  0
 41 48  1  0  0  0
 42 43  1  0  0  0
 42 66  1  0  0  0
 42115  1  0  0  0
 42116  1  0  0  0
 43 44  1  0  0  0
 44117  1  0  0  0
 45 46  2  0  0  0
 45118  1  0  0  0
 46119  1  0  0  0
 47120  1  0  0  0
 47121  1  0  0  0
 48 56  1  0  0  0
 48 65  1  0  0  0
 48122  1  0  0  0
 49 50  1  0  0  0
 49 53  1  0  0  0
 49 64  1  0  0  0
 49123  1  0  0  0
 50 51  1  0  0  0
 50124  1  0  0  0
 50125  1  0  0  0
 51 52  1  0  0  0
 51126  1  0  0  0
 51127  1  0  0  0
 52128  1  0  0  0
 52129  1  0  0  0
 53 54  1  0  0  0
 54 55  2  0  0  0
 54130  1  0  0  0
 55 57  1  0  0  0
 55131  1  0  0  0
 56 69  2  0  0  0
 57 58  2  0  0  0
 57132  1  0  0  0
 58133  1  0  0  0
 59 60  1  0  0  0
 59 61  1  0  0  0
 59 62  1  0  0  0
 60134  1  0  0  0
 60135  1  0  0  0
 60136  1  0  0  0
 61137  1  0  0  0
 61138  1  0  0  0
 61139  1  0  0  0
 62140  1  0  0  0
 62141  1  0  0  0
 62142  1  0  0  0
 63 65  1  0  0  0
 63143  1  0  0  0
 63144  1  0  0  0
 63145  1  0  0  0
 64146  1  0  0  0
 65147  1  0  0  0
 68 84  1  0  0  0
 71 72  2  0  0  0
 71 74  1  0  0  0
 71148  1  0  0  0
 72 75  1  0  0  0
 72149  1  0  0  0
 73 74  2  0  0  0
 73 76  1  0  0  0
 73150  1  0  0  0
 74 80  1  0  0  0
 75 76  2  0  0  0
 75 88  1  0  0  0
 76 87  1  0  0  0
 77 78  1  0  0  0
 77151  1  0  0  0
 77152  1  0  0  0
 77 81  1  0  0  0
 78 81  1  0  0  0
 78153  1  0  0  0
 78154  1  0  0  0
 79 80  1  0  0  0
 79 86  1  0  0  0
 79155  1  0  0  0
 79156  1  0  0  0
 80 82  1  0  0  0
 80157  1  0  0  0
 81 82  1  0  0  0
 81158  1  0  0  0
 82 86  1  0  0  0
 82159  1  0  0  0
 83 87  1  0  0  0
 83160  1  0  0  0
 83161  1  0  0  0
 83162  1  0  0  0
 84 85  1  0  0  0
 84163  1  0  0  0
 84164  1  0  0  0
 85 88  1  0  0  0
 85165  1  0  0  0
 85166  1  0  0  0
M  ISO  4   1 100  68 101  84 101  86 100
M  END
> <chiral flag>
0

> <version>
0

> <s_m_source_file>
/data/baiqing/PycharmProjects/Reinvent-master-3.2/result/LINK_invent/BTK/process_docking_weight1_custom_sum_contain_oxygen_bond_distance_aromatic_linkinvent_7_9_3/rearranged_h_0151.sdf

> <i_m_source_file_index>
92

> <r_mmod_Potential_Energy-OPLS-2005>
160.571151733398

> <r_mmod_Stretch_Energy-OPLS-2005>
49.5779800415039

> <r_mmod_Bend_Energy-OPLS-2005>
143.191528320312

> <r_mmod_Torsional_Energy-OPLS-2005>
311.589324951172

> <r_mmod_Improper_Torsional_Energy-OPLS-2005>
9.1632719039917

> <r_mmod_Van_der_Waal_Energy-OPLS-2005>
158.722778320312

> <r_mmod_Electrostatic_Energy-OPLS-2005>
-327.431640625

> <r_mmod_Solvation_Energy-OPLS-2005>
-204.967102050781

> <b_mmod_Minimization_Converged-OPLS-2005>
0

> <r_mmod_RMS_Derivative-OPLS-2005>
2.51119804382324

$$$$
92
                    3D
 Structure written by MMmdl.
168177  0  0  1  0            999 V2000
  -30.7150  -14.4256   20.5765 C   0  0  0  0  0  0
  -30.4214  -12.2742   19.4294 C   0  0  0  0  0  0
  -29.4938  -12.5028   18.2165 C   0  0  0  0  0  0
  -28.0161  -12.3644   18.6291 C   0  0  0  0  0  0
  -27.6682  -13.1989   19.8888 C   0  0  2  0  0  0
  -28.7080  -12.9621   21.0123 C   0  0  0  0  0  0
  -25.2603  -13.8147   20.5691 C   0  0  0  0  0  0
  -24.1848  -13.0426   20.9183 C   0  0  0  0  0  0
  -24.6393  -11.6892   20.8742 C   0  0  0  0  0  0
  -23.9056  -10.4287   21.0395 C   0  0  0  0  0  0
  -24.3604   -9.4205   21.9172 C   0  0  0  0  0  0
  -23.6291   -8.2236   22.0740 C   0  0  0  0  0  0
  -22.4277   -8.0274   21.3529 C   0  0  0  0  0  0
  -21.9899   -9.0242   20.4631 C   0  0  0  0  0  0
  -22.7223  -10.2126   20.3047 C   0  0  0  0  0  0
  -21.6848   -6.0736   22.5272 C   0  0  0  0  0  0
  -21.4003   -6.5636   23.8210 C   0  0  0  0  0  0
  -21.3667   -5.6789   24.9164 C   0  0  0  0  0  0
  -21.6060   -4.3055   24.7216 C   0  0  0  0  0  0
  -21.8821   -3.8146   23.4334 C   0  0  0  0  0  0
  -21.9186   -4.6957   22.3396 C   0  0  0  0  0  0
  -22.7873  -13.5220   21.1848 C   0  0  0  0  0  0
  -22.1655   -4.2146   21.0974 F   0  0  0  0  0  0
  -21.5640   -3.4545   25.7733 F   0  0  0  0  0  0
  -30.0525  -13.2431   20.4717 N   0  0  0  0  0  0
  -26.3056  -12.9307   20.3434 N   0  0  0  0  0  0
  -25.9324  -11.6475   20.5811 N   0  0  0  0  0  0
  -22.0517  -12.8214   22.0411 N   0  0  0  0  0  0
  -25.4326  -15.1860   20.4085 N   0  0  0  0  0  0
  -31.8174  -14.6398   20.0631 O   0  0  0  0  0  0
  -21.6635   -6.8871   21.4238 O   0  0  0  0  0  0
  -22.3566  -14.5537   20.6712 O   0  0  0  0  0  0
  -24.6057  -31.8690   23.2102 C   0  0  0  0  0  0
  -25.8971  -32.4825   23.8397 C   0  0  1  0  0  0
  -27.2693  -27.4822   20.1124 C   0  0  0  0  0  0
  -25.5847  -33.8617   24.2333 N   0  0  0  0  0  0
  -23.3932  -30.4905   21.5446 C   0  0  2  0  0  0
  -24.8504  -28.9556   20.1190 C   0  0  0  0  0  0
  -22.7377  -29.4653   22.4964 C   0  0  0  0  0  0
  -18.0264  -28.1380   22.8516 C   0  0  0  0  0  0
  -24.1488  -36.7330   23.2636 C   0  0  0  0  0  0
  -25.9108  -30.8556   21.3517 C   0  0  0  0  0  0
  -25.9953  -29.4841   20.7220 C   0  0  0  0  0  0
  -27.1984  -28.7525   20.7365 C   0  0  0  0  0  0
  -26.1051  -26.9632   19.5062 C   0  0  0  0  0  0
  -24.8960  -27.6868   19.5121 C   0  0  0  0  0  0
  -23.6041  -29.8111   20.1623 C   0  0  0  0  0  0
  -25.4098  -36.3113   24.0349 C   0  0  1  0  0  0
  -20.5858  -28.3645   23.1342 C   0  0  2  0  0  0
  -20.6761  -26.9381   22.5426 C   0  0  0  0  0  0
  -19.5744  -26.6393   21.5218 C   0  0  0  0  0  0
  -18.1922  -26.7936   22.1627 C   0  0  0  0  0  0
  -19.1518  -28.8827   23.2934 C   0  0  0  0  0  0
  -18.9449  -30.1452   23.8920 C   0  0  0  0  0  0
  -17.6456  -30.6586   24.0593 C   0  0  0  0  0  0
  -25.9016  -34.9479   23.5144 C   0  0  0  0  0  0
  -16.5344  -29.9107   23.6334 C   0  0  0  0  0  0
  -16.7260  -28.6530   23.0337 C   0  0  0  0  0  0
  -26.4439  -31.6589   25.0687 C   0  0  0  0  0  0
  -25.3729  -31.3723   26.1465 C   0  0  0  0  0  0
  -27.0259  -30.3048   24.5986 C   0  0  0  0  0  0
  -27.6023  -32.4303   25.7453 C   0  0  0  0  0  0
  -27.5590  -37.1815   24.8462 C   0  0  0  0  0  0
  -21.4103  -29.3025   22.3741 N   0  0  0  0  0  0
  -26.4286  -37.3790   23.9413 N   0  0  0  0  0  0
  -24.6544  -31.0859   22.0957 N   0  0  0  0  0  0
  -23.4185  -28.8187   23.2968 O   0  0  0  0  0  0
  -28.4174  -26.7174   20.0387 O   0  0  0  0  0  0
  -26.5578  -34.8924   22.4707 O   0  0  0  0  0  0
  -23.5271  -32.1400   23.7550 O   0  0  0  0  0  0
  -31.3142  -18.2147   21.5018 C   0  0  0  0  0  0
  -29.4554  -19.0950   20.2360 C   0  0  0  0  0  0
  -30.1690  -17.9838   20.7120 C   0  0  0  0  0  0
  -31.7085  -19.5514   21.7480 C   0  0  0  0  0  0
  -30.9381  -20.6009   21.1899 C   0  0  0  0  0  0
  -31.6624  -22.6539   19.9031 C   0  0  0  0  0  0
  -30.1873  -22.8993   21.9621 C   0  0  0  0  0  0
  -31.8503  -24.1787   19.9206 C   0  0  0  0  0  0
  -30.4704  -24.4094   21.9279 C   0  0  0  0  0  0
  -31.3113  -22.0815   21.2941 C   0  0  1  0  0  0
  -32.9590  -19.8290   22.5690 C   0  0  0  0  0  0
  -29.7118  -16.6113   20.2327 C   0  0  0  0  0  0
  -30.8053  -26.3492   20.3822 C   0  0  0  0  0  0
  -29.5547  -27.1469   20.7885 C   0  0  0  0  0  0
  -29.8261  -20.3648   20.4646 N   0  0  0  0  0  0
  -29.9785  -15.4337   21.0606 N   0  0  0  0  0  0
  -30.6867  -24.8735   20.5319 N   0  3  1  0  0  0
  -31.4673  -12.3614   19.1305 H   0  0  0  0  0  0
  -30.3080  -11.2578   19.8115 H   0  0  0  0  0  0
  -29.7261  -11.7905   17.4237 H   0  0  0  0  0  0
  -29.6670  -13.4950   17.7993 H   0  0  0  0  0  0
  -27.8231  -11.3086   18.8242 H   0  0  0  0  0  0
  -27.3614  -12.6420   17.8016 H   0  0  0  0  0  0
  -27.7173  -14.2476   19.5984 H   0  0  0  0  0  0
  -28.6638  -11.9286   21.3592 H   0  0  0  0  0  0
  -28.4731  -13.5657   21.8900 H   0  0  0  0  0  0
  -25.2739   -9.5681   22.4749 H   0  0  0  0  0  0
  -24.0011   -7.4621   22.7453 H   0  0  0  0  0  0
  -21.0826   -8.8753   19.8931 H   0  0  0  0  0  0
  -22.3679  -10.9664   19.6157 H   0  0  0  0  0  0
  -21.1993   -7.6143   23.9708 H   0  0  0  0  0  0
  -21.1491   -6.0514   25.9073 H   0  0  0  0  0  0
  -22.0597   -2.7612   23.2824 H   0  0  0  0  0  0
  -22.4148  -11.9866   22.4780 H   0  0  0  0  0  0
  -21.1133  -13.1230   22.2630 H   0  0  0  0  0  0
  -24.6627  -15.8386   20.5127 H   0  0  0  0  0  0
  -26.2859  -15.6268   20.0922 H   0  0  0  0  0  0
  -26.7048  -32.5580   23.1185 H   0  0  0  0  0  0
  -25.0041  -33.9787   25.0515 H   0  0  0  0  0  0
  -22.6789  -31.3036   21.4000 H   0  0  0  0  0  0
  -23.3733  -35.9681   23.3294 H   0  0  0  0  0  0
  -24.3599  -36.8938   22.2051 H   0  0  0  0  0  0
  -23.7264  -37.6550   23.6641 H   0  0  0  0  0  0
  -25.9955  -31.6075   20.5658 H   0  0  0  0  0  0
  -26.8074  -30.9385   21.9518 H   0  0  0  0  0  0
  -28.0500  -29.1978   21.2269 H   0  0  0  0  0  0
  -26.1397  -25.9953   19.0255 H   0  0  0  0  0  0
  -24.0153  -27.2714   19.0415 H   0  0  0  0  0  0
  -23.7019  -30.5756   19.3906 H   0  0  0  0  0  0
  -22.7353  -29.2156   19.8763 H   0  0  0  0  0  0
  -25.1278  -36.1984   25.0842 H   0  0  0  0  0  0
  -20.9979  -28.3211   24.1453 H   0  0  0  0  0  0
  -20.5687  -26.2232   23.3604 H   0  0  0  0  0  0
  -21.6626  -26.7453   22.1193 H   0  0  0  0  0  0
  -19.6895  -25.6318   21.1211 H   0  0  0  0  0  0
  -19.6688  -27.3243   20.6782 H   0  0  0  0  0  0
  -17.4196  -26.6715   21.4012 H   0  0  0  0  0  0
  -18.0305  -26.0069   22.9011 H   0  0  0  0  0  0
  -19.7924  -30.7281   24.2265 H   0  0  0  0  0  0
  -17.5008  -31.6259   24.5208 H   0  0  0  0  0  0
  -15.5353  -30.3022   23.7627 H   0  0  0  0  0  0
  -15.8664  -28.0879   22.6993 H   0  0  0  0  0  0
  -24.5872  -30.7082   25.7845 H   0  0  0  0  0  0
  -24.8947  -32.2901   26.4899 H   0  0  0  0  0  0
  -25.8093  -30.8919   27.0229 H   0  0  0  0  0  0
  -26.2786  -29.6828   24.1034 H   0  0  0  0  0  0
  -27.4087  -29.7237   25.4387 H   0  0  0  0  0  0
  -27.8583  -30.4410   23.9075 H   0  0  0  0  0  0
  -27.2627  -33.3577   26.2082 H   0  0  0  0  0  0
  -28.3807  -32.6908   25.0267 H   0  0  0  0  0  0
  -28.0715  -31.8394   26.5333 H   0  0  0  0  0  0
  -28.2595  -38.0125   24.7509 H   0  0  0  0  0  0
  -28.1101  -36.2656   24.6275 H   0  0  0  0  0  0
  -27.2318  -37.1451   25.8869 H   0  0  0  0  0  0
  -20.9234  -29.8743   21.6985 H   0  0  0  0  0  0
  -26.0187  -38.2874   24.1400 H   0  0  0  0  0  0
  -31.9019  -17.3894   21.8779 H   0  0  0  0  0  0
  -28.5788  -18.9655   19.6172 H   0  0  0  0  0  0
  -32.5686  -22.1759   19.5270 H   0  0  0  0  0  0
  -30.8796  -22.4131   19.1829 H   0  0  0  0  0  0
  -29.2378  -22.7159   21.4589 H   0  0  0  0  0  0
  -30.0530  -22.5683   22.9921 H   0  0  0  0  0  0
  -31.9962  -24.5242   18.8956 H   0  0  0  0  0  0
  -32.7601  -24.4386   20.4653 H   0  0  0  0  0  0
  -31.3437  -24.6487   22.5368 H   0  0  0  0  0  0
  -29.6209  -24.9204   22.3792 H   0  0  0  0  0  0
  -32.1950  -22.1981   21.9197 H   0  0  0  0  0  0
  -33.4301  -18.9088   22.9191 H   0  0  0  0  0  0
  -32.7160  -20.4308   23.4455 H   0  0  0  0  0  0
  -33.6940  -20.3720   21.9732 H   0  0  0  0  0  0
  -30.1144  -16.4774   19.2255 H   0  0  0  0  0  0
  -28.6298  -16.6509   20.0979 H   0  0  0  0  0  0
  -31.6637  -26.7057   20.9536 H   0  0  0  0  0  0
  -31.0140  -26.5798   19.3366 H   0  0  0  0  0  0
  -29.7847  -28.1911   20.5791 H   0  0  0  0  0  0
  -29.3497  -27.0727   21.8582 H   0  0  0  0  0  0
  -29.1860  -15.1293   21.6069 H   0  0  0  0  0  0
  -29.8691  -24.6025   20.0011 H   0  0  0  0  0  0
  1 25  1  0  0  0
  1 30  2  0  0  0
  1 86  1  0  0  0
  2  3  1  0  0  0
  2 25  1  0  0  0
  2 88  1  0  0  0
  2 89  1  0  0  0
  3  4  1  0  0  0
  3 90  1  0  0  0
  3 91  1  0  0  0
  4  5  1  0  0  0
  4 92  1  0  0  0
  4 93  1  0  0  0
  5  6  1  0  0  0
  5 26  1  0  0  0
  5 94  1  0  0  0
  6 25  1  0  0  0
  6 95  1  0  0  0
  6 96  1  0  0  0
  7  8  2  0  0  0
  7 26  1  0  0  0
  7 29  1  0  0  0
  8  9  1  0  0  0
  8 22  1  0  0  0
  9 10  1  0  0  0
  9 27  2  0  0  0
 10 11  2  0  0  0
 10 15  1  0  0  0
 11 12  1  0  0  0
 11 97  1  0  0  0
 12 13  2  0  0  0
 12 98  1  0  0  0
 13 14  1  0  0  0
 13 31  1  0  0  0
 14 15  2  0  0  0
 14 99  1  0  0  0
 15100  1  0  0  0
 16 17  2  0  0  0
 16 21  1  0  0  0
 16 31  1  0  0  0
 17 18  1  0  0  0
 17101  1  0  0  0
 18 19  2  0  0  0
 18102  1  0  0  0
 19 20  1  0  0  0
 19 24  1  0  0  0
 20 21  2  0  0  0
 20103  1  0  0  0
 21 23  1  0  0  0
 22 28  1  0  0  0
 22 32  2  0  0  0
 26 27  1  0  0  0
 28104  1  0  0  0
 28105  1  0  0  0
 29106  1  0  0  0
 29107  1  0  0  0
 33 34  1  0  0  0
 33 66  1  0  0  0
 33 70  2  0  0  0
 34 36  1  0  0  0
 34 59  1  0  0  0
 34108  1  0  0  0
 35 44  2  0  0  0
 35 45  1  0  0  0
 35 68  1  0  0  0
 36 56  1  0  0  0
 36109  1  0  0  0
 37 39  1  0  0  0
 37 47  1  0  0  0
 37 66  1  0  0  0
 37110  1  0  0  0
 38 43  2  0  0  0
 38 46  1  0  0  0
 38 47  1  0  0  0
 39 64  1  0  0  0
 39 67  2  0  0  0
 40 52  1  0  0  0
 40 53  2  0  0  0
 40 58  1  0  0  0
 41111  1  0  0  0
 41112  1  0  0  0
 41113  1  0  0  0
 41 48  1  0  0  0
 42 43  1  0  0  0
 42 66  1  0  0  0
 42114  1  0  0  0
 42115  1  0  0  0
 43 44  1  0  0  0
 44116  1  0  0  0
 45 46  2  0  0  0
 45117  1  0  0  0
 46118  1  0  0  0
 47119  1  0  0  0
 47120  1  0  0  0
 48 56  1  0  0  0
 48 65  1  0  0  0
 48121  1  0  0  0
 49 50  1  0  0  0
 49 53  1  0  0  0
 49 64  1  0  0  0
 49122  1  0  0  0
 50 51  1  0  0  0
 50123  1  0  0  0
 50124  1  0  0  0
 51 52  1  0  0  0
 51125  1  0  0  0
 51126  1  0  0  0
 52127  1  0  0  0
 52128  1  0  0  0
 53 54  1  0  0  0
 54 55  2  0  0  0
 54129  1  0  0  0
 55 57  1  0  0  0
 55130  1  0  0  0
 56 69  2  0  0  0
 57 58  2  0  0  0
 57131  1  0  0  0
 58132  1  0  0  0
 59 60  1  0  0  0
 59 61  1  0  0  0
 59 62  1  0  0  0
 60133  1  0  0  0
 60134  1  0  0  0
 60135  1  0  0  0
 61136  1  0  0  0
 61137  1  0  0  0
 61138  1  0  0  0
 62139  1  0  0  0
 62140  1  0  0  0
 62141  1  0  0  0
 63 65  1  0  0  0
 63142  1  0  0  0
 63143  1  0  0  0
 63144  1  0  0  0
 64145  1  0  0  0
 65146  1  0  0  0
 68 84  1  0  0  0
 71 73  2  0  0  0
 71 74  1  0  0  0
 71147  1  0  0  0
 72 73  1  0  0  0
 72 85  2  0  0  0
 72148  1  0  0  0
 73 82  1  0  0  0
 74 75  2  0  0  0
 74 81  1  0  0  0
 75 85  1  0  0  0
 75 80  1  0  0  0
 76 78  1  0  0  0
 76 80  1  0  0  0
 76149  1  0  0  0
 76150  1  0  0  0
 77 79  1  0  0  0
 77 80  1  0  0  0
 77151  1  0  0  0
 77152  1  0  0  0
 78 87  1  0  0  0
 78153  1  0  0  0
 78154  1  0  0  0
 79 87  1  0  0  0
 79155  1  0  0  0
 79156  1  0  0  0
 80157  1  0  0  0
 81158  1  0  0  0
 81159  1  0  0  0
 81160  1  0  0  0
 82 86  1  0  0  0
 82161  1  0  0  0
 82162  1  0  0  0
 83 84  1  0  0  0
 83163  1  0  0  0
 83164  1  0  0  0
 83 87  1  0  0  0
 84165  1  0  0  0
 84166  1  0  0  0
 86167  1  0  0  0
 87168  1  0  0  0
M  CHG  1  87   1
M  ISO  4   1 100  68 101  84 101  86 100
M  END
> <chiral flag>
0

> <version>
0

> <s_m_source_file>
/data/baiqing/PycharmProjects/Reinvent-master-3.2/result/LINK_invent/BTK/process_docking_weight1_custom_sum_contain_oxygen_bond_distance_aromatic_linkinvent_7_9_3/rearranged_h_0151.sdf

> <i_m_source_file_index>
93

> <r_mmod_Potential_Energy-OPLS-2005>
-298.406433105469

> <r_mmod_Stretch_Energy-OPLS-2005>
34.6232032775879

> <r_mmod_Bend_Energy-OPLS-2005>
107.825416564941

> <r_mmod_Torsional_Energy-OPLS-2005>
249.519165039062

> <r_mmod_Improper_Torsional_Energy-OPLS-2005>
9.8493480682373

> <r_mmod_Van_der_Waal_Energy-OPLS-2005>
169.634384155273

> <r_mmod_Electrostatic_Energy-OPLS-2005>
-450.025848388672

> <r_mmod_Solvation_Energy-OPLS-2005>
-427.341339111328

> <b_mmod_Minimization_Converged-OPLS-2005>
0

> <r_mmod_RMS_Derivative-OPLS-2005>
2.607008934021

$$$$
93
                    3D
 Structure written by MMmdl.
165174  0  0  1  0            999 V2000
  -30.5971  -14.6851   20.5381 C   0  0  0  0  0  0
  -30.4481  -12.4174   19.4889 C   0  0  0  0  0  0
  -29.5286  -12.5167   18.2473 C   0  0  0  0  0  0
  -28.0524  -12.3315   18.6479 C   0  0  0  0  0  0
  -27.6628  -13.2070   19.8671 C   0  0  2  0  0  0
  -28.6994  -13.0604   21.0081 C   0  0  0  0  0  0
  -25.2673  -13.8065   20.5769 C   0  0  0  0  0  0
  -24.1907  -13.0363   20.9244 C   0  0  0  0  0  0
  -24.6453  -11.6830   20.8750 C   0  0  0  0  0  0
  -23.9115  -10.4230   21.0425 C   0  0  0  0  0  0
  -24.3673   -9.4135   21.9199 C   0  0  0  0  0  0
  -23.6314   -8.2183   22.0780 C   0  0  0  0  0  0
  -22.4292   -8.0262   21.3572 C   0  0  0  0  0  0
  -21.9934   -9.0234   20.4670 C   0  0  0  0  0  0
  -22.7295  -10.2094   20.3061 C   0  0  0  0  0  0
  -21.6838   -6.0735   22.5325 C   0  0  0  0  0  0
  -21.3988   -6.5637   23.8258 C   0  0  0  0  0  0
  -21.3657   -5.6809   24.9228 C   0  0  0  0  0  0
  -21.6041   -4.3065   24.7285 C   0  0  0  0  0  0
  -21.8800   -3.8151   23.4400 C   0  0  0  0  0  0
  -21.9183   -4.6957   22.3452 C   0  0  0  0  0  0
  -22.7933  -13.5196   21.1866 C   0  0  0  0  0  0
  -22.1662   -4.2144   21.1033 F   0  0  0  0  0  0
  -21.5643   -3.4564   25.7797 F   0  0  0  0  0  0
  -30.0168  -13.4365   20.4758 N   0  0  0  0  0  0
  -26.3047  -12.9243   20.3242 N   0  0  0  0  0  0
  -25.9350  -11.6410   20.5643 N   0  0  0  0  0  0
  -22.0526  -12.8212   22.0395 N   0  0  0  0  0  0
  -25.4569  -15.1811   20.4483 N   0  0  0  0  0  0
  -31.6747  -14.8988   19.9753 O   0  0  0  0  0  0
  -21.6624   -6.8880   21.4283 O   0  0  0  0  0  0
  -22.3677  -14.5538   20.6732 O   0  0  0  0  0  0
  -24.6298  -31.8567   23.2032 C   0  0  0  0  0  0
  -25.9129  -32.4774   23.8357 C   0  0  1  0  0  0
  -27.2259  -27.2827   20.1061 C   0  0  0  0  0  0
  -25.5938  -33.8581   24.2276 N   0  0  0  0  0  0
  -23.4277  -30.4788   21.5477 C   0  0  2  0  0  0
  -24.8758  -28.9409   20.1052 C   0  0  0  0  0  0
  -22.7502  -29.4567   22.4920 C   0  0  0  0  0  0
  -18.0296  -28.1332   22.8461 C   0  0  0  0  0  0
  -24.1501  -36.7283   23.2636 C   0  0  0  0  0  0
  -25.9753  -30.7683   21.3908 C   0  0  0  0  0  0
  -26.0451  -29.3962   20.7267 C   0  0  0  0  0  0
  -27.2169  -28.5759   20.7270 C   0  0  0  0  0  0
  -26.0425  -26.9139   19.4210 C   0  0  0  0  0  0
  -24.8832  -27.7088   19.4391 C   0  0  0  0  0  0
  -23.6448  -29.8242   20.1588 C   0  0  0  0  0  0
  -25.4129  -36.3083   24.0325 C   0  0  1  0  0  0
  -20.5888  -28.3656   23.1301 C   0  0  2  0  0  0
  -20.6800  -26.9387   22.5415 C   0  0  0  0  0  0
  -19.5814  -26.6349   21.5210 C   0  0  0  0  0  0
  -18.1962  -26.7893   22.1566 C   0  0  0  0  0  0
  -19.1534  -28.8830   23.2863 C   0  0  0  0  0  0
  -18.9423  -30.1437   23.8888 C   0  0  0  0  0  0
  -17.6408  -30.6558   24.0507 C   0  0  0  0  0  0
  -25.9071  -34.9454   23.5103 C   0  0  0  0  0  0
  -16.5318  -29.9031   23.6292 C   0  0  0  0  0  0
  -16.7265  -28.6423   23.0345 C   0  0  0  0  0  0
  -26.4507  -31.6601   25.0752 C   0  0  0  0  0  0
  -25.3705  -31.3751   26.1453 C   0  0  0  0  0  0
  -27.0364  -30.3018   24.6257 C   0  0  0  0  0  0
  -27.6086  -32.4323   25.7515 C   0  0  0  0  0  0
  -27.5589  -37.1809   24.8467 C   0  0  0  0  0  0
  -21.4196  -29.3012   22.3689 N   0  0  0  0  0  0
  -26.4299  -37.3784   23.9407 N   0  0  0  0  0  0
  -24.6968  -31.0522   22.1031 N   0  0  0  0  0  0
  -23.4213  -28.8084   23.2992 O   0  0  0  0  0  0
  -28.3250  -26.3938   20.1865 O   0  0  0  0  0  0
  -26.5628  -34.8918   22.4675 O   0  0  0  0  0  0
  -23.5441  -32.1375   23.7326 O   0  0  0  0  0  0
  -29.4795  -20.7038   21.2547 C   0  0  0  0  0  0
  -29.2911  -18.7733   19.2259 C   0  0  0  0  0  0
  -29.5930  -19.3000   21.5518 C   0  0  0  0  0  0
  -29.4613  -18.2903   20.5480 C   0  0  0  0  0  0
  -29.1546  -20.1668   18.9334 C   0  0  0  0  0  0
  -29.2185  -21.1791   19.9395 C   0  0  0  0  0  0
  -29.7384  -18.8428   22.9954 C   0  0  0  0  0  0
  -28.8298  -17.6426   23.3514 C   0  0  0  0  0  0
  -29.0409  -16.8091   20.9366 C   0  0  2  0  0  0
  -28.0653  -17.0433   22.1408 C   0  0  1  0  0  0
  -27.5522  -20.7854   17.3391 C   0  0  0  0  0  0
  -28.1896  -24.9678   19.7387 C   0  0  0  0  0  0
  -28.9842  -23.7260   20.3921 C   0  0  0  0  0  0
  -29.9847  -15.6623   21.2874 N   0  0  0  0  0  0
  -27.2496  -15.8803   22.5459 N   0  3  0  0  0  0
  -28.9216  -20.5254   17.6312 O   0  0  0  0  0  0
  -28.9977  -22.5243   19.5353 O   0  0  0  0  0  0
  -31.4952  -12.5413   19.2044 H   0  0  0  0  0  0
  -30.3830  -11.4216   19.9317 H   0  0  0  0  0  0
  -29.8123  -11.7715   17.5014 H   0  0  0  0  0  0
  -29.6589  -13.4914   17.7720 H   0  0  0  0  0  0
  -27.9144  -11.2770   18.8950 H   0  0  0  0  0  0
  -27.3977  -12.5453   17.8030 H   0  0  0  0  0  0
  -27.6837  -14.2410   19.5208 H   0  0  0  0  0  0
  -28.7175  -12.0317   21.3704 H   0  0  0  0  0  0
  -28.4307  -13.6541   21.8765 H   0  0  0  0  0  0
  -25.2858   -9.5581   22.4731 H   0  0  0  0  0  0
  -24.0031   -7.4559   22.7488 H   0  0  0  0  0  0
  -21.0863   -8.8756   19.8991 H   0  0  0  0  0  0
  -22.3789  -10.9620   19.6139 H   0  0  0  0  0  0
  -21.1947   -7.6156   23.9756 H   0  0  0  0  0  0
  -21.1500   -6.0550   25.9133 H   0  0  0  0  0  0
  -22.0567   -2.7604   23.2927 H   0  0  0  0  0  0
  -22.3991  -11.9734   22.4661 H   0  0  0  0  0  0
  -21.1202  -13.1341   22.2647 H   0  0  0  0  0  0
  -24.5612  -15.6623   20.4193 H   0  0  0  0  0  0
  -25.9834  -15.4238   19.6153 H   0  0  0  0  0  0
  -26.7193  -32.5427   23.1088 H   0  0  0  0  0  0
  -25.0125  -33.9757   25.0444 H   0  0  0  0  0  0
  -22.7210  -31.3002   21.4102 H   0  0  0  0  0  0
  -23.3780  -35.9603   23.3312 H   0  0  0  0  0  0
  -24.3583  -36.8891   22.2046 H   0  0  0  0  0  0
  -23.7224  -37.6478   23.6651 H   0  0  0  0  0  0
  -26.1256  -31.5332   20.6270 H   0  0  0  0  0  0
  -26.8471  -30.8049   22.0344 H   0  0  0  0  0  0
  -28.1055  -28.9205   21.2374 H   0  0  0  0  0  0
  -25.9751  -26.0033   18.8474 H   0  0  0  0  0  0
  -24.0043  -27.3702   18.9086 H   0  0  0  0  0  0
  -23.7695  -30.6111   19.4133 H   0  0  0  0  0  0
  -22.7632  -29.2583   19.8497 H   0  0  0  0  0  0
  -25.1314  -36.1952   25.0810 H   0  0  0  0  0  0
  -20.9953  -28.3255   24.1423 H   0  0  0  0  0  0
  -21.6684  -26.7462   22.1244 H   0  0  0  0  0  0
  -20.5723  -26.2243   23.3603 H   0  0  0  0  0  0
  -19.6965  -25.6253   21.1259 H   0  0  0  0  0  0
  -19.6802  -27.3117   20.6719 H   0  0  0  0  0  0
  -17.4262  -26.6660   21.3927 H   0  0  0  0  0  0
  -18.0280  -25.9992   22.8902 H   0  0  0  0  0  0
  -19.7876  -30.7274   24.2287 H   0  0  0  0  0  0
  -17.4941  -31.6270   24.5047 H   0  0  0  0  0  0
  -15.5310  -30.2915   23.7600 H   0  0  0  0  0  0
  -15.8673  -28.0742   22.7050 H   0  0  0  0  0  0
  -24.5897  -30.7098   25.7749 H   0  0  0  0  0  0
  -24.8877  -32.2917   26.4842 H   0  0  0  0  0  0
  -25.7975  -30.8930   27.0249 H   0  0  0  0  0  0
  -26.2963  -29.6755   24.1266 H   0  0  0  0  0  0
  -27.4022  -29.7295   25.4787 H   0  0  0  0  0  0
  -27.8851  -30.4303   23.9538 H   0  0  0  0  0  0
  -27.2738  -33.3635   26.2096 H   0  0  0  0  0  0
  -28.3890  -32.6848   25.0326 H   0  0  0  0  0  0
  -28.0766  -31.8434   26.5410 H   0  0  0  0  0  0
  -28.2617  -38.0101   24.7522 H   0  0  0  0  0  0
  -28.1072  -36.2633   24.6296 H   0  0  0  0  0  0
  -27.2308  -37.1458   25.8870 H   0  0  0  0  0  0
  -20.9352  -29.8700   21.6880 H   0  0  0  0  0  0
  -26.0191  -38.2866   24.1408 H   0  0  0  0  0  0
  -29.5365  -21.4158   22.0648 H   0  0  0  0  0  0
  -29.1499  -18.0639   18.4200 H   0  0  0  0  0  0
  -29.5588  -19.6690   23.6880 H   0  0  0  0  0  0
  -30.7811  -18.5579   23.1392 H   0  0  0  0  0  0
  -28.1182  -17.9591   24.1160 H   0  0  0  0  0  0
  -29.4424  -16.8777   23.8305 H   0  0  0  0  0  0
  -28.4490  -16.4511   20.0933 H   0  0  0  0  0  0
  -27.3250  -17.7855   21.8284 H   0  0  0  0  0  0
  -27.4554  -21.0909   16.2958 H   0  0  0  0  0  0
  -27.1380  -21.5837   17.9574 H   0  0  0  0  0  0
  -26.9392  -19.8940   17.4775 H   0  0  0  0  0  0
  -27.1536  -24.6383   19.7891 H   0  0  0  0  0  0
  -28.4395  -24.9833   18.6776 H   0  0  0  0  0  0
  -28.5435  -23.4771   21.3569 H   0  0  0  0  0  0
  -30.0196  -24.0183   20.5740 H   0  0  0  0  0  0
  -29.8024  -15.3039   22.2086 H   0  0  0  0  0  0
  -26.7216  -16.1173   23.3687 H   0  0  0  0  0  0
  -27.7846  -15.0594   22.7509 H   0  0  0  0  0  0
  -26.5673  -15.6617   21.8174 H   0  0  0  0  0  0
  1 25  1  0  0  0
  1 30  2  0  0  0
  1 84  1  0  0  0
  2  3  1  0  0  0
  2 25  1  0  0  0
  2 88  1  0  0  0
  2 89  1  0  0  0
  3  4  1  0  0  0
  3 90  1  0  0  0
  3 91  1  0  0  0
  4  5  1  0  0  0
  4 92  1  0  0  0
  4 93  1  0  0  0
  5  6  1  0  0  0
  5 26  1  0  0  0
  5 94  1  0  0  0
  6 25  1  0  0  0
  6 95  1  0  0  0
  6 96  1  0  0  0
  7  8  2  0  0  0
  7 26  1  0  0  0
  7 29  1  0  0  0
  8  9  1  0  0  0
  8 22  1  0  0  0
  9 10  1  0  0  0
  9 27  2  0  0  0
 10 11  2  0  0  0
 10 15  1  0  0  0
 11 12  1  0  0  0
 11 97  1  0  0  0
 12 13  2  0  0  0
 12 98  1  0  0  0
 13 14  1  0  0  0
 13 31  1  0  0  0
 14 15  2  0  0  0
 14 99  1  0  0  0
 15100  1  0  0  0
 16 17  2  0  0  0
 16 21  1  0  0  0
 16 31  1  0  0  0
 17 18  1  0  0  0
 17101  1  0  0  0
 18 19  2  0  0  0
 18102  1  0  0  0
 19 20  1  0  0  0
 19 24  1  0  0  0
 20 21  2  0  0  0
 20103  1  0  0  0
 21 23  1  0  0  0
 22 28  1  0  0  0
 22 32  2  0  0  0
 26 27  1  0  0  0
 28104  1  0  0  0
 28105  1  0  0  0
 29106  1  0  0  0
 29107  1  0  0  0
 33 34  1  0  0  0
 33 66  1  0  0  0
 33 70  2  0  0  0
 34 36  1  0  0  0
 34 59  1  0  0  0
 34108  1  0  0  0
 35 44  2  0  0  0
 35 45  1  0  0  0
 35 68  1  0  0  0
 36 56  1  0  0  0
 36109  1  0  0  0
 37 39  1  0  0  0
 37 47  1  0  0  0
 37 66  1  0  0  0
 37110  1  0  0  0
 38 43  2  0  0  0
 38 46  1  0  0  0
 38 47  1  0  0  0
 39 64  1  0  0  0
 39 67  2  0  0  0
 40 52  1  0  0  0
 40 53  2  0  0  0
 40 58  1  0  0  0
 41111  1  0  0  0
 41112  1  0  0  0
 41113  1  0  0  0
 41 48  1  0  0  0
 42 43  1  0  0  0
 42 66  1  0  0  0
 42114  1  0  0  0
 42115  1  0  0  0
 43 44  1  0  0  0
 44116  1  0  0  0
 45 46  2  0  0  0
 45117  1  0  0  0
 46118  1  0  0  0
 47119  1  0  0  0
 47120  1  0  0  0
 48 56  1  0  0  0
 48 65  1  0  0  0
 48121  1  0  0  0
 49 50  1  0  0  0
 49 53  1  0  0  0
 49 64  1  0  0  0
 49122  1  0  0  0
 50 51  1  0  0  0
 50123  1  0  0  0
 50124  1  0  0  0
 51 52  1  0  0  0
 51125  1  0  0  0
 51126  1  0  0  0
 52127  1  0  0  0
 52128  1  0  0  0
 53 54  1  0  0  0
 54 55  2  0  0  0
 54129  1  0  0  0
 55 57  1  0  0  0
 55130  1  0  0  0
 56 69  2  0  0  0
 57 58  2  0  0  0
 57131  1  0  0  0
 58132  1  0  0  0
 59 60  1  0  0  0
 59 61  1  0  0  0
 59 62  1  0  0  0
 60133  1  0  0  0
 60134  1  0  0  0
 60135  1  0  0  0
 61136  1  0  0  0
 61137  1  0  0  0
 61138  1  0  0  0
 62139  1  0  0  0
 62140  1  0  0  0
 62141  1  0  0  0
 63 65  1  0  0  0
 63142  1  0  0  0
 63143  1  0  0  0
 63144  1  0  0  0
 64145  1  0  0  0
 65146  1  0  0  0
 68 82  1  0  0  0
 71 73  2  0  0  0
 71 76  1  0  0  0
 71147  1  0  0  0
 72 74  2  0  0  0
 72 75  1  0  0  0
 72148  1  0  0  0
 73 74  1  0  0  0
 73 77  1  0  0  0
 74 79  1  0  0  0
 75 76  2  0  0  0
 75 86  1  0  0  0
 76 87  1  0  0  0
 77 78  1  0  0  0
 77149  1  0  0  0
 77150  1  0  0  0
 78 80  1  0  0  0
 78151  1  0  0  0
 78152  1  0  0  0
 79 80  1  0  0  0
 79 84  1  0  0  0
 79153  1  0  0  0
 80 85  1  0  0  0
 80154  1  0  0  0
 81 86  1  0  0  0
 81155  1  0  0  0
 81156  1  0  0  0
 81157  1  0  0  0
 82 83  1  0  0  0
 82158  1  0  0  0
 82159  1  0  0  0
 83 87  1  0  0  0
 83160  1  0  0  0
 83161  1  0  0  0
 84162  1  0  0  0
 85163  1  0  0  0
 85164  1  0  0  0
 85165  1  0  0  0
M  CHG  1  85   1
M  ISO  4   1 100  68 101  82 101  84 100
M  END
> <chiral flag>
0

> <version>
0

> <s_m_source_file>
/data/baiqing/PycharmProjects/Reinvent-master-3.2/result/LINK_invent/BTK/process_docking_weight1_custom_sum_contain_oxygen_bond_distance_aromatic_linkinvent_7_9_3/rearranged_h_0151.sdf

> <i_m_source_file_index>
94

> <r_mmod_Potential_Energy-OPLS-2005>
-45.9222640991211

> <r_mmod_Stretch_Energy-OPLS-2005>
107.629318237305

> <r_mmod_Bend_Energy-OPLS-2005>
205.178283691406

> <r_mmod_Torsional_Energy-OPLS-2005>
375.195159912109

> <r_mmod_Improper_Torsional_Energy-OPLS-2005>
15.4844923019409

> <r_mmod_Van_der_Waal_Energy-OPLS-2005>
151.49739074707

> <r_mmod_Electrostatic_Energy-OPLS-2005>
-440.788879394531

> <r_mmod_Solvation_Energy-OPLS-2005>
-530.542114257812

> <b_mmod_Minimization_Converged-OPLS-2005>
0

> <r_mmod_RMS_Derivative-OPLS-2005>
4.39587688446045

$$$$
94
                    3D
 Structure written by MMmdl.
170179  0  0  1  0            999 V2000
  -30.6684  -14.5768   20.5024 C   0  0  0  0  0  0
  -30.4127  -12.3530   19.4464 C   0  0  0  0  0  0
  -29.4940  -12.4979   18.2155 C   0  0  0  0  0  0
  -28.0164  -12.3460   18.6287 C   0  0  0  0  0  0
  -27.6465  -13.2182   19.8596 C   0  0  2  0  0  0
  -28.6882  -13.0649   20.9863 C   0  0  0  0  0  0
  -25.2520  -13.8175   20.5676 C   0  0  0  0  0  0
  -24.1802  -13.0441   20.9186 C   0  0  0  0  0  0
  -24.6374  -11.6905   20.8753 C   0  0  0  0  0  0
  -23.9052  -10.4287   21.0416 C   0  0  0  0  0  0
  -24.3609   -9.4201   21.9191 C   0  0  0  0  0  0
  -23.6290   -8.2235   22.0756 C   0  0  0  0  0  0
  -22.4275   -8.0274   21.3542 C   0  0  0  0  0  0
  -21.9908   -9.0247   20.4644 C   0  0  0  0  0  0
  -22.7231  -10.2129   20.3057 C   0  0  0  0  0  0
  -21.6849   -6.0735   22.5282 C   0  0  0  0  0  0
  -21.4014   -6.5639   23.8216 C   0  0  0  0  0  0
  -21.3662   -5.6792   24.9178 C   0  0  0  0  0  0
  -21.6042   -4.3056   24.7227 C   0  0  0  0  0  0
  -21.8820   -3.8148   23.4350 C   0  0  0  0  0  0
  -21.9190   -4.6963   22.3406 C   0  0  0  0  0  0
  -22.7824  -13.5225   21.1867 C   0  0  0  0  0  0
  -22.1658   -4.2148   21.0983 F   0  0  0  0  0  0
  -21.5628   -3.4540   25.7742 F   0  0  0  0  0  0
  -29.9986  -13.3887   20.4129 N   0  0  0  0  0  0
  -26.2947  -12.9364   20.3318 N   0  0  0  0  0  0
  -25.9297  -11.6515   20.5763 N   0  0  0  0  0  0
  -22.0476  -12.8207   22.0416 N   0  0  0  0  0  0
  -25.4248  -15.1891   20.4063 N   0  0  0  0  0  0
  -31.8624  -14.6445   20.1869 O   0  0  0  0  0  0
  -21.6635   -6.8878   21.4243 O   0  0  0  0  0  0
  -22.3501  -14.5533   20.6717 O   0  0  0  0  0  0
  -24.6170  -31.8642   23.2061 C   0  0  0  0  0  0
  -25.9051  -32.4809   23.8370 C   0  0  1  0  0  0
  -27.2324  -27.3892   20.1046 C   0  0  0  0  0  0
  -25.5905  -33.8612   24.2308 N   0  0  0  0  0  0
  -23.4099  -30.4819   21.5482 C   0  0  2  0  0  0
  -24.8597  -28.9383   20.1193 C   0  0  0  0  0  0
  -22.7445  -29.4619   22.5004 C   0  0  0  0  0  0
  -18.0275  -28.1356   22.8492 C   0  0  0  0  0  0
  -24.1500  -36.7305   23.2639 C   0  0  0  0  0  0
  -25.9421  -30.8128   21.3700 C   0  0  0  0  0  0
  -26.0206  -29.4406   20.7212 C   0  0  0  0  0  0
  -27.2139  -28.6731   20.7095 C   0  0  0  0  0  0
  -26.0558  -26.9064   19.5030 C   0  0  0  0  0  0
  -24.8720  -27.6709   19.5090 C   0  0  0  0  0  0
  -23.6228  -29.8087   20.1654 C   0  0  0  0  0  0
  -25.4121  -36.3106   24.0337 C   0  0  1  0  0  0
  -20.5861  -28.3650   23.1318 C   0  0  2  0  0  0
  -20.6771  -26.9385   22.5411 C   0  0  0  0  0  0
  -19.5753  -26.6367   21.5206 C   0  0  0  0  0  0
  -18.1926  -26.7904   22.1612 C   0  0  0  0  0  0
  -19.1518  -28.8822   23.2898 C   0  0  0  0  0  0
  -18.9455  -30.1431   23.8903 C   0  0  0  0  0  0
  -17.6461  -30.6574   24.0546 C   0  0  0  0  0  0
  -25.9055  -34.9477   23.5129 C   0  0  0  0  0  0
  -16.5347  -29.9065   23.6325 C   0  0  0  0  0  0
  -16.7269  -28.6478   23.0352 C   0  0  0  0  0  0
  -26.4467  -31.6598   25.0717 C   0  0  0  0  0  0
  -25.3718  -31.3711   26.1459 C   0  0  0  0  0  0
  -27.0308  -30.3033   24.6126 C   0  0  0  0  0  0
  -27.6033  -32.4334   25.7480 C   0  0  0  0  0  0
  -27.5606  -37.1804   24.8468 C   0  0  0  0  0  0
  -21.4167  -29.3010   22.3735 N   0  0  0  0  0  0
  -26.4315  -37.3783   23.9421 N   0  0  0  0  0  0
  -24.6746  -31.0696   22.0988 N   0  0  0  0  0  0
  -23.4195  -28.8177   23.3080 O   0  0  0  0  0  0
  -28.3697  -26.6055   20.0442 O   0  0  0  0  0  0
  -26.5609  -34.8927   22.4687 O   0  0  0  0  0  0
  -23.5356  -32.1406   23.7421 O   0  0  0  0  0  0
  -29.1129  -21.8820   20.0819 C   0  0  0  0  0  0
  -27.1092  -23.5084   21.1642 C   0  0  0  0  0  0
  -29.3087  -23.2901   20.1894 C   0  0  0  0  0  0
  -27.9243  -21.2567   20.5363 C   0  0  0  0  0  0
  -28.3078  -24.1260   20.7582 C   0  0  0  0  0  0
  -26.9015  -22.1027   21.0584 C   0  0  0  0  0  0
  -29.2424  -17.8780   19.2791 C   0  0  0  0  0  0
  -28.4349  -17.5180   21.5702 C   0  0  0  0  0  0
  -30.3227  -16.7916   19.5370 C   0  0  0  0  0  0
  -29.5044  -16.3886   21.7562 C   0  0  0  0  0  0
  -28.8135  -18.6443   20.5590 C   0  0  0  0  0  0
  -30.6210  -23.8882   19.7184 C   0  0  0  0  0  0
  -26.8044  -19.5121   19.0996 C   0  0  0  0  0  0
  -24.6048  -22.3470   21.7506 C   0  0  0  0  0  0
  -28.5277  -25.6282   21.0969 C   0  0  0  0  0  0
  -27.6485  -19.7235   20.3699 C   0  0  2  0  0  0
  -29.9157  -15.7323   20.4953 N   0  0  0  0  0  0
  -25.7177  -21.5110   21.4512 O   0  0  0  0  0  0
  -31.4592  -12.4410   19.1513 H   0  0  0  0  0  0
  -30.3119  -11.3589   19.8854 H   0  0  0  0  0  0
  -29.7497  -11.7545   17.4585 H   0  0  0  0  0  0
  -29.6485  -13.4747   17.7528 H   0  0  0  0  0  0
  -27.8482  -11.2937   18.8605 H   0  0  0  0  0  0
  -27.3610  -12.5795   17.7894 H   0  0  0  0  0  0
  -27.6679  -14.2560   19.5253 H   0  0  0  0  0  0
  -28.6876  -12.0438   21.3702 H   0  0  0  0  0  0
  -28.4410  -13.7014   21.8333 H   0  0  0  0  0  0
  -25.2756   -9.5678   22.4768 H   0  0  0  0  0  0
  -23.9999   -7.4624   22.7472 H   0  0  0  0  0  0
  -21.0838   -8.8761   19.8944 H   0  0  0  0  0  0
  -22.3693  -10.9667   19.6164 H   0  0  0  0  0  0
  -21.2012   -7.6150   23.9720 H   0  0  0  0  0  0
  -21.1483   -6.0525   25.9081 H   0  0  0  0  0  0
  -22.0600   -2.7609   23.2851 H   0  0  0  0  0  0
  -22.4099  -11.9856   22.4784 H   0  0  0  0  0  0
  -21.1102  -13.1234   22.2655 H   0  0  0  0  0  0
  -24.6624  -15.8481   20.5129 H   0  0  0  0  0  0
  -26.2866  -15.6205   20.1011 H   0  0  0  0  0  0
  -26.7117  -32.5505   23.1126 H   0  0  0  0  0  0
  -25.0069  -33.9749   25.0465 H   0  0  0  0  0  0
  -22.6993  -31.2986   21.4050 H   0  0  0  0  0  0
  -23.3774  -35.9633   23.3307 H   0  0  0  0  0  0
  -24.3582  -36.8914   22.2052 H   0  0  0  0  0  0
  -23.7244  -37.6510   23.6652 H   0  0  0  0  0  0
  -26.0647  -31.5783   20.6003 H   0  0  0  0  0  0
  -26.8236  -30.8601   21.9991 H   0  0  0  0  0  0
  -28.1154  -29.0578   21.1664 H   0  0  0  0  0  0
  -26.0578  -25.9332   19.0308 H   0  0  0  0  0  0
  -23.9784  -27.2753   19.0467 H   0  0  0  0  0  0
  -23.7361  -30.5792   19.4032 H   0  0  0  0  0  0
  -22.7473  -29.2286   19.8716 H   0  0  0  0  0  0
  -25.1288  -36.1982   25.0827 H   0  0  0  0  0  0
  -20.9918  -28.3211   24.1448 H   0  0  0  0  0  0
  -20.5683  -26.2244   23.3594 H   0  0  0  0  0  0
  -21.6646  -26.7442   22.1198 H   0  0  0  0  0  0
  -19.6918  -25.6278   21.1237 H   0  0  0  0  0  0
  -19.6702  -27.3178   20.6743 H   0  0  0  0  0  0
  -17.4195  -26.6663   21.4008 H   0  0  0  0  0  0
  -18.0324  -26.0023   22.8987 H   0  0  0  0  0  0
  -19.7943  -30.7223   24.2274 H   0  0  0  0  0  0
  -17.5032  -31.6261   24.5137 H   0  0  0  0  0  0
  -15.5349  -30.2965   23.7666 H   0  0  0  0  0  0
  -15.8668  -28.0803   22.7073 H   0  0  0  0  0  0
  -24.5902  -30.7039   25.7802 H   0  0  0  0  0  0
  -24.8871  -32.2853   26.4902 H   0  0  0  0  0  0
  -25.8033  -30.8900   27.0239 H   0  0  0  0  0  0
  -26.2856  -29.6790   24.1174 H   0  0  0  0  0  0
  -27.4052  -29.7282   25.4606 H   0  0  0  0  0  0
  -27.8714  -30.4341   23.9302 H   0  0  0  0  0  0
  -27.2658  -33.3648   26.2042 H   0  0  0  0  0  0
  -28.3846  -32.6867   25.0302 H   0  0  0  0  0  0
  -28.0697  -31.8470   26.5406 H   0  0  0  0  0  0
  -28.2595  -38.0127   24.7523 H   0  0  0  0  0  0
  -28.1119  -36.2643   24.6279 H   0  0  0  0  0  0
  -27.2306  -37.1431   25.8863 H   0  0  0  0  0  0
  -20.9356  -29.8752   21.6956 H   0  0  0  0  0  0
  -26.0219  -38.2870   24.1412 H   0  0  0  0  0  0
  -29.8872  -21.2712   19.6407 H   0  0  0  0  0  0
  -26.3539  -24.1488   21.5937 H   0  0  0  0  0  0
  -28.3859  -17.3732   18.8327 H   0  0  0  0  0  0
  -29.6050  -18.5834   18.5312 H   0  0  0  0  0  0
  -28.2259  -17.9642   22.5434 H   0  0  0  0  0  0
  -27.4986  -17.0583   21.2530 H   0  0  0  0  0  0
  -31.2395  -17.2667   19.8933 H   0  0  0  0  0  0
  -30.5754  -16.3336   18.5784 H   0  0  0  0  0  0
  -29.1249  -15.6532   22.4647 H   0  0  0  0  0  0
  -30.3941  -16.8114   22.2272 H   0  0  0  0  0  0
  -29.6885  -19.1562   20.9627 H   0  0  0  0  0  0
  -31.2105  -23.1635   19.1559 H   0  0  0  0  0  0
  -31.2145  -24.2195   20.5709 H   0  0  0  0  0  0
  -30.4408  -24.7487   19.0710 H   0  0  0  0  0  0
  -25.9092  -20.1334   19.1194 H   0  0  0  0  0  0
  -26.4668  -18.4814   19.0034 H   0  0  0  0  0  0
  -27.3582  -19.7816   18.1994 H   0  0  0  0  0  0
  -23.7308  -21.7286   21.9478 H   0  0  0  0  0  0
  -24.3543  -22.9972   20.9109 H   0  0  0  0  0  0
  -24.7852  -22.9517   22.6408 H   0  0  0  0  0  0
  -29.5416  -25.7414   21.4802 H   0  0  0  0  0  0
  -27.8893  -25.8935   21.9423 H   0  0  0  0  0  0
  -26.9718  -19.4992   21.1941 H   0  0  0  0  0  0
  1 25  1  0  0  0
  1 30  2  0  0  0
  1 87  1  0  0  0
  2  3  1  0  0  0
  2 25  1  0  0  0
  2 89  1  0  0  0
  2 90  1  0  0  0
  3  4  1  0  0  0
  3 91  1  0  0  0
  3 92  1  0  0  0
  4  5  1  0  0  0
  4 93  1  0  0  0
  4 94  1  0  0  0
  5  6  1  0  0  0
  5 26  1  0  0  0
  5 95  1  0  0  0
  6 25  1  0  0  0
  6 96  1  0  0  0
  6 97  1  0  0  0
  7  8  2  0  0  0
  7 26  1  0  0  0
  7 29  1  0  0  0
  8  9  1  0  0  0
  8 22  1  0  0  0
  9 10  1  0  0  0
  9 27  2  0  0  0
 10 11  2  0  0  0
 10 15  1  0  0  0
 11 12  1  0  0  0
 11 98  1  0  0  0
 12 13  2  0  0  0
 12 99  1  0  0  0
 13 14  1  0  0  0
 13 31  1  0  0  0
 14 15  2  0  0  0
 14100  1  0  0  0
 15101  1  0  0  0
 16 17  2  0  0  0
 16 21  1  0  0  0
 16 31  1  0  0  0
 17 18  1  0  0  0
 17102  1  0  0  0
 18 19  2  0  0  0
 18103  1  0  0  0
 19 20  1  0  0  0
 19 24  1  0  0  0
 20 21  2  0  0  0
 20104  1  0  0  0
 21 23  1  0  0  0
 22 28  1  0  0  0
 22 32  2  0  0  0
 26 27  1  0  0  0
 28105  1  0  0  0
 28106  1  0  0  0
 29107  1  0  0  0
 29108  1  0  0  0
 33 34  1  0  0  0
 33 66  1  0  0  0
 33 70  2  0  0  0
 34 36  1  0  0  0
 34 59  1  0  0  0
 34109  1  0  0  0
 35 44  2  0  0  0
 35 45  1  0  0  0
 35 68  1  0  0  0
 36 56  1  0  0  0
 36110  1  0  0  0
 37 39  1  0  0  0
 37 47  1  0  0  0
 37 66  1  0  0  0
 37111  1  0  0  0
 38 43  2  0  0  0
 38 46  1  0  0  0
 38 47  1  0  0  0
 39 64  1  0  0  0
 39 67  2  0  0  0
 40 52  1  0  0  0
 40 53  2  0  0  0
 40 58  1  0  0  0
 41112  1  0  0  0
 41113  1  0  0  0
 41114  1  0  0  0
 41 48  1  0  0  0
 42 43  1  0  0  0
 42 66  1  0  0  0
 42115  1  0  0  0
 42116  1  0  0  0
 43 44  1  0  0  0
 44117  1  0  0  0
 45 46  2  0  0  0
 45118  1  0  0  0
 46119  1  0  0  0
 47120  1  0  0  0
 47121  1  0  0  0
 48 56  1  0  0  0
 48 65  1  0  0  0
 48122  1  0  0  0
 49 50  1  0  0  0
 49 53  1  0  0  0
 49 64  1  0  0  0
 49123  1  0  0  0
 50 51  1  0  0  0
 50124  1  0  0  0
 50125  1  0  0  0
 51 52  1  0  0  0
 51126  1  0  0  0
 51127  1  0  0  0
 52128  1  0  0  0
 52129  1  0  0  0
 53 54  1  0  0  0
 54 55  2  0  0  0
 54130  1  0  0  0
 55 57  1  0  0  0
 55131  1  0  0  0
 56 69  2  0  0  0
 57 58  2  0  0  0
 57132  1  0  0  0
 58133  1  0  0  0
 59 60  1  0  0  0
 59 61  1  0  0  0
 59 62  1  0  0  0
 60134  1  0  0  0
 60135  1  0  0  0
 60136  1  0  0  0
 61137  1  0  0  0
 61138  1  0  0  0
 61139  1  0  0  0
 62140  1  0  0  0
 62141  1  0  0  0
 62142  1  0  0  0
 63 65  1  0  0  0
 63143  1  0  0  0
 63144  1  0  0  0
 63145  1  0  0  0
 64146  1  0  0  0
 65147  1  0  0  0
 68 85  1  0  0  0
 71 73  2  0  0  0
 71 74  1  0  0  0
 71148  1  0  0  0
 72 75  2  0  0  0
 72 76  1  0  0  0
 72149  1  0  0  0
 73 75  1  0  0  0
 73 82  1  0  0  0
 74 76  2  0  0  0
 74 86  1  0  0  0
 75 85  1  0  0  0
 76 88  1  0  0  0
 77 79  1  0  0  0
 77150  1  0  0  0
 77151  1  0  0  0
 77 81  1  0  0  0
 78 80  1  0  0  0
 78 81  1  0  0  0
 78152  1  0  0  0
 78153  1  0  0  0
 79 87  1  0  0  0
 79154  1  0  0  0
 79155  1  0  0  0
 80 87  1  0  0  0
 80156  1  0  0  0
 80157  1  0  0  0
 81 86  1  0  0  0
 81158  1  0  0  0
 82159  1  0  0  0
 82160  1  0  0  0
 82161  1  0  0  0
 83162  1  0  0  0
 83163  1  0  0  0
 83164  1  0  0  0
 83 86  1  0  0  0
 84 88  1  0  0  0
 84165  1  0  0  0
 84166  1  0  0  0
 84167  1  0  0  0
 85168  1  0  0  0
 85169  1  0  0  0
 86170  1  0  0  0
M  ISO  4   1 100  68 101  85 101  87 100
M  END
> <chiral flag>
0

> <version>
0

> <s_m_source_file>
/data/baiqing/PycharmProjects/Reinvent-master-3.2/result/LINK_invent/BTK/process_docking_weight1_custom_sum_contain_oxygen_bond_distance_aromatic_linkinvent_7_9_3/rearranged_h_0151.sdf

> <i_m_source_file_index>
95

> <r_mmod_Potential_Energy-OPLS-2005>
285.147369384766

> <r_mmod_Stretch_Energy-OPLS-2005>
63.3917770385742

> <r_mmod_Bend_Energy-OPLS-2005>
140.370071411133

> <r_mmod_Torsional_Energy-OPLS-2005>
365.010314941406

> <r_mmod_Improper_Torsional_Energy-OPLS-2005>
18.398681640625

> <r_mmod_Van_der_Waal_Energy-OPLS-2005>
151.563720703125

> <r_mmod_Electrostatic_Energy-OPLS-2005>
-297.073150634766

> <r_mmod_Solvation_Energy-OPLS-2005>
-185.679824829102

> <b_mmod_Minimization_Converged-OPLS-2005>
0

> <r_mmod_RMS_Derivative-OPLS-2005>
2.45235157012939

$$$$
95
                    3D
 Structure written by MMmdl.
162172  0  0  1  0            999 V2000
  -30.5795  -14.7996   20.4387 C   0  0  0  0  0  0
  -30.4372  -12.4799   19.4950 C   0  0  0  0  0  0
  -29.5204  -12.5159   18.2503 C   0  0  0  0  0  0
  -28.0457  -12.3283   18.6558 C   0  0  0  0  0  0
  -27.6399  -13.2350   19.8473 C   0  0  2  0  0  0
  -28.6800  -13.1948   20.9865 C   0  0  0  0  0  0
  -25.2510  -13.8194   20.5704 C   0  0  0  0  0  0
  -24.1800  -13.0436   20.9197 C   0  0  0  0  0  0
  -24.6395  -11.6916   20.8734 C   0  0  0  0  0  0
  -23.9074  -10.4292   21.0402 C   0  0  0  0  0  0
  -24.3624   -9.4207   21.9180 C   0  0  0  0  0  0
  -23.6297   -8.2245   22.0753 C   0  0  0  0  0  0
  -22.4278   -8.0282   21.3547 C   0  0  0  0  0  0
  -21.9915   -9.0255   20.4648 C   0  0  0  0  0  0
  -22.7245  -10.2132   20.3055 C   0  0  0  0  0  0
  -21.6854   -6.0735   22.5279 C   0  0  0  0  0  0
  -21.4015   -6.5640   23.8212 C   0  0  0  0  0  0
  -21.3661   -5.6793   24.9174 C   0  0  0  0  0  0
  -21.6045   -4.3056   24.7224 C   0  0  0  0  0  0
  -21.8819   -3.8146   23.4346 C   0  0  0  0  0  0
  -21.9194   -4.6963   22.3402 C   0  0  0  0  0  0
  -22.7822  -13.5218   21.1863 C   0  0  0  0  0  0
  -22.1663   -4.2149   21.0980 F   0  0  0  0  0  0
  -21.5629   -3.4539   25.7737 F   0  0  0  0  0  0
  -29.9852  -13.5508   20.4185 N   0  0  0  0  0  0
  -26.2932  -12.9406   20.3259 N   0  0  0  0  0  0
  -25.9326  -11.6545   20.5729 N   0  0  0  0  0  0
  -22.0476  -12.8205   22.0421 N   0  0  0  0  0  0
  -25.4214  -15.1919   20.4172 N   0  0  0  0  0  0
  -31.7646  -14.8822   20.1007 O   0  0  0  0  0  0
  -21.6642   -6.8879   21.4242 O   0  0  0  0  0  0
  -22.3503  -14.5524   20.6712 O   0  0  0  0  0  0
  -24.6345  -31.8520   23.1949 C   0  0  0  0  0  0
  -25.9157  -32.4736   23.8308 C   0  0  1  0  0  0
  -27.2196  -27.2284   20.1352 C   0  0  0  0  0  0
  -25.5939  -33.8540   24.2231 N   0  0  0  0  0  0
  -23.4330  -30.4734   21.5390 C   0  0  2  0  0  0
  -24.8808  -28.9142   20.1094 C   0  0  0  0  0  0
  -22.7520  -29.4586   22.4896 C   0  0  0  0  0  0
  -18.0296  -28.1387   22.8484 C   0  0  0  0  0  0
  -24.1491  -36.7276   23.2639 C   0  0  0  0  0  0
  -25.9813  -30.7550   21.3793 C   0  0  0  0  0  0
  -26.0538  -29.3747   20.7204 C   0  0  0  0  0  0
  -27.2256  -28.5458   20.7186 C   0  0  0  0  0  0
  -26.0225  -26.8443   19.4912 C   0  0  0  0  0  0
  -24.8724  -27.6591   19.4821 C   0  0  0  0  0  0
  -23.6531  -29.8053   20.1561 C   0  0  0  0  0  0
  -25.4119  -36.3058   24.0321 C   0  0  1  0  0  0
  -20.5902  -28.3704   23.1260 C   0  0  2  0  0  0
  -20.6782  -26.9418   22.5408 C   0  0  0  0  0  0
  -19.5756  -26.6381   21.5214 C   0  0  0  0  0  0
  -18.1937  -26.7928   22.1626 C   0  0  0  0  0  0
  -19.1550  -28.8863   23.2866 C   0  0  0  0  0  0
  -18.9468  -30.1462   23.8886 C   0  0  0  0  0  0
  -17.6467  -30.6587   24.0561 C   0  0  0  0  0  0
  -25.9064  -34.9431   23.5082 C   0  0  0  0  0  0
  -16.5359  -29.9083   23.6330 C   0  0  0  0  0  0
  -16.7282  -28.6500   23.0354 C   0  0  0  0  0  0
  -26.4509  -31.6574   25.0715 C   0  0  0  0  0  0
  -25.3719  -31.3740   26.1426 C   0  0  0  0  0  0
  -27.0358  -30.2980   24.6234 C   0  0  0  0  0  0
  -27.6053  -32.4324   25.7497 C   0  0  0  0  0  0
  -27.5579  -37.1795   24.8464 C   0  0  0  0  0  0
  -21.4223  -29.3044   22.3643 N   0  0  0  0  0  0
  -26.4290  -37.3762   23.9409 N   0  0  0  0  0  0
  -24.7022  -31.0458   22.0937 N   0  0  0  0  0  0
  -23.4205  -28.8133   23.3013 O   0  0  0  0  0  0
  -28.3062  -26.3140   20.2037 O   0  0  0  0  0  0
  -26.5643  -34.8914   22.4655 O   0  0  0  0  0  0
  -23.5489  -32.1355   23.7228 O   0  0  0  0  0  0
  -28.9663  -21.3830   19.2334 C   0  0  0  0  0  0
  -29.5251  -21.2949   21.5324 C   0  0  0  0  0  0
  -29.1855  -19.9570   19.1258 C   0  0  0  0  0  0
  -29.6098  -19.1290   20.2292 C   0  0  0  0  0  0
  -29.1600  -22.1282   20.4290 C   0  0  0  0  0  0
  -29.7425  -19.8688   21.4463 C   0  0  0  0  0  0
  -30.1532  -18.7961   16.9725 C   0  0  0  0  0  0
  -29.4243  -20.0271   16.4950 C   0  0  0  0  0  0
  -29.0329  -16.6355   19.4627 C   0  0  0  0  0  0
  -28.9871  -19.3360   17.7699 C   0  0  0  0  0  0
  -30.0605  -17.5850   20.0238 C   0  0  2  0  0  0
  -29.7438  -16.1329   20.6964 C   0  0  2  0  0  0
  -30.1922  -19.1313   22.6935 C   0  0  0  0  0  0
  -29.2170  -23.7451   20.5234 C   0  0  0  0  0  0
  -28.0783  -24.8159   20.0581 C   0  0  0  0  0  0
  -31.4794  -12.6028   19.1963 H   0  0  0  0  0  0
  -30.3828  -11.5072   19.9863 H   0  0  0  0  0  0
  -29.8150  -11.7419   17.5405 H   0  0  0  0  0  0
  -29.6413  -13.4688   17.7327 H   0  0  0  0  0  0
  -27.9107  -11.2807   18.9276 H   0  0  0  0  0  0
  -27.3909  -12.5081   17.8023 H   0  0  0  0  0  0
  -27.6244  -14.2501   19.4539 H   0  0  0  0  0  0
  -28.7190  -12.2049   21.4434 H   0  0  0  0  0  0
  -28.4026  -13.8873   21.7821 H   0  0  0  0  0  0
  -25.2770   -9.5682   22.4752 H   0  0  0  0  0  0
  -24.0005   -7.4637   22.7473 H   0  0  0  0  0  0
  -21.0846   -8.8775   19.8954 H   0  0  0  0  0  0
  -22.3705  -10.9670   19.6164 H   0  0  0  0  0  0
  -21.2008   -7.6148   23.9715 H   0  0  0  0  0  0
  -21.1484   -6.0524   25.9078 H   0  0  0  0  0  0
  -22.0598   -2.7608   23.2846 H   0  0  0  0  0  0
  -22.4103  -11.9872   22.4811 H   0  0  0  0  0  0
  -21.1095  -13.1227   22.2637 H   0  0  0  0  0  0
  -24.6592  -15.8494   20.5411 H   0  0  0  0  0  0
  -26.2830  -15.6335   20.1242 H   0  0  0  0  0  0
  -26.7224  -32.5374   23.1047 H   0  0  0  0  0  0
  -25.0075  -33.9669   25.0369 H   0  0  0  0  0  0
  -22.7310  -31.2965   21.3903 H   0  0  0  0  0  0
  -23.3756  -35.9604   23.3293 H   0  0  0  0  0  0
  -24.3580  -36.8913   22.2055 H   0  0  0  0  0  0
  -23.7241  -37.6472   23.6676 H   0  0  0  0  0  0
  -26.1254  -31.5147   20.6099 H   0  0  0  0  0  0
  -26.8566  -30.8032   22.0156 H   0  0  0  0  0  0
  -28.1223  -28.8926   21.2129 H   0  0  0  0  0  0
  -25.9471  -25.8845   19.0026 H   0  0  0  0  0  0
  -23.9751  -27.3018   18.9956 H   0  0  0  0  0  0
  -23.7810  -30.5805   19.3997 H   0  0  0  0  0  0
  -22.7704  -29.2410   19.8499 H   0  0  0  0  0  0
  -25.1303  -36.1897   25.0813 H   0  0  0  0  0  0
  -20.9995  -28.3286   24.1381 H   0  0  0  0  0  0
  -20.5682  -26.2316   23.3617 H   0  0  0  0  0  0
  -21.6649  -26.7437   22.1202 H   0  0  0  0  0  0
  -19.6919  -25.6290   21.1250 H   0  0  0  0  0  0
  -19.6690  -27.3186   20.6739 H   0  0  0  0  0  0
  -17.4207  -26.6676   21.4028 H   0  0  0  0  0  0
  -18.0336  -26.0070   22.9022 H   0  0  0  0  0  0
  -19.7944  -30.7281   24.2250 H   0  0  0  0  0  0
  -17.5020  -31.6266   24.5164 H   0  0  0  0  0  0
  -15.5358  -30.2981   23.7656 H   0  0  0  0  0  0
  -15.8683  -28.0814   22.7075 H   0  0  0  0  0  0
  -24.5905  -30.7075   25.7756 H   0  0  0  0  0  0
  -24.8896  -32.2914   26.4812 H   0  0  0  0  0  0
  -25.8024  -30.8948   27.0227 H   0  0  0  0  0  0
  -26.2949  -29.6721   24.1244 H   0  0  0  0  0  0
  -27.4002  -29.7255   25.4774 H   0  0  0  0  0  0
  -27.8846  -30.4234   23.9507 H   0  0  0  0  0  0
  -27.2651  -33.3634   26.2046 H   0  0  0  0  0  0
  -28.3881  -32.6869   25.0340 H   0  0  0  0  0  0
  -28.0699  -31.8467   26.5440 H   0  0  0  0  0  0
  -28.2591  -38.0097   24.7514 H   0  0  0  0  0  0
  -28.1080  -36.2627   24.6285 H   0  0  0  0  0  0
  -27.2298  -37.1437   25.8867 H   0  0  0  0  0  0
  -20.9416  -29.8761   21.6837 H   0  0  0  0  0  0
  -26.0164  -38.2834   24.1409 H   0  0  0  0  0  0
  -28.6963  -21.9331   18.3425 H   0  0  0  0  0  0
  -29.7089  -21.7790   22.4820 H   0  0  0  0  0  0
  -31.1554  -18.9373   17.3722 H   0  0  0  0  0  0
  -29.9984  -17.8783   16.4088 H   0  0  0  0  0  0
  -28.7943  -19.9133   15.6149 H   0  0  0  0  0  0
  -29.9613  -20.9711   16.5653 H   0  0  0  0  0  0
  -29.2662  -16.1741   18.5043 H   0  0  0  0  0  0
  -27.9828  -16.8854   19.5954 H   0  0  0  0  0  0
  -28.0492  -18.7843   17.7346 H   0  0  0  0  0  0
  -31.0201  -17.6183   19.5118 H   0  0  0  0  0  0
  -29.1856  -16.1515   21.6295 H   0  0  0  0  0  0
  -30.3204  -19.8069   23.5395 H   0  0  0  0  0  0
  -31.1448  -18.6297   22.5198 H   0  0  0  0  0  0
  -29.4550  -18.3792   22.9759 H   0  0  0  0  0  0
  -30.1282  -24.0221   19.9931 H   0  0  0  0  0  0
  -29.4345  -23.9751   21.5665 H   0  0  0  0  0  0
  -27.1667  -24.5651   20.6018 H   0  0  0  0  0  0
  -27.8641  -24.6249   19.0060 H   0  0  0  0  0  0
  1 25  1  0  0  0
  1 30  2  0  0  0
  1 82  1  0  0  0
  2  3  1  0  0  0
  2 25  1  0  0  0
  2 86  1  0  0  0
  2 87  1  0  0  0
  3  4  1  0  0  0
  3 88  1  0  0  0
  3 89  1  0  0  0
  4  5  1  0  0  0
  4 90  1  0  0  0
  4 91  1  0  0  0
  5  6  1  0  0  0
  5 26  1  0  0  0
  5 92  1  0  0  0
  6 25  1  0  0  0
  6 93  1  0  0  0
  6 94  1  0  0  0
  7  8  2  0  0  0
  7 26  1  0  0  0
  7 29  1  0  0  0
  8  9  1  0  0  0
  8 22  1  0  0  0
  9 10  1  0  0  0
  9 27  2  0  0  0
 10 11  2  0  0  0
 10 15  1  0  0  0
 11 12  1  0  0  0
 11 95  1  0  0  0
 12 13  2  0  0  0
 12 96  1  0  0  0
 13 14  1  0  0  0
 13 31  1  0  0  0
 14 15  2  0  0  0
 14 97  1  0  0  0
 15 98  1  0  0  0
 16 17  2  0  0  0
 16 21  1  0  0  0
 16 31  1  0  0  0
 17 18  1  0  0  0
 17 99  1  0  0  0
 18 19  2  0  0  0
 18100  1  0  0  0
 19 20  1  0  0  0
 19 24  1  0  0  0
 20 21  2  0  0  0
 20101  1  0  0  0
 21 23  1  0  0  0
 22 28  1  0  0  0
 22 32  2  0  0  0
 26 27  1  0  0  0
 28102  1  0  0  0
 28103  1  0  0  0
 29104  1  0  0  0
 29105  1  0  0  0
 33 34  1  0  0  0
 33 66  1  0  0  0
 33 70  2  0  0  0
 34 36  1  0  0  0
 34 59  1  0  0  0
 34106  1  0  0  0
 35 44  2  0  0  0
 35 45  1  0  0  0
 35 68  1  0  0  0
 36 56  1  0  0  0
 36107  1  0  0  0
 37 39  1  0  0  0
 37 47  1  0  0  0
 37 66  1  0  0  0
 37108  1  0  0  0
 38 43  2  0  0  0
 38 46  1  0  0  0
 38 47  1  0  0  0
 39 64  1  0  0  0
 39 67  2  0  0  0
 40 52  1  0  0  0
 40 53  2  0  0  0
 40 58  1  0  0  0
 41109  1  0  0  0
 41110  1  0  0  0
 41111  1  0  0  0
 41 48  1  0  0  0
 42 43  1  0  0  0
 42 66  1  0  0  0
 42112  1  0  0  0
 42113  1  0  0  0
 43 44  1  0  0  0
 44114  1  0  0  0
 45 46  2  0  0  0
 45115  1  0  0  0
 46116  1  0  0  0
 47117  1  0  0  0
 47118  1  0  0  0
 48 56  1  0  0  0
 48 65  1  0  0  0
 48119  1  0  0  0
 49 50  1  0  0  0
 49 53  1  0  0  0
 49 64  1  0  0  0
 49120  1  0  0  0
 50 51  1  0  0  0
 50121  1  0  0  0
 50122  1  0  0  0
 51 52  1  0  0  0
 51123  1  0  0  0
 51124  1  0  0  0
 52125  1  0  0  0
 52126  1  0  0  0
 53 54  1  0  0  0
 54 55  2  0  0  0
 54127  1  0  0  0
 55 57  1  0  0  0
 55128  1  0  0  0
 56 69  2  0  0  0
 57 58  2  0  0  0
 57129  1  0  0  0
 58130  1  0  0  0
 59 60  1  0  0  0
 59 61  1  0  0  0
 59 62  1  0  0  0
 60131  1  0  0  0
 60132  1  0  0  0
 60133  1  0  0  0
 61134  1  0  0  0
 61135  1  0  0  0
 61136  1  0  0  0
 62137  1  0  0  0
 62138  1  0  0  0
 62139  1  0  0  0
 63 65  1  0  0  0
 63140  1  0  0  0
 63141  1  0  0  0
 63142  1  0  0  0
 64143  1  0  0  0
 65144  1  0  0  0
 68 85  1  0  0  0
 71 73  2  0  0  0
 71 75  1  0  0  0
 71145  1  0  0  0
 72 75  2  0  0  0
 72 76  1  0  0  0
 72146  1  0  0  0
 73 74  1  0  0  0
 73 80  1  0  0  0
 74 76  2  0  0  0
 74 81  1  0  0  0
 75 84  1  0  0  0
 76 83  1  0  0  0
 77 78  1  0  0  0
 77 80  1  0  0  0
 77147  1  0  0  0
 77148  1  0  0  0
 78 80  1  0  0  0
 78149  1  0  0  0
 78150  1  0  0  0
 79 81  1  0  0  0
 79 82  1  0  0  0
 79151  1  0  0  0
 79152  1  0  0  0
 80153  1  0  0  0
 81 82  1  0  0  0
 81154  1  0  0  0
 82155  1  0  0  0
 83156  1  0  0  0
 83157  1  0  0  0
 83158  1  0  0  0
 84 85  1  0  0  0
 84159  1  0  0  0
 84160  1  0  0  0
 85161  1  0  0  0
 85162  1  0  0  0
M  ISO  4   1 100  68 101  82 100  85 101
M  END
> <chiral flag>
0

> <version>
0

> <s_m_source_file>
/data/baiqing/PycharmProjects/Reinvent-master-3.2/result/LINK_invent/BTK/process_docking_weight1_custom_sum_contain_oxygen_bond_distance_aromatic_linkinvent_7_9_3/rearranged_h_0151.sdf

> <i_m_source_file_index>
96

> <r_mmod_Potential_Energy-OPLS-2005>
308.052917480469

> <r_mmod_Stretch_Energy-OPLS-2005>
161.213500976562

> <r_mmod_Bend_Energy-OPLS-2005>
195.743881225586

> <r_mmod_Torsional_Energy-OPLS-2005>
240.052185058594

> <r_mmod_Improper_Torsional_Energy-OPLS-2005>
5.66260433197021

> <r_mmod_Van_der_Waal_Energy-OPLS-2005>
125.924324035645

> <r_mmod_Electrostatic_Energy-OPLS-2005>
-335.715698242188

> <r_mmod_Solvation_Energy-OPLS-2005>
-192.955642700195

> <b_mmod_Minimization_Converged-OPLS-2005>
0

> <r_mmod_RMS_Derivative-OPLS-2005>
0.350269317626953

$$$$
96
                    3D
 Structure written by MMmdl.
177186  0  0  1  0            999 V2000
  -30.6880  -14.4535   20.5242 C   0  0  0  0  0  0
  -30.4174  -12.2752   19.4343 C   0  0  0  0  0  0
  -29.4974  -12.5003   18.2161 C   0  0  0  0  0  0
  -28.0183  -12.3506   18.6226 C   0  0  0  0  0  0
  -27.6611  -13.1899   19.8784 C   0  0  2  0  0  0
  -28.7017  -12.9792   21.0053 C   0  0  0  0  0  0
  -25.2580  -13.8121   20.5641 C   0  0  0  0  0  0
  -24.1820  -13.0416   20.9152 C   0  0  0  0  0  0
  -24.6365  -11.6884   20.8736 C   0  0  0  0  0  0
  -23.9034  -10.4278   21.0413 C   0  0  0  0  0  0
  -24.3600   -9.4199   21.9187 C   0  0  0  0  0  0
  -23.6280   -8.2232   22.0752 C   0  0  0  0  0  0
  -22.4259   -8.0275   21.3547 C   0  0  0  0  0  0
  -21.9889   -9.0245   20.4646 C   0  0  0  0  0  0
  -22.7210  -10.2132   20.3056 C   0  0  0  0  0  0
  -21.6850   -6.0734   22.5285 C   0  0  0  0  0  0
  -21.4009   -6.5641   23.8218 C   0  0  0  0  0  0
  -21.3650   -5.6793   24.9185 C   0  0  0  0  0  0
  -21.6042   -4.3054   24.7235 C   0  0  0  0  0  0
  -21.8818   -3.8144   23.4357 C   0  0  0  0  0  0
  -21.9186   -4.6961   22.3412 C   0  0  0  0  0  0
  -22.7852  -13.5239   21.1830 C   0  0  0  0  0  0
  -22.1655   -4.2147   21.0988 F   0  0  0  0  0  0
  -21.5632   -3.4539   25.7747 F   0  0  0  0  0  0
  -30.0399  -13.2616   20.4568 N   0  0  0  0  0  0
  -26.3008  -12.9252   20.3371 N   0  0  0  0  0  0
  -25.9289  -11.6437   20.5785 N   0  0  0  0  0  0
  -22.0490  -12.8242   22.0397 N   0  0  0  0  0  0
  -25.4267  -15.1838   20.4034 N   0  0  0  0  0  0
  -31.8292  -14.6249   20.0908 O   0  0  0  0  0  0
  -21.6627   -6.8877   21.4244 O   0  0  0  0  0  0
  -22.3545  -14.5552   20.6690 O   0  0  0  0  0  0
  -24.6100  -31.8710   23.2129 C   0  0  0  0  0  0
  -25.9005  -32.4844   23.8419 C   0  0  1  0  0  0
  -27.2394  -27.4629   20.1029 C   0  0  0  0  0  0
  -25.5885  -33.8642   24.2344 N   0  0  0  0  0  0
  -23.3973  -30.4921   21.5536 C   0  0  2  0  0  0
  -24.8472  -28.9546   20.1263 C   0  0  0  0  0  0
  -22.7381  -29.4674   22.5034 C   0  0  0  0  0  0
  -18.0257  -28.1369   22.8490 C   0  0  0  0  0  0
  -24.1487  -36.7324   23.2640 C   0  0  0  0  0  0
  -25.9231  -30.8437   21.3636 C   0  0  0  0  0  0
  -26.0032  -29.4750   20.7226 C   0  0  0  0  0  0
  -27.2045  -28.7334   20.7159 C   0  0  0  0  0  0
  -26.0753  -26.9516   19.4963 C   0  0  0  0  0  0
  -24.8745  -27.6881   19.5147 C   0  0  0  0  0  0
  -23.6066  -29.8182   20.1703 C   0  0  0  0  0  0
  -25.4106  -36.3131   24.0342 C   0  0  1  0  0  0
  -20.5842  -28.3647   23.1328 C   0  0  2  0  0  0
  -20.6751  -26.9389   22.5423 C   0  0  0  0  0  0
  -19.5738  -26.6378   21.5211 C   0  0  0  0  0  0
  -18.1913  -26.7911   22.1620 C   0  0  0  0  0  0
  -19.1506  -28.8822   23.2907 C   0  0  0  0  0  0
  -18.9444  -30.1429   23.8920 C   0  0  0  0  0  0
  -17.6451  -30.6584   24.0553 C   0  0  0  0  0  0
  -25.9031  -34.9496   23.5143 C   0  0  0  0  0  0
  -16.5336  -29.9088   23.6325 C   0  0  0  0  0  0
  -16.7247  -28.6500   23.0351 C   0  0  0  0  0  0
  -26.4453  -31.6607   25.0728 C   0  0  0  0  0  0
  -25.3725  -31.3696   26.1476 C   0  0  0  0  0  0
  -27.0275  -30.3061   24.6062 C   0  0  0  0  0  0
  -27.6046  -32.4315   25.7472 C   0  0  0  0  0  0
  -27.5581  -37.1815   24.8468 C   0  0  0  0  0  0
  -21.4122  -29.3020   22.3756 N   0  0  0  0  0  0
  -26.4299  -37.3805   23.9409 N   0  0  0  0  0  0
  -24.6611  -31.0824   22.1021 N   0  0  0  0  0  0
  -23.4177  -28.8222   23.3063 O   0  0  0  0  0  0
  -28.4042  -26.7440   20.0200 O   0  0  0  0  0  0
  -26.5594  -34.8932   22.4708 O   0  0  0  0  0  0
  -23.5297  -32.1449   23.7533 O   0  0  0  0  0  0
  -30.0370  -18.7544   21.6144 C   0  0  0  0  0  0
  -31.9562  -20.2253   21.6325 C   0  0  0  0  0  0
  -30.6274  -19.9667   22.0435 C   0  0  0  0  0  0
  -30.6682  -17.9112   20.6701 C   0  0  0  0  0  0
  -32.6397  -19.3706   20.7462 C   0  0  0  0  0  0
  -31.9708  -18.2352   20.2130 C   0  0  0  0  0  0
  -30.4493  -22.3611   23.1638 C   0  0  0  0  0  0
  -28.3578  -21.1436   22.4030 C   0  0  0  0  0  0
  -29.4547  -23.5350   23.0063 C   0  0  0  0  0  0
  -28.2611  -22.1926   21.2775 C   0  0  0  0  0  0
  -29.8109  -20.9525   22.9158 C   0  0  1  0  0  0
  -28.4371  -17.1405   19.7106 C   0  0  0  0  0  0
  -34.8934  -18.7175   20.2564 C   0  0  0  0  0  0
  -32.5309  -18.0391   17.9418 C   0  0  0  0  0  0
  -28.0007  -24.6741   21.2910 C   0  0  0  0  0  0
  -28.7729  -26.0132   21.1892 C   0  0  0  0  0  0
  -29.8889  -16.7442   20.0496 C   0  0  2  0  0  0
  -29.8916  -15.4920   20.8191 N   0  0  0  0  0  0
  -28.8666  -23.5109   21.6375 N   0  3  1  0  0  0
  -33.9232  -19.7462   20.4106 O   0  0  0  0  0  0
  -32.5561  -17.4609   19.2426 O   0  0  0  0  0  0
  -31.4661  -12.3536   19.1404 H   0  0  0  0  0  0
  -30.2964  -11.2640   19.8268 H   0  0  0  0  0  0
  -29.7446  -11.7978   17.4191 H   0  0  0  0  0  0
  -29.6611  -13.4979   17.8053 H   0  0  0  0  0  0
  -27.8306  -11.2934   18.8178 H   0  0  0  0  0  0
  -27.3699  -12.6257   17.7890 H   0  0  0  0  0  0
  -27.7006  -14.2320   19.5742 H   0  0  0  0  0  0
  -28.6676  -11.9513   21.3671 H   0  0  0  0  0  0
  -28.4685  -13.6029   21.8706 H   0  0  0  0  0  0
  -25.2757   -9.5682   22.4746 H   0  0  0  0  0  0
  -24.0001   -7.4625   22.7469 H   0  0  0  0  0  0
  -21.0818   -8.8767   19.8946 H   0  0  0  0  0  0
  -22.3675  -10.9675   19.6160 H   0  0  0  0  0  0
  -21.1997   -7.6148   23.9732 H   0  0  0  0  0  0
  -21.1471   -6.0519   25.9094 H   0  0  0  0  0  0
  -22.0598   -2.7604   23.2861 H   0  0  0  0  0  0
  -22.4102  -11.9905   22.4786 H   0  0  0  0  0  0
  -21.1116  -13.1283   22.2626 H   0  0  0  0  0  0
  -24.6492  -15.8291   20.4949 H   0  0  0  0  0  0
  -26.2777  -15.6294   20.0872 H   0  0  0  0  0  0
  -26.7075  -32.5592   23.1193 H   0  0  0  0  0  0
  -25.0031  -33.9811   25.0477 H   0  0  0  0  0  0
  -22.6841  -31.3081   21.4139 H   0  0  0  0  0  0
  -23.3751  -35.9662   23.3331 H   0  0  0  0  0  0
  -24.3573  -36.8902   22.2052 H   0  0  0  0  0  0
  -23.7236  -37.6535   23.6627 H   0  0  0  0  0  0
  -26.0242  -31.6040   20.5879 H   0  0  0  0  0  0
  -26.8143  -30.9062   21.9761 H   0  0  0  0  0  0
  -28.1024  -29.1413   21.1590 H   0  0  0  0  0  0
  -26.1019  -25.9888   19.0064 H   0  0  0  0  0  0
  -23.9874  -27.2810   19.0499 H   0  0  0  0  0  0
  -23.7147  -30.5906   19.4090 H   0  0  0  0  0  0
  -22.7316  -29.2355   19.8741 H   0  0  0  0  0  0
  -25.1281  -36.2010   25.0835 H   0  0  0  0  0  0
  -20.9925  -28.3211   24.1448 H   0  0  0  0  0  0
  -20.5638  -26.2264   23.3610 H   0  0  0  0  0  0
  -21.6628  -26.7431   22.1227 H   0  0  0  0  0  0
  -19.6904  -25.6294   21.1230 H   0  0  0  0  0  0
  -19.6673  -27.3200   20.6752 H   0  0  0  0  0  0
  -17.4180  -26.6650   21.4025 H   0  0  0  0  0  0
  -18.0320  -26.0042   22.9010 H   0  0  0  0  0  0
  -19.7923  -30.7226   24.2316 H   0  0  0  0  0  0
  -17.5010  -31.6268   24.5147 H   0  0  0  0  0  0
  -15.5341  -30.3003   23.7629 H   0  0  0  0  0  0
  -15.8645  -28.0824   22.7068 H   0  0  0  0  0  0
  -24.5889  -30.7056   25.7795 H   0  0  0  0  0  0
  -24.8932  -32.2856   26.4955 H   0  0  0  0  0  0
  -25.8086  -30.8832   27.0212 H   0  0  0  0  0  0
  -26.2807  -29.6836   24.1119 H   0  0  0  0  0  0
  -27.4066  -29.7275   25.4496 H   0  0  0  0  0  0
  -27.8638  -30.4400   23.9191 H   0  0  0  0  0  0
  -27.2673  -33.3591   26.2107 H   0  0  0  0  0  0
  -28.3818  -32.6904   25.0268 H   0  0  0  0  0  0
  -28.0756  -31.8403   26.5332 H   0  0  0  0  0  0
  -28.2619  -38.0091   24.7507 H   0  0  0  0  0  0
  -28.1056  -36.2629   24.6316 H   0  0  0  0  0  0
  -27.2301  -37.1493   25.8869 H   0  0  0  0  0  0
  -20.9295  -29.8744   21.6977 H   0  0  0  0  0  0
  -26.0206  -38.2892   24.1397 H   0  0  0  0  0  0
  -29.0498  -18.4909   21.9586 H   0  0  0  0  0  0
  -32.5014  -21.0847   21.9862 H   0  0  0  0  0  0
  -30.9220  -22.3872   24.1473 H   0  0  0  0  0  0
  -31.2391  -22.5912   22.4563 H   0  0  0  0  0  0
  -27.8846  -20.2191   22.0855 H   0  0  0  0  0  0
  -27.7345  -21.4747   23.2351 H   0  0  0  0  0  0
  -29.9776  -24.4761   23.1739 H   0  0  0  0  0  0
  -28.6675  -23.4924   23.7602 H   0  0  0  0  0  0
  -27.2138  -22.3014   20.9929 H   0  0  0  0  0  0
  -28.7760  -21.8173   20.3931 H   0  0  0  0  0  0
  -29.7278  -20.4633   23.8877 H   0  0  0  0  0  0
  -28.4123  -18.0699   19.1405 H   0  0  0  0  0  0
  -27.8164  -17.2808   20.5969 H   0  0  0  0  0  0
  -27.9565  -16.3869   19.0894 H   0  0  0  0  0  0
  -35.8844  -19.1353   20.4343 H   0  0  0  0  0  0
  -34.9006  -18.3176   19.2440 H   0  0  0  0  0  0
  -34.7449  -17.9024   20.9673 H   0  0  0  0  0  0
  -33.1657  -17.4572   17.2728 H   0  0  0  0  0  0
  -32.9068  -19.0628   17.9318 H   0  0  0  0  0  0
  -31.5205  -18.0317   17.5301 H   0  0  0  0  0  0
  -27.5609  -24.4708   20.3129 H   0  0  0  0  0  0
  -27.1643  -24.7576   21.9866 H   0  0  0  0  0  0
  -29.8431  -25.8276   21.0958 H   0  0  0  0  0  0
  -28.6443  -26.6124   22.0918 H   0  0  0  0  0  0
  -30.3374  -16.5365   19.0776 H   0  0  0  0  0  0
  -29.0156  -15.2366   21.2488 H   0  0  0  0  0  0
  -29.6568  -23.5924   21.0130 H   0  0  0  0  0  0
  1 25  1  0  0  0
  1 30  2  0  0  0
  1 88  1  0  0  0
  2  3  1  0  0  0
  2 25  1  0  0  0
  2 92  1  0  0  0
  2 93  1  0  0  0
  3  4  1  0  0  0
  3 94  1  0  0  0
  3 95  1  0  0  0
  4  5  1  0  0  0
  4 96  1  0  0  0
  4 97  1  0  0  0
  5  6  1  0  0  0
  5 26  1  0  0  0
  5 98  1  0  0  0
  6 25  1  0  0  0
  6 99  1  0  0  0
  6100  1  0  0  0
  7  8  2  0  0  0
  7 26  1  0  0  0
  7 29  1  0  0  0
  8  9  1  0  0  0
  8 22  1  0  0  0
  9 10  1  0  0  0
  9 27  2  0  0  0
 10 11  2  0  0  0
 10 15  1  0  0  0
 11 12  1  0  0  0
 11101  1  0  0  0
 12 13  2  0  0  0
 12102  1  0  0  0
 13 14  1  0  0  0
 13 31  1  0  0  0
 14 15  2  0  0  0
 14103  1  0  0  0
 15104  1  0  0  0
 16 17  2  0  0  0
 16 21  1  0  0  0
 16 31  1  0  0  0
 17 18  1  0  0  0
 17105  1  0  0  0
 18 19  2  0  0  0
 18106  1  0  0  0
 19 20  1  0  0  0
 19 24  1  0  0  0
 20 21  2  0  0  0
 20107  1  0  0  0
 21 23  1  0  0  0
 22 28  1  0  0  0
 22 32  2  0  0  0
 26 27  1  0  0  0
 28108  1  0  0  0
 28109  1  0  0  0
 29110  1  0  0  0
 29111  1  0  0  0
 33 34  1  0  0  0
 33 66  1  0  0  0
 33 70  2  0  0  0
 34 36  1  0  0  0
 34 59  1  0  0  0
 34112  1  0  0  0
 35 44  2  0  0  0
 35 45  1  0  0  0
 35 68  1  0  0  0
 36 56  1  0  0  0
 36113  1  0  0  0
 37 39  1  0  0  0
 37 47  1  0  0  0
 37 66  1  0  0  0
 37114  1  0  0  0
 38 43  2  0  0  0
 38 46  1  0  0  0
 38 47  1  0  0  0
 39 64  1  0  0  0
 39 67  2  0  0  0
 40 52  1  0  0  0
 40 53  2  0  0  0
 40 58  1  0  0  0
 41115  1  0  0  0
 41116  1  0  0  0
 41117  1  0  0  0
 41 48  1  0  0  0
 42 43  1  0  0  0
 42 66  1  0  0  0
 42118  1  0  0  0
 42119  1  0  0  0
 43 44  1  0  0  0
 44120  1  0  0  0
 45 46  2  0  0  0
 45121  1  0  0  0
 46122  1  0  0  0
 47123  1  0  0  0
 47124  1  0  0  0
 48 56  1  0  0  0
 48 65  1  0  0  0
 48125  1  0  0  0
 49 50  1  0  0  0
 49 53  1  0  0  0
 49 64  1  0  0  0
 49126  1  0  0  0
 50 51  1  0  0  0
 50127  1  0  0  0
 50128  1  0  0  0
 51 52  1  0  0  0
 51129  1  0  0  0
 51130  1  0  0  0
 52131  1  0  0  0
 52132  1  0  0  0
 53 54  1  0  0  0
 54 55  2  0  0  0
 54133  1  0  0  0
 55 57  1  0  0  0
 55134  1  0  0  0
 56 69  2  0  0  0
 57 58  2  0  0  0
 57135  1  0  0  0
 58136  1  0  0  0
 59 60  1  0  0  0
 59 61  1  0  0  0
 59 62  1  0  0  0
 60137  1  0  0  0
 60138  1  0  0  0
 60139  1  0  0  0
 61140  1  0  0  0
 61141  1  0  0  0
 61142  1  0  0  0
 62143  1  0  0  0
 62144  1  0  0  0
 62145  1  0  0  0
 63 65  1  0  0  0
 63146  1  0  0  0
 63147  1  0  0  0
 63148  1  0  0  0
 64149  1  0  0  0
 65150  1  0  0  0
 68 86  1  0  0  0
 71 73  2  0  0  0
 71 74  1  0  0  0
 71151  1  0  0  0
 72 73  1  0  0  0
 72 75  2  0  0  0
 72152  1  0  0  0
 73 81  1  0  0  0
 74 76  2  0  0  0
 74 87  1  0  0  0
 75 76  1  0  0  0
 75 90  1  0  0  0
 76 91  1  0  0  0
 77 79  1  0  0  0
 77 81  1  0  0  0
 77153  1  0  0  0
 77154  1  0  0  0
 78 80  1  0  0  0
 78 81  1  0  0  0
 78155  1  0  0  0
 78156  1  0  0  0
 79 89  1  0  0  0
 79157  1  0  0  0
 79158  1  0  0  0
 80 89  1  0  0  0
 80159  1  0  0  0
 80160  1  0  0  0
 81161  1  0  0  0
 82162  1  0  0  0
 82163  1  0  0  0
 82164  1  0  0  0
 82 87  1  0  0  0
 83 90  1  0  0  0
 83165  1  0  0  0
 83166  1  0  0  0
 83167  1  0  0  0
 84 91  1  0  0  0
 84168  1  0  0  0
 84169  1  0  0  0
 84170  1  0  0  0
 85 86  1  0  0  0
 85171  1  0  0  0
 85172  1  0  0  0
 85 89  1  0  0  0
 86173  1  0  0  0
 86174  1  0  0  0
 87 88  1  0  0  0
 87175  1  0  0  0
 88176  1  0  0  0
 89177  1  0  0  0
M  CHG  1  89   1
M  ISO  4   1 100  68 101  86 101  88 100
M  END
> <chiral flag>
0

> <version>
0

> <s_m_source_file>
/data/baiqing/PycharmProjects/Reinvent-master-3.2/result/LINK_invent/BTK/process_docking_weight1_custom_sum_contain_oxygen_bond_distance_aromatic_linkinvent_7_9_3/rearranged_h_0151.sdf

> <i_m_source_file_index>
97

> <r_mmod_Potential_Energy-OPLS-2005>
-16.8057403564453

> <r_mmod_Stretch_Energy-OPLS-2005>
41.6249694824219

> <r_mmod_Bend_Energy-OPLS-2005>
114.684951782227

> <r_mmod_Torsional_Energy-OPLS-2005>
359.86474609375

> <r_mmod_Improper_Torsional_Energy-OPLS-2005>
10.2062673568726

> <r_mmod_Van_der_Waal_Energy-OPLS-2005>
172.181976318359

> <r_mmod_Electrostatic_Energy-OPLS-2005>
-286.455718994141

> <r_mmod_Solvation_Energy-OPLS-2005>
-439.768798828125

> <b_mmod_Minimization_Converged-OPLS-2005>
0

> <r_mmod_RMS_Derivative-OPLS-2005>
2.55280089378357

$$$$
