0
                    3D
 Structure written by MMmdl.
158166  0  0  1  0            999 V2000
  -30.7268  -14.5293   20.5998 C   0  0  0  0  0  0
  -30.4276  -12.3499   19.4428 C   0  0  0  0  0  0
  -29.4992  -12.5112   18.2188 C   0  0  0  0  0  0
  -28.0192  -12.3599   18.6260 C   0  0  0  0  0  0
  -27.6625  -13.2019   19.8788 C   0  0  2  0  0  0
  -28.7121  -12.9772   20.9941 C   0  0  0  0  0  0
  -25.2564  -13.8128   20.5657 C   0  0  0  0  0  0
  -24.1825  -13.0407   20.9190 C   0  0  0  0  0  0
  -24.6389  -11.6882   20.8765 C   0  0  0  0  0  0
  -23.9054  -10.4275   21.0428 C   0  0  0  0  0  0
  -24.3594   -9.4181   21.9196 C   0  0  0  0  0  0
  -23.6270   -8.2221   22.0753 C   0  0  0  0  0  0
  -22.4252   -8.0280   21.3542 C   0  0  0  0  0  0
  -21.9893   -9.0249   20.4636 C   0  0  0  0  0  0
  -22.7226  -10.2134   20.3062 C   0  0  0  0  0  0
  -21.6845   -6.0734   22.5275 C   0  0  0  0  0  0
  -21.4016   -6.5630   23.8215 C   0  0  0  0  0  0
  -21.3668   -5.6786   24.9175 C   0  0  0  0  0  0
  -21.6042   -4.3048   24.7226 C   0  0  0  0  0  0
  -21.8808   -3.8137   23.4346 C   0  0  0  0  0  0
  -21.9175   -4.6955   22.3401 C   0  0  0  0  0  0
  -22.7839  -13.5213   21.1844 C   0  0  0  0  0  0
  -22.1632   -4.2135   21.0979 F   0  0  0  0  0  0
  -21.5641   -3.4534   25.7737 F   0  0  0  0  0  0
  -30.0289  -13.3533   20.4561 N   0  0  0  0  0  0
  -26.3030  -12.9306   20.3399 N   0  0  0  0  0  0
  -25.9324  -11.6470   20.5811 N   0  0  0  0  0  0
  -22.0470  -12.8236   22.0431 N   0  0  0  0  0  0
  -25.4223  -15.1842   20.3994 N   0  0  0  0  0  0
  -31.8286  -14.6323   20.0543 O   0  0  0  0  0  0
  -21.6622   -6.8873   21.4239 O   0  0  0  0  0  0
  -22.3527  -14.5507   20.6678 O   0  0  0  0  0  0
  -24.6189  -31.8670   23.2110 C   0  0  0  0  0  0
  -25.9072  -32.4810   23.8419 C   0  0  1  0  0  0
  -27.2339  -27.4065   20.0843 C   0  0  0  0  0  0
  -25.5910  -33.8609   24.2347 N   0  0  0  0  0  0
  -23.4080  -30.4939   21.5525 C   0  0  2  0  0  0
  -24.8538  -28.9649   20.1150 C   0  0  0  0  0  0
  -22.7431  -29.4660   22.4974 C   0  0  0  0  0  0
  -18.0275  -28.1369   22.8504 C   0  0  0  0  0  0
  -24.1480  -36.7304   23.2639 C   0  0  0  0  0  0
  -25.9439  -30.8196   21.3757 C   0  0  0  0  0  0
  -26.0181  -29.4557   20.7165 C   0  0  0  0  0  0
  -27.2073  -28.6823   20.7053 C   0  0  0  0  0  0
  -26.0445  -26.9566   19.4546 C   0  0  0  0  0  0
  -24.8627  -27.7130   19.4849 C   0  0  0  0  0  0
  -23.6189  -29.8342   20.1657 C   0  0  0  0  0  0
  -25.4099  -36.3101   24.0345 C   0  0  1  0  0  0
  -20.5871  -28.3662   23.1307 C   0  0  2  0  0  0
  -20.6758  -26.9391   22.5417 C   0  0  0  0  0  0
  -19.5731  -26.6380   21.5212 C   0  0  0  0  0  0
  -18.1912  -26.7920   22.1628 C   0  0  0  0  0  0
  -19.1526  -28.8829   23.2902 C   0  0  0  0  0  0
  -18.9454  -30.1433   23.8913 C   0  0  0  0  0  0
  -17.6457  -30.6576   24.0564 C   0  0  0  0  0  0
  -25.9035  -34.9460   23.5147 C   0  0  0  0  0  0
  -16.5348  -29.9080   23.6327 C   0  0  0  0  0  0
  -16.7264  -28.6492   23.0364 C   0  0  0  0  0  0
  -26.4491  -31.6582   25.0744 C   0  0  0  0  0  0
  -25.3768  -31.3699   26.1500 C   0  0  0  0  0  0
  -27.0313  -30.3009   24.6151 C   0  0  0  0  0  0
  -27.6055  -32.4302   25.7506 C   0  0  0  0  0  0
  -27.5576  -37.1806   24.8472 C   0  0  0  0  0  0
  -21.4153  -29.3033   22.3710 N   0  0  0  0  0  0
  -26.4287  -37.3783   23.9412 N   0  0  0  0  0  0
  -24.6752  -31.0749   22.1029 N   0  0  0  0  0  0
  -23.4188  -28.8190   23.3016 O   0  0  0  0  0  0
  -28.3904  -26.6312   20.1282 O   0  0  0  0  0  0
  -26.5593  -34.8910   22.4700 O   0  0  0  0  0  0
  -23.5372  -32.1428   23.7486 O   0  0  0  0  0  0
  -29.0644  -22.8522   20.0112 C   0  0  0  0  0  0
  -31.1336  -23.7052   21.4610 C   0  0  0  0  0  0
  -29.9528  -21.9384   20.5996 C   0  0  0  0  0  0
  -29.2767  -24.2272   20.2342 C   0  0  0  0  0  0
  -28.8425  -15.9195   21.9455 C   0  0  0  0  0  0
  -29.7614  -20.4204   20.4856 C   0  0  0  0  0  0
  -28.2697  -25.2521   19.6957 C   0  0  0  0  0  0
  -30.5794  -17.1713   20.5945 C   0  0  0  0  0  0
  -30.9042  -18.3960   21.5113 C   0  0  0  0  0  0
  -30.2746  -15.8327   21.3747 C   0  0  2  0  0  0
  -31.0013  -22.3825   21.3252 N   0  0  0  0  0  0
  -30.3303  -24.6427   20.9636 N   0  0  0  0  0  0
  -31.0168  -19.7148   20.8204 N   0  3  0  0  0  0
  -31.4706  -12.4358   19.1351 H   0  0  0  0  0  0
  -30.3429  -11.3432   19.8542 H   0  0  0  0  0  0
  -29.7529  -11.7754   17.4558 H   0  0  0  0  0  0
  -29.6557  -13.4898   17.7630 H   0  0  0  0  0  0
  -27.8338  -11.3034   18.8257 H   0  0  0  0  0  0
  -27.3682  -12.6270   17.7934 H   0  0  0  0  0  0
  -27.7046  -14.2431   19.5650 H   0  0  0  0  0  0
  -28.7208  -11.9215   21.2706 H   0  0  0  0  0  0
  -28.4615  -13.4700   21.9254 H   0  0  0  0  0  0
  -25.2736   -9.5646   22.4769 H   0  0  0  0  0  0
  -23.9961   -7.4613   22.7471 H   0  0  0  0  0  0
  -21.0818   -8.8768   19.8945 H   0  0  0  0  0  0
  -22.3673  -10.9674   19.6167 H   0  0  0  0  0  0
  -21.2016   -7.6138   23.9711 H   0  0  0  0  0  0
  -21.1508   -6.0522   25.9080 H   0  0  0  0  0  0
  -22.0582   -2.7596   23.2845 H   0  0  0  0  0  0
  -22.4064  -11.9902   22.4844 H   0  0  0  0  0  0
  -21.1094  -13.1283   22.2635 H   0  0  0  0  0  0
  -24.6500  -15.8342   20.5015 H   0  0  0  0  0  0
  -26.2682  -15.6255   20.0638 H   0  0  0  0  0  0
  -26.7136  -32.5521   23.1176 H   0  0  0  0  0  0
  -25.0069  -33.9770   25.0503 H   0  0  0  0  0  0
  -22.6986  -31.3113   21.4152 H   0  0  0  0  0  0
  -23.3738  -35.9643   23.3324 H   0  0  0  0  0  0
  -24.3580  -36.8895   22.2051 H   0  0  0  0  0  0
  -23.7238  -37.6519   23.6639 H   0  0  0  0  0  0
  -26.0724  -31.5888   20.6128 H   0  0  0  0  0  0
  -26.8246  -30.8618   22.0047 H   0  0  0  0  0  0
  -28.1016  -29.0535   21.1867 H   0  0  0  0  0  0
  -25.9840  -26.0180   18.9229 H   0  0  0  0  0  0
  -23.9711  -27.3318   19.0077 H   0  0  0  0  0  0
  -23.7326  -30.6120   19.4099 H   0  0  0  0  0  0
  -22.7411  -29.2600   19.8650 H   0  0  0  0  0  0
  -25.1268  -36.1979   25.0840 H   0  0  0  0  0  0
  -20.9969  -28.3228   24.1423 H   0  0  0  0  0  0
  -20.5651  -26.2263   23.3604 H   0  0  0  0  0  0
  -21.6628  -26.7415   22.1208 H   0  0  0  0  0  0
  -19.6887  -25.6298   21.1217 H   0  0  0  0  0  0
  -19.6670  -27.3209   20.6759 H   0  0  0  0  0  0
  -17.4182  -26.6678   21.4032 H   0  0  0  0  0  0
  -18.0310  -26.0047   22.9008 H   0  0  0  0  0  0
  -19.7930  -30.7238   24.2292 H   0  0  0  0  0  0
  -17.5015  -31.6262   24.5152 H   0  0  0  0  0  0
  -15.5349  -30.2989   23.7631 H   0  0  0  0  0  0
  -15.8665  -28.0804   22.7089 H   0  0  0  0  0  0
  -24.5948  -30.7019   25.7876 H   0  0  0  0  0  0
  -24.8951  -32.2853   26.4948 H   0  0  0  0  0  0
  -25.8139  -30.8899   27.0268 H   0  0  0  0  0  0
  -26.2866  -29.6775   24.1185 H   0  0  0  0  0  0
  -27.4037  -29.7238   25.4630 H   0  0  0  0  0  0
  -27.8734  -30.4294   23.9340 H   0  0  0  0  0  0
  -27.2662  -33.3596   26.2092 H   0  0  0  0  0  0
  -28.3860  -32.6873   25.0334 H   0  0  0  0  0  0
  -28.0725  -31.8430   26.5423 H   0  0  0  0  0  0
  -28.2603  -38.0094   24.7494 H   0  0  0  0  0  0
  -28.1056  -36.2619   24.6318 H   0  0  0  0  0  0
  -27.2296  -37.1488   25.8879 H   0  0  0  0  0  0
  -20.9309  -29.8771   21.6948 H   0  0  0  0  0  0
  -26.0185  -38.2866   24.1403 H   0  0  0  0  0  0
  -28.2168  -22.5096   19.4294 H   0  0  0  0  0  0
  -31.9773  -24.0505   22.0395 H   0  0  0  0  0  0
  -28.7361  -15.3382   22.8596 H   0  0  0  0  0  0
  -28.0886  -15.6202   21.2242 H   0  0  0  0  0  0
  -28.5797  -16.9367   22.2287 H   0  0  0  0  0  0
  -29.4345  -20.1549   19.4795 H   0  0  0  0  0  0
  -28.9615  -20.1310   21.1691 H   0  0  0  0  0  0
  -27.3183  -24.8349   20.0232 H   0  0  0  0  0  0
  -28.2957  -25.2178   18.6054 H   0  0  0  0  0  0
  -29.7306  -17.4075   19.9509 H   0  0  0  0  0  0
  -31.4194  -17.0484   19.9101 H   0  0  0  0  0  0
  -31.8569  -18.1976   22.0053 H   0  0  0  0  0  0
  -30.1813  -18.4875   22.3206 H   0  0  0  0  0  0
  -30.9390  -15.8367   22.2408 H   0  0  0  0  0  0
  -31.4330  -20.3959   21.4445 H   0  0  0  0  0  0
  -31.6155  -19.6816   20.0138 H   0  0  0  0  0  0
  1 25  1  0  0  0
  1 30  2  0  0  0
  1 80  1  0  0  0
  2  3  1  0  0  0
  2 25  1  0  0  0
  2 84  1  0  0  0
  2 85  1  0  0  0
  3  4  1  0  0  0
  3 86  1  0  0  0
  3 87  1  0  0  0
  4  5  1  0  0  0
  4 88  1  0  0  0
  4 89  1  0  0  0
  5  6  1  0  0  0
  5 26  1  0  0  0
  5 90  1  0  0  0
  6 25  1  0  0  0
  6 91  1  0  0  0
  6 92  1  0  0  0
  7  8  2  0  0  0
  7 26  1  0  0  0
  7 29  1  0  0  0
  8  9  1  0  0  0
  8 22  1  0  0  0
  9 10  1  0  0  0
  9 27  2  0  0  0
 10 11  2  0  0  0
 10 15  1  0  0  0
 11 12  1  0  0  0
 11 93  1  0  0  0
 12 13  2  0  0  0
 12 94  1  0  0  0
 13 14  1  0  0  0
 13 31  1  0  0  0
 14 15  2  0  0  0
 14 95  1  0  0  0
 15 96  1  0  0  0
 16 17  2  0  0  0
 16 21  1  0  0  0
 16 31  1  0  0  0
 17 18  1  0  0  0
 17 97  1  0  0  0
 18 19  2  0  0  0
 18 98  1  0  0  0
 19 20  1  0  0  0
 19 24  1  0  0  0
 20 21  2  0  0  0
 20 99  1  0  0  0
 21 23  1  0  0  0
 22 28  1  0  0  0
 22 32  2  0  0  0
 26 27  1  0  0  0
 28100  1  0  0  0
 28101  1  0  0  0
 29102  1  0  0  0
 29103  1  0  0  0
 33 34  1  0  0  0
 33 66  1  0  0  0
 33 70  2  0  0  0
 34 36  1  0  0  0
 34 59  1  0  0  0
 34104  1  0  0  0
 35 44  2  0  0  0
 35 45  1  0  0  0
 35 68  1  0  0  0
 36 56  1  0  0  0
 36105  1  0  0  0
 37 39  1  0  0  0
 37 47  1  0  0  0
 37 66  1  0  0  0
 37106  1  0  0  0
 38 43  2  0  0  0
 38 46  1  0  0  0
 38 47  1  0  0  0
 39 64  1  0  0  0
 39 67  2  0  0  0
 40 52  1  0  0  0
 40 53  2  0  0  0
 40 58  1  0  0  0
 41107  1  0  0  0
 41108  1  0  0  0
 41109  1  0  0  0
 41 48  1  0  0  0
 42 43  1  0  0  0
 42 66  1  0  0  0
 42110  1  0  0  0
 42111  1  0  0  0
 43 44  1  0  0  0
 44112  1  0  0  0
 45 46  2  0  0  0
 45113  1  0  0  0
 46114  1  0  0  0
 47115  1  0  0  0
 47116  1  0  0  0
 48 56  1  0  0  0
 48 65  1  0  0  0
 48117  1  0  0  0
 49 50  1  0  0  0
 49 53  1  0  0  0
 49 64  1  0  0  0
 49118  1  0  0  0
 50 51  1  0  0  0
 50119  1  0  0  0
 50120  1  0  0  0
 51 52  1  0  0  0
 51121  1  0  0  0
 51122  1  0  0  0
 52123  1  0  0  0
 52124  1  0  0  0
 53 54  1  0  0  0
 54 55  2  0  0  0
 54125  1  0  0  0
 55 57  1  0  0  0
 55126  1  0  0  0
 56 69  2  0  0  0
 57 58  2  0  0  0
 57127  1  0  0  0
 58128  1  0  0  0
 59 60  1  0  0  0
 59 61  1  0  0  0
 59 62  1  0  0  0
 60129  1  0  0  0
 60130  1  0  0  0
 60131  1  0  0  0
 61132  1  0  0  0
 61133  1  0  0  0
 61134  1  0  0  0
 62135  1  0  0  0
 62136  1  0  0  0
 62137  1  0  0  0
 63 65  1  0  0  0
 63138  1  0  0  0
 63139  1  0  0  0
 63140  1  0  0  0
 64141  1  0  0  0
 65142  1  0  0  0
 68 77  1  0  0  0
 71 73  2  0  0  0
 71 74  1  0  0  0
 71143  1  0  0  0
 72 81  2  0  0  0
 72 82  1  0  0  0
 72144  1  0  0  0
 73 76  1  0  0  0
 73 81  1  0  0  0
 74 77  1  0  0  0
 74 82  2  0  0  0
 75145  1  0  0  0
 75146  1  0  0  0
 75147  1  0  0  0
 75 80  1  0  0  0
 76 83  1  0  0  0
 76148  1  0  0  0
 76149  1  0  0  0
 77150  1  0  0  0
 77151  1  0  0  0
 78 79  1  0  0  0
 78 80  1  0  0  0
 78152  1  0  0  0
 78153  1  0  0  0
 79 83  1  0  0  0
 79154  1  0  0  0
 79155  1  0  0  0
 80156  1  0  0  0
 83157  1  0  0  0
 83158  1  0  0  0
M  CHG  1  83   1
M  ISO  4   1 100  68 101  77 101  80 100
M  END
> <chiral flag>
0

> <version>
0

> <s_m_source_file>
/data/baiqing/PycharmProjects/Reinvent-master-3.2/result/LINK_invent/BTK/process_docking_weight1_custom_sum_contain_oxygen_bond_distance_aromatic_linkinvent_7_9_3/rearranged_h_0052.sdf

> <i_m_source_file_index>
1

> <r_mmod_Potential_Energy-OPLS-2005>
-677.558959960938

> <r_mmod_Stretch_Energy-OPLS-2005>
49.3505325317383

> <r_mmod_Bend_Energy-OPLS-2005>
142.836242675781

> <r_mmod_Torsional_Energy-OPLS-2005>
186.190307617188

> <r_mmod_Improper_Torsional_Energy-OPLS-2005>
1.90145015716553

> <r_mmod_Van_der_Waal_Energy-OPLS-2005>
181.338500976562

> <r_mmod_Electrostatic_Energy-OPLS-2005>
-779.642761230469

> <r_mmod_Solvation_Energy-OPLS-2005>
-479.002685546875

> <b_mmod_Minimization_Converged-OPLS-2005>
0

> <r_mmod_RMS_Derivative-OPLS-2005>
2.18792533874512

$$$$
1
                    3D
 Structure written by MMmdl.
164172  0  0  1  0            999 V2000
  -30.5865  -14.5087   20.5793 C   0  0  0  0  0  0
  -30.4387  -12.3333   19.4057 C   0  0  0  0  0  0
  -29.4992  -12.5314   18.1963 C   0  0  0  0  0  0
  -28.0260  -12.3263   18.6061 C   0  0  0  0  0  0
  -27.6525  -13.1651   19.8510 C   0  0  2  0  0  0
  -28.6899  -12.9395   20.9779 C   0  0  0  0  0  0
  -25.2643  -13.8031   20.5609 C   0  0  0  0  0  0
  -24.1852  -13.0373   20.9184 C   0  0  0  0  0  0
  -24.6346  -11.6840   20.8726 C   0  0  0  0  0  0
  -23.8983  -10.4264   21.0433 C   0  0  0  0  0  0
  -24.3579   -9.4183   21.9205 C   0  0  0  0  0  0
  -23.6281   -8.2197   22.0758 C   0  0  0  0  0  0
  -22.4255   -8.0257   21.3549 C   0  0  0  0  0  0
  -21.9892   -9.0186   20.4585 C   0  0  0  0  0  0
  -22.7191  -10.2094   20.3026 C   0  0  0  0  0  0
  -21.6828   -6.0730   22.5286 C   0  0  0  0  0  0
  -21.3996   -6.5642   23.8233 C   0  0  0  0  0  0
  -21.3669   -5.6803   24.9200 C   0  0  0  0  0  0
  -21.6060   -4.3067   24.7236 C   0  0  0  0  0  0
  -21.8826   -3.8143   23.4351 C   0  0  0  0  0  0
  -21.9194   -4.6956   22.3407 C   0  0  0  0  0  0
  -22.7901  -13.5222   21.1916 C   0  0  0  0  0  0
  -22.1694   -4.2156   21.0984 F   0  0  0  0  0  0
  -21.5626   -3.4569   25.7753 F   0  0  0  0  0  0
  -30.0143  -13.2839   20.4463 N   0  0  0  0  0  0
  -26.2962  -12.9098   20.3169 N   0  0  0  0  0  0
  -25.9219  -11.6319   20.5611 N   0  0  0  0  0  0
  -22.0515  -12.8176   22.0447 N   0  0  0  0  0  0
  -25.4427  -15.1720   20.4068 N   0  0  0  0  0  0
  -31.7193  -14.7590   20.1560 O   0  0  0  0  0  0
  -21.6609   -6.8865   21.4249 O   0  0  0  0  0  0
  -22.3583  -14.5531   20.6795 O   0  0  0  0  0  0
  -24.6065  -31.8660   23.2082 C   0  0  0  0  0  0
  -25.8972  -32.4807   23.8381 C   0  0  1  0  0  0
  -27.2807  -27.4712   20.1057 C   0  0  0  0  0  0
  -25.5844  -33.8606   24.2302 N   0  0  0  0  0  0
  -23.3984  -30.4811   21.5421 C   0  0  2  0  0  0
  -24.8645  -28.9563   20.0959 C   0  0  0  0  0  0
  -22.7391  -29.4599   22.4962 C   0  0  0  0  0  0
  -18.0250  -28.1362   22.8486 C   0  0  0  0  0  0
  -24.1471  -36.7293   23.2652 C   0  0  0  0  0  0
  -25.9198  -30.8427   21.3614 C   0  0  0  0  0  0
  -26.0087  -29.4791   20.7116 C   0  0  0  0  0  0
  -27.2063  -28.7343   20.7320 C   0  0  0  0  0  0
  -26.1277  -26.9540   19.4741 C   0  0  0  0  0  0
  -24.9206  -27.6935   19.4680 C   0  0  0  0  0  0
  -23.6096  -29.8041   20.1567 C   0  0  0  0  0  0
  -25.4100  -36.3092   24.0341 C   0  0  1  0  0  0
  -20.5838  -28.3607   23.1321 C   0  0  2  0  0  0
  -20.6715  -26.9336   22.5431 C   0  0  0  0  0  0
  -19.5708  -26.6339   21.5209 C   0  0  0  0  0  0
  -18.1880  -26.7917   22.1599 C   0  0  0  0  0  0
  -19.1507  -28.8806   23.2899 C   0  0  0  0  0  0
  -18.9445  -30.1429   23.8882 C   0  0  0  0  0  0
  -17.6449  -30.6570   24.0550 C   0  0  0  0  0  0
  -25.9023  -34.9465   23.5119 C   0  0  0  0  0  0
  -16.5332  -29.9066   23.6343 C   0  0  0  0  0  0
  -16.7247  -28.6485   23.0367 C   0  0  0  0  0  0
  -26.4427  -31.6594   25.0705 C   0  0  0  0  0  0
  -25.3698  -31.3684   26.1447 C   0  0  0  0  0  0
  -27.0294  -30.3057   24.6077 C   0  0  0  0  0  0
  -27.5976  -32.4351   25.7467 C   0  0  0  0  0  0
  -27.5584  -37.1767   24.8451 C   0  0  0  0  0  0
  -21.4127  -29.2958   22.3705 N   0  0  0  0  0  0
  -26.4261  -37.3799   23.9450 N   0  0  0  0  0  0
  -24.6578  -31.0776   22.0960 N   0  0  0  0  0  0
  -23.4179  -28.8188   23.3034 O   0  0  0  0  0  0
  -28.4286  -26.7228   20.2683 O   0  0  0  0  0  0
  -26.5617  -34.8922   22.4703 O   0  0  0  0  0  0
  -23.5262  -32.1378   23.7498 O   0  0  0  0  0  0
  -30.3075  -22.8690   18.1557 C   0  0  0  0  0  0
  -30.8161  -22.2972   19.3481 C   0  0  0  0  0  0
  -30.1888  -24.2154   20.4953 C   0  0  0  0  0  0
  -29.6930  -24.7980   19.2872 C   0  0  0  0  0  0
  -30.2364  -24.9623   21.8188 C   0  0  0  0  0  0
  -32.3538  -19.8637   21.9574 C   0  0  0  0  0  0
  -31.6637  -21.0191   19.2857 C   0  0  0  0  0  0
  -29.1828  -26.2504   19.1489 C   0  0  0  0  0  0
  -29.6809  -15.6586   21.1231 C   0  0  0  0  0  0
  -29.9682  -17.1087   20.6610 C   0  0  0  0  0  0
  -31.0727  -19.6725   19.7992 C   0  0  0  0  0  0
  -30.9899  -17.8701   21.5385 C   0  0  0  0  0  0
  -29.7451  -24.1007   18.1239 N   0  0  0  0  0  0
  -30.7347  -22.9655   20.5256 N   0  0  0  0  0  0
  -31.1470  -19.3398   21.2602 N   0  3  1  0  0  0
  -31.4793  -12.4830   19.1137 H   0  0  0  0  0  0
  -30.3749  -11.3083   19.7737 H   0  0  0  0  0  0
  -29.7653  -11.8595   17.3796 H   0  0  0  0  0  0
  -29.6224  -13.5423   17.8052 H   0  0  0  0  0  0
  -27.8813  -11.2667   18.8182 H   0  0  0  0  0  0
  -27.3626  -12.5713   17.7754 H   0  0  0  0  0  0
  -27.6744  -14.1916   19.5003 H   0  0  0  0  0  0
  -28.6803  -11.8954   21.2910 H   0  0  0  0  0  0
  -28.4355  -13.5049   21.8756 H   0  0  0  0  0  0
  -25.2738   -9.5699   22.4768 H   0  0  0  0  0  0
  -24.0034   -7.4574   22.7452 H   0  0  0  0  0  0
  -21.0873   -8.8627   19.8814 H   0  0  0  0  0  0
  -22.3649  -10.9625   19.6097 H   0  0  0  0  0  0
  -21.1972   -7.6156   23.9745 H   0  0  0  0  0  0
  -21.1500   -6.0533   25.9125 H   0  0  0  0  0  0
  -22.0590   -2.7605   23.2824 H   0  0  0  0  0  0
  -22.4183  -11.9862   22.4817 H   0  0  0  0  0  0
  -21.1080  -13.1062   22.2616 H   0  0  0  0  0  0
  -24.6669  -15.8230   20.4844 H   0  0  0  0  0  0
  -26.2975  -15.6050   20.0811 H   0  0  0  0  0  0
  -26.7052  -32.5570   23.1163 H   0  0  0  0  0  0
  -24.9950  -33.9772   25.0411 H   0  0  0  0  0  0
  -22.6813  -31.2923   21.4002 H   0  0  0  0  0  0
  -23.3753  -35.9595   23.3259 H   0  0  0  0  0  0
  -24.3550  -36.8981   22.2071 H   0  0  0  0  0  0
  -23.7172  -37.6453   23.6720 H   0  0  0  0  0  0
  -26.0261  -31.6120   20.5947 H   0  0  0  0  0  0
  -26.8059  -30.8991   21.9799 H   0  0  0  0  0  0
  -28.0710  -29.1164   21.2569 H   0  0  0  0  0  0
  -26.1566  -25.9699   19.0251 H   0  0  0  0  0  0
  -24.0456  -27.2820   18.9802 H   0  0  0  0  0  0
  -23.6878  -30.5723   19.3879 H   0  0  0  0  0  0
  -22.7443  -29.2002   19.8772 H   0  0  0  0  0  0
  -25.1263  -36.1925   25.0825 H   0  0  0  0  0  0
  -20.9931  -28.3176   24.1445 H   0  0  0  0  0  0
  -20.5560  -26.2222   23.3625 H   0  0  0  0  0  0
  -21.6593  -26.7336   22.1268 H   0  0  0  0  0  0
  -19.6850  -25.6246   21.1248 H   0  0  0  0  0  0
  -19.6678  -27.3131   20.6734 H   0  0  0  0  0  0
  -17.4173  -26.6707   21.3979 H   0  0  0  0  0  0
  -18.0231  -26.0037   22.8959 H   0  0  0  0  0  0
  -19.7929  -30.7241   24.2235 H   0  0  0  0  0  0
  -17.5014  -31.6250   24.5159 H   0  0  0  0  0  0
  -15.5337  -30.2963   23.7685 H   0  0  0  0  0  0
  -15.8650  -28.0803   22.7096 H   0  0  0  0  0  0
  -24.5867  -30.7038   25.7773 H   0  0  0  0  0  0
  -24.8884  -32.2836   26.4908 H   0  0  0  0  0  0
  -25.8047  -30.8837   27.0195 H   0  0  0  0  0  0
  -26.2848  -29.6784   24.1165 H   0  0  0  0  0  0
  -27.4109  -29.7316   25.4527 H   0  0  0  0  0  0
  -27.8644  -30.4389   23.9197 H   0  0  0  0  0  0
  -27.2536  -33.3598   26.2115 H   0  0  0  0  0  0
  -28.3733  -32.7019   25.0279 H   0  0  0  0  0  0
  -28.0713  -31.8465   26.5327 H   0  0  0  0  0  0
  -28.2536  -38.0134   24.7626 H   0  0  0  0  0  0
  -28.1147  -36.2671   24.6113 H   0  0  0  0  0  0
  -27.2328  -37.1220   25.8855 H   0  0  0  0  0  0
  -20.9288  -29.8628   21.6878 H   0  0  0  0  0  0
  -26.0135  -38.2848   24.1562 H   0  0  0  0  0  0
  -30.4195  -22.3696   17.2037 H   0  0  0  0  0  0
  -29.2898  -25.4370   22.0683 H   0  0  0  0  0  0
  -31.0076  -25.7308   21.7802 H   0  0  0  0  0  0
  -30.4710  -24.2888   22.6434 H   0  0  0  0  0  0
  -32.4197  -20.9507   21.9169 H   0  0  0  0  0  0
  -33.2707  -19.4550   21.5264 H   0  0  0  0  0  0
  -32.3510  -19.5980   23.0164 H   0  0  0  0  0  0
  -32.6485  -21.2146   19.7060 H   0  0  0  0  0  0
  -31.8712  -20.8608   18.2269 H   0  0  0  0  0  0
  -28.6368  -26.3696   18.2094 H   0  0  0  0  0  0
  -30.0676  -26.8936   19.0678 H   0  0  0  0  0  0
  -28.6727  -15.4942   20.7544 H   0  0  0  0  0  0
  -29.5877  -15.5971   22.2063 H   0  0  0  0  0  0
  -29.0272  -17.6596   20.6672 H   0  0  0  0  0  0
  -30.2822  -17.0827   19.6171 H   0  0  0  0  0  0
  -31.6451  -18.8969   19.2894 H   0  0  0  0  0  0
  -30.0466  -19.5629   19.4465 H   0  0  0  0  0  0
  -31.9494  -17.3667   21.4269 H   0  0  0  0  0  0
  -30.7076  -17.7414   22.5860 H   0  0  0  0  0  0
  -30.3610  -19.8023   21.7008 H   0  0  0  0  0  0
  1 25  1  0  0  0
  1 30  2  0  0  0
  1 79  1  0  0  0
  2  3  1  0  0  0
  2 25  1  0  0  0
  2 86  1  0  0  0
  2 87  1  0  0  0
  3  4  1  0  0  0
  3 88  1  0  0  0
  3 89  1  0  0  0
  4  5  1  0  0  0
  4 90  1  0  0  0
  4 91  1  0  0  0
  5  6  1  0  0  0
  5 26  1  0  0  0
  5 92  1  0  0  0
  6 25  1  0  0  0
  6 93  1  0  0  0
  6 94  1  0  0  0
  7  8  2  0  0  0
  7 26  1  0  0  0
  7 29  1  0  0  0
  8  9  1  0  0  0
  8 22  1  0  0  0
  9 10  1  0  0  0
  9 27  2  0  0  0
 10 11  2  0  0  0
 10 15  1  0  0  0
 11 12  1  0  0  0
 11 95  1  0  0  0
 12 13  2  0  0  0
 12 96  1  0  0  0
 13 14  1  0  0  0
 13 31  1  0  0  0
 14 15  2  0  0  0
 14 97  1  0  0  0
 15 98  1  0  0  0
 16 17  2  0  0  0
 16 21  1  0  0  0
 16 31  1  0  0  0
 17 18  1  0  0  0
 17 99  1  0  0  0
 18 19  2  0  0  0
 18100  1  0  0  0
 19 20  1  0  0  0
 19 24  1  0  0  0
 20 21  2  0  0  0
 20101  1  0  0  0
 21 23  1  0  0  0
 22 28  1  0  0  0
 22 32  2  0  0  0
 26 27  1  0  0  0
 28102  1  0  0  0
 28103  1  0  0  0
 29104  1  0  0  0
 29105  1  0  0  0
 33 34  1  0  0  0
 33 66  1  0  0  0
 33 70  2  0  0  0
 34 36  1  0  0  0
 34 59  1  0  0  0
 34106  1  0  0  0
 35 44  2  0  0  0
 35 45  1  0  0  0
 35 68  1  0  0  0
 36 56  1  0  0  0
 36107  1  0  0  0
 37 39  1  0  0  0
 37 47  1  0  0  0
 37 66  1  0  0  0
 37108  1  0  0  0
 38 43  2  0  0  0
 38 46  1  0  0  0
 38 47  1  0  0  0
 39 64  1  0  0  0
 39 67  2  0  0  0
 40 52  1  0  0  0
 40 53  2  0  0  0
 40 58  1  0  0  0
 41109  1  0  0  0
 41110  1  0  0  0
 41111  1  0  0  0
 41 48  1  0  0  0
 42 43  1  0  0  0
 42 66  1  0  0  0
 42112  1  0  0  0
 42113  1  0  0  0
 43 44  1  0  0  0
 44114  1  0  0  0
 45 46  2  0  0  0
 45115  1  0  0  0
 46116  1  0  0  0
 47117  1  0  0  0
 47118  1  0  0  0
 48 56  1  0  0  0
 48 65  1  0  0  0
 48119  1  0  0  0
 49 50  1  0  0  0
 49 53  1  0  0  0
 49 64  1  0  0  0
 49120  1  0  0  0
 50 51  1  0  0  0
 50121  1  0  0  0
 50122  1  0  0  0
 51 52  1  0  0  0
 51123  1  0  0  0
 51124  1  0  0  0
 52125  1  0  0  0
 52126  1  0  0  0
 53 54  1  0  0  0
 54 55  2  0  0  0
 54127  1  0  0  0
 55 57  1  0  0  0
 55128  1  0  0  0
 56 69  2  0  0  0
 57 58  2  0  0  0
 57129  1  0  0  0
 58130  1  0  0  0
 59 60  1  0  0  0
 59 61  1  0  0  0
 59 62  1  0  0  0
 60131  1  0  0  0
 60132  1  0  0  0
 60133  1  0  0  0
 61134  1  0  0  0
 61135  1  0  0  0
 61136  1  0  0  0
 62137  1  0  0  0
 62138  1  0  0  0
 62139  1  0  0  0
 63 65  1  0  0  0
 63140  1  0  0  0
 63141  1  0  0  0
 63142  1  0  0  0
 64143  1  0  0  0
 65144  1  0  0  0
 68 78  1  0  0  0
 71 72  2  0  0  0
 71 83  1  0  0  0
 71145  1  0  0  0
 72 77  1  0  0  0
 72 84  1  0  0  0
 73 74  1  0  0  0
 73 75  1  0  0  0
 73 84  2  0  0  0
 74 78  1  0  0  0
 74 83  2  0  0  0
 75146  1  0  0  0
 75147  1  0  0  0
 75148  1  0  0  0
 76149  1  0  0  0
 76150  1  0  0  0
 76151  1  0  0  0
 76 85  1  0  0  0
 77 81  1  0  0  0
 77152  1  0  0  0
 77153  1  0  0  0
 78154  1  0  0  0
 78155  1  0  0  0
 79 80  1  0  0  0
 79156  1  0  0  0
 79157  1  0  0  0
 80 82  1  0  0  0
 80158  1  0  0  0
 80159  1  0  0  0
 81 85  1  0  0  0
 81160  1  0  0  0
 81161  1  0  0  0
 82 85  1  0  0  0
 82162  1  0  0  0
 82163  1  0  0  0
 85164  1  0  0  0
M  CHG  1  85   1
M  ISO  4   1 100  68 101  78 101  79 100
M  END
> <chiral flag>
0

> <version>
0

> <s_m_source_file>
/data/baiqing/PycharmProjects/Reinvent-master-3.2/result/LINK_invent/BTK/process_docking_weight1_custom_sum_contain_oxygen_bond_distance_aromatic_linkinvent_7_9_3/rearranged_h_0052.sdf

> <i_m_source_file_index>
2

> <r_mmod_Potential_Energy-OPLS-2005>
-36.3952674865723

> <r_mmod_Stretch_Energy-OPLS-2005>
45.3563575744629

> <r_mmod_Bend_Energy-OPLS-2005>
131.707489013672

> <r_mmod_Torsional_Energy-OPLS-2005>
221.969085693359

> <r_mmod_Improper_Torsional_Energy-OPLS-2005>
5.95672655105591

> <r_mmod_Van_der_Waal_Energy-OPLS-2005>
161.324356079102

> <r_mmod_Electrostatic_Energy-OPLS-2005>
-203.757797241211

> <r_mmod_Solvation_Energy-OPLS-2005>
-423.291748046875

> <b_mmod_Minimization_Converged-OPLS-2005>
0

> <r_mmod_RMS_Derivative-OPLS-2005>
6.02603244781494

$$$$
2
                    3D
 Structure written by MMmdl.
151159  0  0  1  0            999 V2000
  -30.5384  -15.0175   20.4040 C   0  0  0  0  0  0
  -30.4294  -12.6354   19.4999 C   0  0  0  0  0  0
  -29.5188  -12.5290   18.2555 C   0  0  0  0  0  0
  -28.0551  -12.2984   18.6767 C   0  0  0  0  0  0
  -27.6173  -13.2542   19.8178 C   0  0  2  0  0  0
  -28.6568  -13.3470   20.9553 C   0  0  0  0  0  0
  -25.2409  -13.8227   20.5686 C   0  0  0  0  0  0
  -24.1744  -13.0429   20.9244 C   0  0  0  0  0  0
  -24.6376  -11.6928   20.8754 C   0  0  0  0  0  0
  -23.9063  -10.4293   21.0399 C   0  0  0  0  0  0
  -24.3625   -9.4204   21.9161 C   0  0  0  0  0  0
  -23.6297   -8.2240   22.0744 C   0  0  0  0  0  0
  -22.4278   -8.0280   21.3542 C   0  0  0  0  0  0
  -21.9912   -9.0244   20.4634 C   0  0  0  0  0  0
  -22.7245  -10.2120   20.3035 C   0  0  0  0  0  0
  -21.6856   -6.0734   22.5281 C   0  0  0  0  0  0
  -21.4021   -6.5637   23.8217 C   0  0  0  0  0  0
  -21.3658   -5.6787   24.9176 C   0  0  0  0  0  0
  -21.6048   -4.3052   24.7223 C   0  0  0  0  0  0
  -21.8816   -3.8145   23.4346 C   0  0  0  0  0  0
  -21.9191   -4.6960   22.3404 C   0  0  0  0  0  0
  -22.7772  -13.5190   21.1916 C   0  0  0  0  0  0
  -22.1651   -4.2148   21.0975 F   0  0  0  0  0  0
  -21.5630   -3.4533   25.7731 F   0  0  0  0  0  0
  -29.9240  -13.7615   20.3425 N   0  0  0  0  0  0
  -26.2825  -12.9467   20.3169 N   0  0  0  0  0  0
  -25.9301  -11.6599   20.5706 N   0  0  0  0  0  0
  -22.0435  -12.8159   22.0477 N   0  0  0  0  0  0
  -25.4060  -15.1953   20.4098 N   0  0  0  0  0  0
  -31.7547  -15.0391   20.1877 O   0  0  0  0  0  0
  -21.6649   -6.8877   21.4245 O   0  0  0  0  0  0
  -22.3440  -14.5492   20.6763 O   0  0  0  0  0  0
  -24.6506  -31.8385   23.1808 C   0  0  0  0  0  0
  -25.9262  -32.4652   23.8226 C   0  0  1  0  0  0
  -27.2175  -27.0810   20.1628 C   0  0  0  0  0  0
  -25.5986  -33.8459   24.2144 N   0  0  0  0  0  0
  -23.4547  -30.4592   21.5276 C   0  0  2  0  0  0
  -24.9025  -28.8711   20.1036 C   0  0  0  0  0  0
  -22.7582  -29.4552   22.4806 C   0  0  0  0  0  0
  -18.0311  -28.1419   22.8456 C   0  0  0  0  0  0
  -24.1494  -36.7256   23.2640 C   0  0  0  0  0  0
  -26.0133  -30.6941   21.3837 C   0  0  0  0  0  0
  -26.0812  -29.2997   20.7276 C   0  0  0  0  0  0
  -27.2363  -28.4234   20.7344 C   0  0  0  0  0  0
  -26.0131  -26.7634   19.4964 C   0  0  0  0  0  0
  -24.8863  -27.6190   19.4677 C   0  0  0  0  0  0
  -23.6824  -29.7850   20.1472 C   0  0  0  0  0  0
  -25.4125  -36.3011   24.0302 C   0  0  1  0  0  0
  -20.5931  -28.3761   23.1198 C   0  0  2  0  0  0
  -20.6804  -26.9459   22.5394 C   0  0  0  0  0  0
  -19.5780  -26.6398   21.5208 C   0  0  0  0  0  0
  -18.1960  -26.7959   22.1614 C   0  0  0  0  0  0
  -19.1574  -28.8906   23.2823 C   0  0  0  0  0  0
  -18.9489  -30.1496   23.8859 C   0  0  0  0  0  0
  -17.6489  -30.6604   24.0574 C   0  0  0  0  0  0
  -25.9079  -34.9385   23.5038 C   0  0  0  0  0  0
  -16.5377  -29.9104   23.6336 C   0  0  0  0  0  0
  -16.7301  -28.6532   23.0335 C   0  0  0  0  0  0
  -26.4553  -31.6543   25.0695 C   0  0  0  0  0  0
  -25.3727  -31.3769   26.1384 C   0  0  0  0  0  0
  -27.0420  -30.2921   24.6330 C   0  0  0  0  0  0
  -27.6064  -32.4322   25.7499 C   0  0  0  0  0  0
  -27.5567  -37.1783   24.8459 C   0  0  0  0  0  0
  -21.4273  -29.3078   22.3556 N   0  0  0  0  0  0
  -26.4277  -37.3737   23.9401 N   0  0  0  0  0  0
  -24.7275  -31.0203   22.0860 N   0  0  0  0  0  0
  -23.4199  -28.8112   23.2995 O   0  0  0  0  0  0
  -28.2639  -26.0734   20.2540 O   0  0  0  0  0  0
  -26.5666  -34.8907   22.4618 O   0  0  0  0  0  0
  -23.5619  -32.1295   23.7007 O   0  0  0  0  0  0
  -28.1003  -20.8122   19.4365 C   0  0  0  0  0  0
  -28.9185  -21.5691   20.2604 C   0  0  0  0  0  0
  -29.4661  -19.1944   20.3369 C   0  0  0  0  0  0
  -27.8589  -18.3878   18.6677 C   0  0  0  0  0  0
  -29.0524  -23.2139   20.5441 C   0  0  0  0  0  0
  -30.2896  -17.7643   20.6200 C   0  0  0  0  0  0
  -28.0381  -24.5153   20.0688 C   0  0  0  0  0  0
  -28.4552  -19.4511   19.4798 N   0  0  0  0  0  0
  -29.7276  -20.4936   20.7949 N   0  3  0  0  0  0
  -29.8012  -16.2458   20.5071 N   0  0  0  0  0  0
  -31.4633  -12.7938   19.1918 H   0  0  0  0  0  0
  -30.4267  -11.7009   20.0636 H   0  0  0  0  0  0
  -29.8529  -11.7211   17.6020 H   0  0  0  0  0  0
  -29.5942  -13.4479   17.6716 H   0  0  0  0  0  0
  -27.9649  -11.2633   19.0087 H   0  0  0  0  0  0
  -27.3913  -12.3964   17.8159 H   0  0  0  0  0  0
  -27.5601  -14.2395   19.3505 H   0  0  0  0  0  0
  -28.7591  -12.3990   21.4856 H   0  0  0  0  0  0
  -28.3399  -14.0898   21.6897 H   0  0  0  0  0  0
  -25.2769   -9.5692   22.4730 H   0  0  0  0  0  0
  -24.0012   -7.4636   22.7465 H   0  0  0  0  0  0
  -21.0842   -8.8758   19.8939 H   0  0  0  0  0  0
  -22.3695  -10.9653   19.6140 H   0  0  0  0  0  0
  -21.2022   -7.6146   23.9721 H   0  0  0  0  0  0
  -21.1484   -6.0517   25.9079 H   0  0  0  0  0  0
  -22.0598   -2.7608   23.2849 H   0  0  0  0  0  0
  -22.4067  -11.9807   22.4836 H   0  0  0  0  0  0
  -21.1041  -13.1154   22.2683 H   0  0  0  0  0  0
  -24.6359  -15.8455   20.5184 H   0  0  0  0  0  0
  -26.2418  -15.6358   20.0514 H   0  0  0  0  0  0
  -26.7333  -32.5236   23.0956 H   0  0  0  0  0  0
  -25.0125  -33.9557   25.0281 H   0  0  0  0  0  0
  -22.7618  -31.2876   21.3718 H   0  0  0  0  0  0
  -23.3743  -35.9598   23.3279 H   0  0  0  0  0  0
  -24.3588  -36.8917   22.2063 H   0  0  0  0  0  0
  -23.7258  -37.6451   23.6692 H   0  0  0  0  0  0
  -26.1743  -31.4418   20.6069 H   0  0  0  0  0  0
  -26.8831  -30.7467   22.0279 H   0  0  0  0  0  0
  -28.1325  -28.7456   21.2456 H   0  0  0  0  0  0
  -25.9099  -25.8018   19.0148 H   0  0  0  0  0  0
  -23.9901  -27.2875   18.9603 H   0  0  0  0  0  0
  -23.8207  -30.5616   19.3944 H   0  0  0  0  0  0
  -22.7912  -29.2390   19.8327 H   0  0  0  0  0  0
  -25.1314  -36.1831   25.0790 H   0  0  0  0  0  0
  -21.0033  -28.3392   24.1316 H   0  0  0  0  0  0
  -20.5714  -26.2391   23.3635 H   0  0  0  0  0  0
  -21.6670  -26.7475   22.1197 H   0  0  0  0  0  0
  -19.6958  -25.6304   21.1259 H   0  0  0  0  0  0
  -19.6718  -27.3185   20.6725 H   0  0  0  0  0  0
  -17.4233  -26.6689   21.4018 H   0  0  0  0  0  0
  -18.0365  -26.0114   22.9025 H   0  0  0  0  0  0
  -19.7967  -30.7322   24.2205 H   0  0  0  0  0  0
  -17.5044  -31.6269   24.5206 H   0  0  0  0  0  0
  -15.5381  -30.3003   23.7682 H   0  0  0  0  0  0
  -15.8696  -28.0858   22.7043 H   0  0  0  0  0  0
  -24.5925  -30.7081   25.7734 H   0  0  0  0  0  0
  -24.8895  -32.2958   26.4703 H   0  0  0  0  0  0
  -25.8011  -30.9041   27.0226 H   0  0  0  0  0  0
  -26.3053  -29.6620   24.1335 H   0  0  0  0  0  0
  -27.3995  -29.7254   25.4937 H   0  0  0  0  0  0
  -27.8973  -30.4119   23.9681 H   0  0  0  0  0  0
  -27.2638  -33.3644   26.1999 H   0  0  0  0  0  0
  -28.3930  -32.6841   25.0375 H   0  0  0  0  0  0
  -28.0666  -31.8497   26.5494 H   0  0  0  0  0  0
  -28.2571  -38.0090   24.7494 H   0  0  0  0  0  0
  -28.1073  -36.2614   24.6289 H   0  0  0  0  0  0
  -27.2285  -37.1438   25.8863 H   0  0  0  0  0  0
  -20.9501  -29.8764   21.6699 H   0  0  0  0  0  0
  -26.0134  -38.2801   24.1398 H   0  0  0  0  0  0
  -27.3071  -21.1497   18.7837 H   0  0  0  0  0  0
  -27.2973  -18.8295   17.8451 H   0  0  0  0  0  0
  -27.1913  -17.7903   19.2871 H   0  0  0  0  0  0
  -28.6470  -17.7591   18.2524 H   0  0  0  0  0  0
  -30.0456  -23.4766   20.1809 H   0  0  0  0  0  0
  -29.1445  -23.3052   21.6251 H   0  0  0  0  0  0
  -30.6494  -17.8764   21.6431 H   0  0  0  0  0  0
  -31.1792  -17.8495   19.9943 H   0  0  0  0  0  0
  -27.0711  -24.3020   20.5260 H   0  0  0  0  0  0
  -27.8775  -24.3865   18.9989 H   0  0  0  0  0  0
  -30.4775  -20.6693   21.4551 H   0  0  0  0  0  0
  -28.8037  -16.1286   20.5889 H   0  0  0  0  0  0
  1 25  1  0  0  0
  1 30  2  0  0  0
  1 80  1  0  0  0
  2  3  1  0  0  0
  2 25  1  0  0  0
  2 81  1  0  0  0
  2 82  1  0  0  0
  3  4  1  0  0  0
  3 83  1  0  0  0
  3 84  1  0  0  0
  4  5  1  0  0  0
  4 85  1  0  0  0
  4 86  1  0  0  0
  5  6  1  0  0  0
  5 26  1  0  0  0
  5 87  1  0  0  0
  6 25  1  0  0  0
  6 88  1  0  0  0
  6 89  1  0  0  0
  7  8  2  0  0  0
  7 26  1  0  0  0
  7 29  1  0  0  0
  8  9  1  0  0  0
  8 22  1  0  0  0
  9 10  1  0  0  0
  9 27  2  0  0  0
 10 11  2  0  0  0
 10 15  1  0  0  0
 11 12  1  0  0  0
 11 90  1  0  0  0
 12 13  2  0  0  0
 12 91  1  0  0  0
 13 14  1  0  0  0
 13 31  1  0  0  0
 14 15  2  0  0  0
 14 92  1  0  0  0
 15 93  1  0  0  0
 16 17  2  0  0  0
 16 21  1  0  0  0
 16 31  1  0  0  0
 17 18  1  0  0  0
 17 94  1  0  0  0
 18 19  2  0  0  0
 18 95  1  0  0  0
 19 20  1  0  0  0
 19 24  1  0  0  0
 20 21  2  0  0  0
 20 96  1  0  0  0
 21 23  1  0  0  0
 22 28  1  0  0  0
 22 32  2  0  0  0
 26 27  1  0  0  0
 28 97  1  0  0  0
 28 98  1  0  0  0
 29 99  1  0  0  0
 29100  1  0  0  0
 33 34  1  0  0  0
 33 66  1  0  0  0
 33 70  2  0  0  0
 34 36  1  0  0  0
 34 59  1  0  0  0
 34101  1  0  0  0
 35 44  2  0  0  0
 35 45  1  0  0  0
 35 68  1  0  0  0
 36 56  1  0  0  0
 36102  1  0  0  0
 37 39  1  0  0  0
 37 47  1  0  0  0
 37 66  1  0  0  0
 37103  1  0  0  0
 38 43  2  0  0  0
 38 46  1  0  0  0
 38 47  1  0  0  0
 39 64  1  0  0  0
 39 67  2  0  0  0
 40 52  1  0  0  0
 40 53  2  0  0  0
 40 58  1  0  0  0
 41104  1  0  0  0
 41105  1  0  0  0
 41106  1  0  0  0
 41 48  1  0  0  0
 42 43  1  0  0  0
 42 66  1  0  0  0
 42107  1  0  0  0
 42108  1  0  0  0
 43 44  1  0  0  0
 44109  1  0  0  0
 45 46  2  0  0  0
 45110  1  0  0  0
 46111  1  0  0  0
 47112  1  0  0  0
 47113  1  0  0  0
 48 56  1  0  0  0
 48 65  1  0  0  0
 48114  1  0  0  0
 49 50  1  0  0  0
 49 53  1  0  0  0
 49 64  1  0  0  0
 49115  1  0  0  0
 50 51  1  0  0  0
 50116  1  0  0  0
 50117  1  0  0  0
 51 52  1  0  0  0
 51118  1  0  0  0
 51119  1  0  0  0
 52120  1  0  0  0
 52121  1  0  0  0
 53 54  1  0  0  0
 54 55  2  0  0  0
 54122  1  0  0  0
 55 57  1  0  0  0
 55123  1  0  0  0
 56 69  2  0  0  0
 57 58  2  0  0  0
 57124  1  0  0  0
 58125  1  0  0  0
 59 60  1  0  0  0
 59 61  1  0  0  0
 59 62  1  0  0  0
 60126  1  0  0  0
 60127  1  0  0  0
 60128  1  0  0  0
 61129  1  0  0  0
 61130  1  0  0  0
 61131  1  0  0  0
 62132  1  0  0  0
 62133  1  0  0  0
 62134  1  0  0  0
 63 65  1  0  0  0
 63135  1  0  0  0
 63136  1  0  0  0
 63137  1  0  0  0
 64138  1  0  0  0
 65139  1  0  0  0
 68 77  1  0  0  0
 71 72  2  0  0  0
 71 78  1  0  0  0
 71140  1  0  0  0
 72 75  1  0  0  0
 72 79  1  0  0  0
 73 76  1  0  0  0
 73 78  1  0  0  0
 73 79  2  0  0  0
 74 78  1  0  0  0
 74141  1  0  0  0
 74142  1  0  0  0
 74143  1  0  0  0
 75 77  1  0  0  0
 75144  1  0  0  0
 75145  1  0  0  0
 76 80  1  0  0  0
 76146  1  0  0  0
 76147  1  0  0  0
 77148  1  0  0  0
 77149  1  0  0  0
 79150  1  0  0  0
 80151  1  0  0  0
M  CHG  1  79   1
M  ISO  4   1 100  68 101  77 101  80 100
M  END
> <chiral flag>
0

> <version>
0

> <s_m_source_file>
/data/baiqing/PycharmProjects/Reinvent-master-3.2/result/LINK_invent/BTK/process_docking_weight1_custom_sum_contain_oxygen_bond_distance_aromatic_linkinvent_7_9_3/rearranged_h_0052.sdf

> <i_m_source_file_index>
3

> <r_mmod_Potential_Energy-OPLS-2005>
484.205657958984

> <r_mmod_Stretch_Energy-OPLS-2005>
313.835021972656

> <r_mmod_Bend_Energy-OPLS-2005>
292.995941162109

> <r_mmod_Torsional_Energy-OPLS-2005>
202.770523071289

> <r_mmod_Improper_Torsional_Energy-OPLS-2005>
4.68499374389648

> <r_mmod_Van_der_Waal_Energy-OPLS-2005>
105.660995483398

> <r_mmod_Electrostatic_Energy-OPLS-2005>
-235.794128417969

> <r_mmod_Solvation_Energy-OPLS-2005>
-447.572692871094

> <b_mmod_Minimization_Converged-OPLS-2005>
0

> <r_mmod_RMS_Derivative-OPLS-2005>
2.73739862442017

$$$$
3
                    3D
 Structure written by MMmdl.
160168  0  0  1  0            999 V2000
  -30.6510  -14.7321   20.5051 C   0  0  0  0  0  0
  -30.4302  -12.4549   19.4892 C   0  0  0  0  0  0
  -29.5154  -12.5021   18.2467 C   0  0  0  0  0  0
  -28.0441  -12.3104   18.6590 C   0  0  0  0  0  0
  -27.6424  -13.2230   19.8469 C   0  0  2  0  0  0
  -28.6788  -13.1550   20.9849 C   0  0  0  0  0  0
  -25.2536  -13.8172   20.5728 C   0  0  0  0  0  0
  -24.1789  -13.0443   20.9193 C   0  0  0  0  0  0
  -24.6353  -11.6904   20.8719 C   0  0  0  0  0  0
  -23.9018  -10.4290   21.0394 C   0  0  0  0  0  0
  -24.3576   -9.4214   21.9183 C   0  0  0  0  0  0
  -23.6249   -8.2250   22.0760 C   0  0  0  0  0  0
  -22.4244   -8.0268   21.3540 C   0  0  0  0  0  0
  -21.9858   -9.0245   20.4657 C   0  0  0  0  0  0
  -22.7182  -10.2129   20.3059 C   0  0  0  0  0  0
  -21.6846   -6.0717   22.5275 C   0  0  0  0  0  0
  -21.4010   -6.5621   23.8205 C   0  0  0  0  0  0
  -21.3672   -5.6781   24.9172 C   0  0  0  0  0  0
  -21.6056   -4.3045   24.7222 C   0  0  0  0  0  0
  -21.8818   -3.8126   23.4344 C   0  0  0  0  0  0
  -21.9187   -4.6942   22.3398 C   0  0  0  0  0  0
  -22.7818  -13.5241   21.1839 C   0  0  0  0  0  0
  -22.1656   -4.2121   21.0978 F   0  0  0  0  0  0
  -21.5644   -3.4540   25.7742 F   0  0  0  0  0  0
  -29.9869  -13.5226   20.4200 N   0  0  0  0  0  0
  -26.2930  -12.9358   20.3232 N   0  0  0  0  0  0
  -25.9286  -11.6508   20.5707 N   0  0  0  0  0  0
  -22.0442  -12.8269   22.0394 N   0  0  0  0  0  0
  -25.4286  -15.1903   20.4299 N   0  0  0  0  0  0
  -31.8093  -14.7985   20.0814 O   0  0  0  0  0  0
  -21.6627   -6.8855   21.4234 O   0  0  0  0  0  0
  -22.3531  -14.5561   20.6681 O   0  0  0  0  0  0
  -24.6322  -31.8545   23.1941 C   0  0  0  0  0  0
  -25.9160  -32.4740   23.8292 C   0  0  1  0  0  0
  -27.2127  -27.2545   20.1454 C   0  0  0  0  0  0
  -25.5951  -33.8537   24.2226 N   0  0  0  0  0  0
  -23.4267  -30.4751   21.5381 C   0  0  2  0  0  0
  -24.8724  -28.9127   20.1131 C   0  0  0  0  0  0
  -22.7493  -29.4625   22.4930 C   0  0  0  0  0  0
  -18.0308  -28.1384   22.8483 C   0  0  0  0  0  0
  -24.1498  -36.7273   23.2630 C   0  0  0  0  0  0
  -25.9715  -30.7662   21.3722 C   0  0  0  0  0  0
  -26.0439  -29.3874   20.7177 C   0  0  0  0  0  0
  -27.2213  -28.5723   20.7157 C   0  0  0  0  0  0
  -26.0215  -26.8393   19.5187 C   0  0  0  0  0  0
  -24.8660  -27.6472   19.5005 C   0  0  0  0  0  0
  -23.6434  -29.8009   20.1565 C   0  0  0  0  0  0
  -25.4113  -36.3036   24.0313 C   0  0  1  0  0  0
  -20.5897  -28.3703   23.1293 C   0  0  2  0  0  0
  -20.6801  -26.9449   22.5386 C   0  0  0  0  0  0
  -19.5791  -26.6453   21.5160 C   0  0  0  0  0  0
  -18.1967  -26.7969   22.1560 C   0  0  0  0  0  0
  -19.1548  -28.8846   23.2897 C   0  0  0  0  0  0
  -18.9458  -30.1440   23.8937 C   0  0  0  0  0  0
  -17.6452  -30.6561   24.0578 C   0  0  0  0  0  0
  -25.9059  -34.9420   23.5068 C   0  0  0  0  0  0
  -16.5347  -29.9060   23.6322 C   0  0  0  0  0  0
  -16.7294  -28.6478   23.0356 C   0  0  0  0  0  0
  -26.4518  -31.6575   25.0699 C   0  0  0  0  0  0
  -25.3724  -31.3771   26.1414 C   0  0  0  0  0  0
  -27.0356  -30.2970   24.6228 C   0  0  0  0  0  0
  -27.6062  -32.4313   25.7495 C   0  0  0  0  0  0
  -27.5575  -37.1789   24.8459 C   0  0  0  0  0  0
  -21.4206  -29.3075   22.3703 N   0  0  0  0  0  0
  -26.4287  -37.3738   23.9401 N   0  0  0  0  0  0
  -24.6957  -31.0515   22.0908 N   0  0  0  0  0  0
  -23.4187  -28.8162   23.3038 O   0  0  0  0  0  0
  -28.3069  -26.3657   20.1499 O   0  0  0  0  0  0
  -26.5640  -34.8913   22.4645 O   0  0  0  0  0  0
  -23.5470  -32.1413   23.7228 O   0  0  0  0  0  0
  -27.4764  -18.8012   19.6198 C   0  0  0  0  0  0
  -26.8607  -20.9395   19.6826 C   0  0  0  0  0  0
  -26.3965  -19.6878   19.4020 C   0  0  0  0  0  0
  -28.5677  -19.4913   20.0740 C   0  0  0  0  0  0
  -25.0039  -19.3054   18.9790 C   0  0  0  0  0  0
  -29.4867  -16.1658   22.1359 C   0  0  0  0  0  0
  -29.8601  -18.7336   20.4976 C   0  0  0  0  0  0
  -28.4855  -23.6258   19.8295 C   0  0  0  0  0  0
  -28.8471  -22.1973   20.5527 C   0  0  0  0  0  0
  -30.1326  -17.2087   19.9564 C   0  0  0  0  0  0
  -28.1387  -24.9659   20.6821 C   0  0  0  0  0  0
  -28.1882  -20.9007   20.0927 N   0  0  0  0  0  0
  -29.9489  -15.9147   20.7686 N   0  0  0  0  0  0
  -31.4733  -12.5627   19.1879 H   0  0  0  0  0  0
  -30.3731  -11.4818   19.9809 H   0  0  0  0  0  0
  -29.8091  -11.7336   17.5312 H   0  0  0  0  0  0
  -29.6364  -13.4579   17.7360 H   0  0  0  0  0  0
  -27.9202  -11.2664   18.9495 H   0  0  0  0  0  0
  -27.3821  -12.4701   17.8074 H   0  0  0  0  0  0
  -27.6406  -14.2440   19.4626 H   0  0  0  0  0  0
  -28.7163  -12.1561   21.4208 H   0  0  0  0  0  0
  -28.3633  -13.8097   21.7924 H   0  0  0  0  0  0
  -25.2740   -9.5702   22.4733 H   0  0  0  0  0  0
  -23.9979   -7.4658   22.7490 H   0  0  0  0  0  0
  -21.0779   -8.8748   19.8958 H   0  0  0  0  0  0
  -22.3630  -10.9657   19.6152 H   0  0  0  0  0  0
  -21.1982   -7.6123   23.9696 H   0  0  0  0  0  0
  -21.1508   -6.0513   25.9076 H   0  0  0  0  0  0
  -22.0576   -2.7579   23.2852 H   0  0  0  0  0  0
  -22.4037  -11.9946   22.4823 H   0  0  0  0  0  0
  -21.1072  -13.1327   22.2599 H   0  0  0  0  0  0
  -24.6806  -15.8531   20.5957 H   0  0  0  0  0  0
  -26.3023  -15.6314   20.1754 H   0  0  0  0  0  0
  -26.7228  -32.5387   23.1026 H   0  0  0  0  0  0
  -25.0082  -33.9664   25.0359 H   0  0  0  0  0  0
  -22.7211  -31.2955   21.3888 H   0  0  0  0  0  0
  -23.3746  -35.9622   23.3287 H   0  0  0  0  0  0
  -24.3601  -36.8912   22.2050 H   0  0  0  0  0  0
  -23.7294  -37.6483   23.6681 H   0  0  0  0  0  0
  -26.1140  -31.5237   20.6004 H   0  0  0  0  0  0
  -26.8461  -30.8132   22.0092 H   0  0  0  0  0  0
  -28.1221  -28.9318   21.1934 H   0  0  0  0  0  0
  -25.9796  -25.8628   19.0551 H   0  0  0  0  0  0
  -23.9680  -27.2762   19.0233 H   0  0  0  0  0  0
  -23.7621  -30.5729   19.3937 H   0  0  0  0  0  0
  -22.7621  -29.2312   19.8552 H   0  0  0  0  0  0
  -25.1306  -36.1855   25.0808 H   0  0  0  0  0  0
  -20.9980  -28.3248   24.1418 H   0  0  0  0  0  0
  -20.5722  -26.2289   23.3560 H   0  0  0  0  0  0
  -21.6667  -26.7512   22.1159 H   0  0  0  0  0  0
  -19.6942  -25.6397   21.1127 H   0  0  0  0  0  0
  -19.6734  -27.3333   20.6722 H   0  0  0  0  0  0
  -17.4265  -26.6791   21.3917 H   0  0  0  0  0  0
  -18.0316  -26.0066   22.8909 H   0  0  0  0  0  0
  -19.7926  -30.7217   24.2372 H   0  0  0  0  0  0
  -17.4979  -31.6237   24.5195 H   0  0  0  0  0  0
  -15.5342  -30.2957   23.7626 H   0  0  0  0  0  0
  -15.8686  -28.0796   22.7080 H   0  0  0  0  0  0
  -24.5889  -30.7124   25.7761 H   0  0  0  0  0  0
  -24.8931  -32.2966   26.4784 H   0  0  0  0  0  0
  -25.8017  -30.8995   27.0226 H   0  0  0  0  0  0
  -26.2947  -29.6721   24.1223 H   0  0  0  0  0  0
  -27.3974  -29.7240   25.4780 H   0  0  0  0  0  0
  -27.8859  -30.4214   23.9514 H   0  0  0  0  0  0
  -27.2646  -33.3600   26.2075 H   0  0  0  0  0  0
  -28.3882  -32.6887   25.0338 H   0  0  0  0  0  0
  -28.0717  -31.8433   26.5423 H   0  0  0  0  0  0
  -28.2575  -38.0095   24.7466 H   0  0  0  0  0  0
  -28.1076  -36.2620   24.6299 H   0  0  0  0  0  0
  -27.2295  -37.1441   25.8863 H   0  0  0  0  0  0
  -20.9395  -29.8748   21.6856 H   0  0  0  0  0  0
  -26.0150  -38.2813   24.1370 H   0  0  0  0  0  0
  -27.4414  -17.7263   19.4972 H   0  0  0  0  0  0
  -26.3263  -21.8792   19.6519 H   0  0  0  0  0  0
  -24.7676  -18.2935   19.3130 H   0  0  0  0  0  0
  -24.9078  -19.3340   17.8942 H   0  0  0  0  0  0
  -24.2718  -19.9899   19.4107 H   0  0  0  0  0  0
  -30.1135  -16.9124   22.6215 H   0  0  0  0  0  0
  -29.5397  -15.2895   22.7794 H   0  0  0  0  0  0
  -28.4587  -16.5287   22.1275 H   0  0  0  0  0  0
  -29.9681  -18.7907   21.5786 H   0  0  0  0  0  0
  -30.6921  -19.3329   20.1254 H   0  0  0  0  0  0
  -29.3515  -23.8636   19.2122 H   0  0  0  0  0  0
  -27.6839  -23.4878   19.1068 H   0  0  0  0  0  0
  -28.6087  -22.2969   21.6125 H   0  0  0  0  0  0
  -29.9264  -22.0471   20.5173 H   0  0  0  0  0  0
  -31.1864  -17.2071   19.6710 H   0  0  0  0  0  0
  -29.6207  -17.0745   19.0030 H   0  0  0  0  0  0
  -28.7789  -24.9371   21.5647 H   0  0  0  0  0  0
  -27.1317  -24.8546   21.0891 H   0  0  0  0  0  0
  1 25  1  0  0  0
  1 30  2  0  0  0
  1 83  1  0  0  0
  2  3  1  0  0  0
  2 25  1  0  0  0
  2 84  1  0  0  0
  2 85  1  0  0  0
  3  4  1  0  0  0
  3 86  1  0  0  0
  3 87  1  0  0  0
  4  5  1  0  0  0
  4 88  1  0  0  0
  4 89  1  0  0  0
  5  6  1  0  0  0
  5 26  1  0  0  0
  5 90  1  0  0  0
  6 25  1  0  0  0
  6 91  1  0  0  0
  6 92  1  0  0  0
  7  8  2  0  0  0
  7 26  1  0  0  0
  7 29  1  0  0  0
  8  9  1  0  0  0
  8 22  1  0  0  0
  9 10  1  0  0  0
  9 27  2  0  0  0
 10 11  2  0  0  0
 10 15  1  0  0  0
 11 12  1  0  0  0
 11 93  1  0  0  0
 12 13  2  0  0  0
 12 94  1  0  0  0
 13 14  1  0  0  0
 13 31  1  0  0  0
 14 15  2  0  0  0
 14 95  1  0  0  0
 15 96  1  0  0  0
 16 17  2  0  0  0
 16 21  1  0  0  0
 16 31  1  0  0  0
 17 18  1  0  0  0
 17 97  1  0  0  0
 18 19  2  0  0  0
 18 98  1  0  0  0
 19 20  1  0  0  0
 19 24  1  0  0  0
 20 21  2  0  0  0
 20 99  1  0  0  0
 21 23  1  0  0  0
 22 28  1  0  0  0
 22 32  2  0  0  0
 26 27  1  0  0  0
 28100  1  0  0  0
 28101  1  0  0  0
 29102  1  0  0  0
 29103  1  0  0  0
 33 34  1  0  0  0
 33 66  1  0  0  0
 33 70  2  0  0  0
 34 36  1  0  0  0
 34 59  1  0  0  0
 34104  1  0  0  0
 35 44  2  0  0  0
 35 45  1  0  0  0
 35 68  1  0  0  0
 36 56  1  0  0  0
 36105  1  0  0  0
 37 39  1  0  0  0
 37 47  1  0  0  0
 37 66  1  0  0  0
 37106  1  0  0  0
 38 43  2  0  0  0
 38 46  1  0  0  0
 38 47  1  0  0  0
 39 64  1  0  0  0
 39 67  2  0  0  0
 40 52  1  0  0  0
 40 53  2  0  0  0
 40 58  1  0  0  0
 41107  1  0  0  0
 41108  1  0  0  0
 41109  1  0  0  0
 41 48  1  0  0  0
 42 43  1  0  0  0
 42 66  1  0  0  0
 42110  1  0  0  0
 42111  1  0  0  0
 43 44  1  0  0  0
 44112  1  0  0  0
 45 46  2  0  0  0
 45113  1  0  0  0
 46114  1  0  0  0
 47115  1  0  0  0
 47116  1  0  0  0
 48 56  1  0  0  0
 48 65  1  0  0  0
 48117  1  0  0  0
 49 50  1  0  0  0
 49 53  1  0  0  0
 49 64  1  0  0  0
 49118  1  0  0  0
 50 51  1  0  0  0
 50119  1  0  0  0
 50120  1  0  0  0
 51 52  1  0  0  0
 51121  1  0  0  0
 51122  1  0  0  0
 52123  1  0  0  0
 52124  1  0  0  0
 53 54  1  0  0  0
 54 55  2  0  0  0
 54125  1  0  0  0
 55 57  1  0  0  0
 55126  1  0  0  0
 56 69  2  0  0  0
 57 58  2  0  0  0
 57127  1  0  0  0
 58128  1  0  0  0
 59 60  1  0  0  0
 59 61  1  0  0  0
 59 62  1  0  0  0
 60129  1  0  0  0
 60130  1  0  0  0
 60131  1  0  0  0
 61132  1  0  0  0
 61133  1  0  0  0
 61134  1  0  0  0
 62135  1  0  0  0
 62136  1  0  0  0
 62137  1  0  0  0
 63 65  1  0  0  0
 63138  1  0  0  0
 63139  1  0  0  0
 63140  1  0  0  0
 64141  1  0  0  0
 65142  1  0  0  0
 68 81  1  0  0  0
 71 73  1  0  0  0
 71 74  2  0  0  0
 71143  1  0  0  0
 72 73  2  0  0  0
 72 82  1  0  0  0
 72144  1  0  0  0
 73 75  1  0  0  0
 74 77  1  0  0  0
 74 82  1  0  0  0
 75145  1  0  0  0
 75146  1  0  0  0
 75147  1  0  0  0
 76 83  1  0  0  0
 76148  1  0  0  0
 76149  1  0  0  0
 76150  1  0  0  0
 77 80  1  0  0  0
 77151  1  0  0  0
 77152  1  0  0  0
 78 79  1  0  0  0
 78 81  1  0  0  0
 78153  1  0  0  0
 78154  1  0  0  0
 79 82  1  0  0  0
 79155  1  0  0  0
 79156  1  0  0  0
 80 83  1  0  0  0
 80157  1  0  0  0
 80158  1  0  0  0
 81159  1  0  0  0
 81160  1  0  0  0
M  ISO  4   1 100  68 101  81 101  83 100
M  END
> <chiral flag>
0

> <version>
0

> <s_m_source_file>
/data/baiqing/PycharmProjects/Reinvent-master-3.2/result/LINK_invent/BTK/process_docking_weight1_custom_sum_contain_oxygen_bond_distance_aromatic_linkinvent_7_9_3/rearranged_h_0052.sdf

> <i_m_source_file_index>
4

> <r_mmod_Potential_Energy-OPLS-2005>
371.750823974609

> <r_mmod_Stretch_Energy-OPLS-2005>
141.062942504883

> <r_mmod_Bend_Energy-OPLS-2005>
213.789688110352

> <r_mmod_Torsional_Energy-OPLS-2005>
332.110076904297

> <r_mmod_Improper_Torsional_Energy-OPLS-2005>
9.61634540557861

> <r_mmod_Van_der_Waal_Energy-OPLS-2005>
116.283538818359

> <r_mmod_Electrostatic_Energy-OPLS-2005>
-325.601257324219

> <r_mmod_Solvation_Energy-OPLS-2005>
-196.689559936523

> <b_mmod_Minimization_Converged-OPLS-2005>
0

> <r_mmod_RMS_Derivative-OPLS-2005>
3.2544801235199

$$$$
4
                    3D
 Structure written by MMmdl.
162170  0  0  1  0            999 V2000
  -30.7537  -14.4641   20.5827 C   0  0  0  0  0  0
  -30.4347  -12.2734   19.4683 C   0  0  0  0  0  0
  -29.5267  -12.4737   18.2435 C   0  0  0  0  0  0
  -28.0476  -12.3422   18.6593 C   0  0  0  0  0  0
  -27.6781  -13.2166   19.8856 C   0  0  2  0  0  0
  -28.7231  -13.0388   21.0161 C   0  0  0  0  0  0
  -25.2669  -13.8157   20.5770 C   0  0  0  0  0  0
  -24.1949  -13.0395   20.9201 C   0  0  0  0  0  0
  -24.6521  -11.6861   20.8722 C   0  0  0  0  0  0
  -23.9160  -10.4235   21.0457 C   0  0  0  0  0  0
  -24.3637   -9.4095   21.9232 C   0  0  0  0  0  0
  -23.6247   -8.2185   22.0755 C   0  0  0  0  0  0
  -22.4270   -8.0231   21.3544 C   0  0  0  0  0  0
  -21.9933   -9.0232   20.4691 C   0  0  0  0  0  0
  -22.7275  -10.2079   20.3112 C   0  0  0  0  0  0
  -21.6813   -6.0701   22.5285 C   0  0  0  0  0  0
  -21.3975   -6.5611   23.8203 C   0  0  0  0  0  0
  -21.3678   -5.6787   24.9197 C   0  0  0  0  0  0
  -21.6046   -4.3043   24.7261 C   0  0  0  0  0  0
  -21.8819   -3.8118   23.4376 C   0  0  0  0  0  0
  -21.9160   -4.6943   22.3420 C   0  0  0  0  0  0
  -22.7891  -13.5156   21.1877 C   0  0  0  0  0  0
  -22.1634   -4.2120   21.0995 F   0  0  0  0  0  0
  -21.5640   -3.4525   25.7764 F   0  0  0  0  0  0
  -30.0537  -13.2962   20.4597 N   0  0  0  0  0  0
  -26.3186  -12.9367   20.3428 N   0  0  0  0  0  0
  -25.9417  -11.6495   20.5639 N   0  0  0  0  0  0
  -22.0488  -12.8195   22.0489 N   0  0  0  0  0  0
  -25.4263  -15.1907   20.4208 N   0  0  0  0  0  0
  -31.8359  -14.6104   20.0126 O   0  0  0  0  0  0
  -21.6572   -6.8863   21.4238 O   0  0  0  0  0  0
  -22.3532  -14.5366   20.6614 O   0  0  0  0  0  0
  -24.6230  -31.8676   23.1995 C   0  0  0  0  0  0
  -25.9080  -32.4805   23.8349 C   0  0  1  0  0  0
  -27.2301  -27.3438   20.1220 C   0  0  0  0  0  0
  -25.5904  -33.8607   24.2262 N   0  0  0  0  0  0
  -23.4144  -30.4942   21.5421 C   0  0  2  0  0  0
  -24.8597  -28.9453   20.1167 C   0  0  0  0  0  0
  -22.7420  -29.4738   22.4934 C   0  0  0  0  0  0
  -18.0291  -28.1385   22.8480 C   0  0  0  0  0  0
  -24.1493  -36.7293   23.2642 C   0  0  0  0  0  0
  -25.9549  -30.8099   21.3666 C   0  0  0  0  0  0
  -26.0270  -29.4369   20.7092 C   0  0  0  0  0  0
  -27.2112  -28.6458   20.7029 C   0  0  0  0  0  0
  -26.0235  -26.8812   19.5426 C   0  0  0  0  0  0
  -24.8570  -27.6666   19.5386 C   0  0  0  0  0  0
  -23.6255  -29.8211   20.1627 C   0  0  0  0  0  0
  -25.4127  -36.3097   24.0328 C   0  0  1  0  0  0
  -20.5876  -28.3710   23.1261 C   0  0  2  0  0  0
  -20.6791  -26.9427   22.5396 C   0  0  0  0  0  0
  -19.5767  -26.6388   21.5211 C   0  0  0  0  0  0
  -18.1947  -26.7928   22.1604 C   0  0  0  0  0  0
  -19.1535  -28.8869   23.2871 C   0  0  0  0  0  0
  -18.9462  -30.1477   23.8888 C   0  0  0  0  0  0
  -17.6469  -30.6596   24.0578 C   0  0  0  0  0  0
  -25.9063  -34.9474   23.5087 C   0  0  0  0  0  0
  -16.5362  -29.9115   23.6327 C   0  0  0  0  0  0
  -16.7284  -28.6521   23.0356 C   0  0  0  0  0  0
  -26.4467  -31.6611   25.0719 C   0  0  0  0  0  0
  -25.3644  -31.3817   26.1389 C   0  0  0  0  0  0
  -27.0353  -30.3013   24.6273 C   0  0  0  0  0  0
  -27.6032  -32.4352   25.7492 C   0  0  0  0  0  0
  -27.5585  -37.1805   24.8456 C   0  0  0  0  0  0
  -21.4136  -29.3083   22.3628 N   0  0  0  0  0  0
  -26.4299  -37.3779   23.9387 N   0  0  0  0  0  0
  -24.6814  -31.0750   22.0936 N   0  0  0  0  0  0
  -23.4134  -28.8272   23.3014 O   0  0  0  0  0  0
  -28.3865  -26.5579   20.1772 O   0  0  0  0  0  0
  -26.5638  -34.8933   22.4654 O   0  0  0  0  0  0
  -23.5401  -32.1498   23.7384 O   0  0  0  0  0  0
  -27.9146  -21.3557   21.3169 C   0  0  0  0  0  0
  -27.0021  -23.4459   20.5025 C   0  0  0  0  0  0
  -26.7931  -22.1645   21.0571 C   0  0  0  0  0  0
  -29.2053  -21.8522   21.0316 C   0  0  0  0  0  0
  -28.3050  -23.9249   20.2625 C   0  0  0  0  0  0
  -25.3851  -21.6428   21.3095 C   0  0  0  0  0  0
  -30.5945  -18.3593   22.9058 C   0  0  0  0  0  0
  -30.4656  -20.9795   21.2883 C   0  0  0  0  0  0
  -28.5080  -25.2725   19.4790 C   0  0  0  0  0  0
  -30.2187  -15.6866   21.3755 C   0  0  0  0  0  0
  -30.5880  -19.5341   20.6642 C   0  0  0  0  0  0
  -30.7154  -17.0566   20.7982 C   0  0  0  0  0  0
  -29.3861  -23.1196   20.5381 N   0  0  0  0  0  0
  -30.2147  -18.3101   21.4690 N   0  3  1  0  0  0
  -31.4849  -12.3190   19.1781 H   0  0  0  0  0  0
  -30.2912  -11.2755   19.8922 H   0  0  0  0  0  0
  -29.7572  -11.7329   17.4775 H   0  0  0  0  0  0
  -29.7303  -13.4481   17.7981 H   0  0  0  0  0  0
  -27.8962  -11.2928   18.9043 H   0  0  0  0  0  0
  -27.3902  -12.5497   17.8132 H   0  0  0  0  0  0
  -27.7257  -14.2560   19.5598 H   0  0  0  0  0  0
  -28.6985  -12.0208   21.4006 H   0  0  0  0  0  0
  -28.5107  -13.6598   21.8886 H   0  0  0  0  0  0
  -25.2788   -9.5500   22.4820 H   0  0  0  0  0  0
  -23.9958   -7.4548   22.7446 H   0  0  0  0  0  0
  -21.0859   -8.8742   19.8983 H   0  0  0  0  0  0
  -22.3745  -10.9638   19.6231 H   0  0  0  0  0  0
  -21.1907   -7.6104   23.9749 H   0  0  0  0  0  0
  -21.1547   -6.0490   25.9122 H   0  0  0  0  0  0
  -22.0600   -2.7581   23.2874 H   0  0  0  0  0  0
  -22.3905  -11.9797   22.4930 H   0  0  0  0  0  0
  -21.1091  -13.1202   22.2726 H   0  0  0  0  0  0
  -24.6321  -15.8152   20.5401 H   0  0  0  0  0  0
  -26.2614  -15.6671   20.0990 H   0  0  0  0  0  0
  -26.7160  -32.5503   23.1117 H   0  0  0  0  0  0
  -24.9998  -33.9733   25.0385 H   0  0  0  0  0  0
  -22.7070  -31.3146   21.3943 H   0  0  0  0  0  0
  -23.3753  -35.9622   23.3338 H   0  0  0  0  0  0
  -24.3576  -36.8880   22.2042 H   0  0  0  0  0  0
  -23.7248  -37.6509   23.6646 H   0  0  0  0  0  0
  -26.0865  -31.5884   20.6141 H   0  0  0  0  0  0
  -26.8307  -30.8502   22.0023 H   0  0  0  0  0  0
  -28.1107  -29.0292   21.1665 H   0  0  0  0  0  0
  -25.9307  -25.8935   19.1335 H   0  0  0  0  0  0
  -23.9429  -27.2689   19.1188 H   0  0  0  0  0  0
  -23.7193  -30.5916   19.3943 H   0  0  0  0  0  0
  -22.7493  -29.2336   19.8769 H   0  0  0  0  0  0
  -25.1311  -36.1960   25.0825 H   0  0  0  0  0  0
  -20.9990  -28.3329   24.1379 H   0  0  0  0  0  0
  -20.5693  -26.2350   23.3622 H   0  0  0  0  0  0
  -21.6677  -26.7485   22.1205 H   0  0  0  0  0  0
  -19.6944  -25.6306   21.1272 H   0  0  0  0  0  0
  -19.6710  -27.3170   20.6728 H   0  0  0  0  0  0
  -17.4218  -26.6676   21.4009 H   0  0  0  0  0  0
  -18.0342  -26.0091   22.9013 H   0  0  0  0  0  0
  -19.7960  -30.7281   24.2235 H   0  0  0  0  0  0
  -17.5051  -31.6266   24.5172 H   0  0  0  0  0  0
  -15.5364  -30.3006   23.7692 H   0  0  0  0  0  0
  -15.8679  -28.0843   22.7082 H   0  0  0  0  0  0
  -24.5829  -30.7168   25.7661 H   0  0  0  0  0  0
  -24.8817  -32.3032   26.4655 H   0  0  0  0  0  0
  -25.7862  -30.9055   27.0240 H   0  0  0  0  0  0
  -26.3012  -29.6719   24.1210 H   0  0  0  0  0  0
  -27.3899  -29.7296   25.4860 H   0  0  0  0  0  0
  -27.8919  -30.4233   23.9640 H   0  0  0  0  0  0
  -27.2635  -33.3663   26.2024 H   0  0  0  0  0  0
  -28.3843  -32.6880   25.0318 H   0  0  0  0  0  0
  -28.0677  -31.8498   26.5423 H   0  0  0  0  0  0
  -28.2606  -38.0105   24.7504 H   0  0  0  0  0  0
  -28.1078  -36.2624   24.6288 H   0  0  0  0  0  0
  -27.2285  -37.1463   25.8857 H   0  0  0  0  0  0
  -20.9307  -29.8727   21.6769 H   0  0  0  0  0  0
  -26.0195  -38.2867   24.1344 H   0  0  0  0  0  0
  -27.7725  -20.3569   21.7133 H   0  0  0  0  0  0
  -26.1530  -24.0431   20.2005 H   0  0  0  0  0  0
  -25.3752  -20.5776   21.5303 H   0  0  0  0  0  0
  -24.7444  -21.7992   20.4387 H   0  0  0  0  0  0
  -24.9443  -22.1620   22.1638 H   0  0  0  0  0  0
  -30.2434  -17.4786   23.4458 H   0  0  0  0  0  0
  -30.1213  -19.1959   23.4162 H   0  0  0  0  0  0
  -31.6750  -18.4289   23.0604 H   0  0  0  0  0  0
  -30.7083  -20.9797   22.3464 H   0  0  0  0  0  0
  -31.2917  -21.5381   20.8426 H   0  0  0  0  0  0
  -27.8725  -25.2582   18.5976 H   0  0  0  0  0  0
  -29.5147  -25.2530   19.0534 H   0  0  0  0  0  0
  -29.1341  -15.6895   21.3844 H   0  0  0  0  0  0
  -30.5483  -15.5482   22.4045 H   0  0  0  0  0  0
  -31.6495  -19.4111   20.4303 H   0  0  0  0  0  0
  -30.0785  -19.4989   19.7006 H   0  0  0  0  0  0
  -30.4249  -17.0965   19.7473 H   0  0  0  0  0  0
  -31.8115  -17.0663   20.8047 H   0  0  0  0  0  0
  -29.2071  -18.2773   21.4641 H   0  0  0  0  0  0
  1 25  1  0  0  0
  1 30  2  0  0  0
  1 80  1  0  0  0
  2  3  1  0  0  0
  2 25  1  0  0  0
  2 85  1  0  0  0
  2 86  1  0  0  0
  3  4  1  0  0  0
  3 87  1  0  0  0
  3 88  1  0  0  0
  4  5  1  0  0  0
  4 89  1  0  0  0
  4 90  1  0  0  0
  5  6  1  0  0  0
  5 26  1  0  0  0
  5 91  1  0  0  0
  6 25  1  0  0  0
  6 92  1  0  0  0
  6 93  1  0  0  0
  7  8  2  0  0  0
  7 26  1  0  0  0
  7 29  1  0  0  0
  8  9  1  0  0  0
  8 22  1  0  0  0
  9 10  1  0  0  0
  9 27  2  0  0  0
 10 11  2  0  0  0
 10 15  1  0  0  0
 11 12  1  0  0  0
 11 94  1  0  0  0
 12 13  2  0  0  0
 12 95  1  0  0  0
 13 14  1  0  0  0
 13 31  1  0  0  0
 14 15  2  0  0  0
 14 96  1  0  0  0
 15 97  1  0  0  0
 16 17  2  0  0  0
 16 21  1  0  0  0
 16 31  1  0  0  0
 17 18  1  0  0  0
 17 98  1  0  0  0
 18 19  2  0  0  0
 18 99  1  0  0  0
 19 20  1  0  0  0
 19 24  1  0  0  0
 20 21  2  0  0  0
 20100  1  0  0  0
 21 23  1  0  0  0
 22 28  1  0  0  0
 22 32  2  0  0  0
 26 27  1  0  0  0
 28101  1  0  0  0
 28102  1  0  0  0
 29103  1  0  0  0
 29104  1  0  0  0
 33 34  1  0  0  0
 33 66  1  0  0  0
 33 70  2  0  0  0
 34 36  1  0  0  0
 34 59  1  0  0  0
 34105  1  0  0  0
 35 44  2  0  0  0
 35 45  1  0  0  0
 35 68  1  0  0  0
 36 56  1  0  0  0
 36106  1  0  0  0
 37 39  1  0  0  0
 37 47  1  0  0  0
 37 66  1  0  0  0
 37107  1  0  0  0
 38 43  2  0  0  0
 38 46  1  0  0  0
 38 47  1  0  0  0
 39 64  1  0  0  0
 39 67  2  0  0  0
 40 52  1  0  0  0
 40 53  2  0  0  0
 40 58  1  0  0  0
 41108  1  0  0  0
 41109  1  0  0  0
 41110  1  0  0  0
 41 48  1  0  0  0
 42 43  1  0  0  0
 42 66  1  0  0  0
 42111  1  0  0  0
 42112  1  0  0  0
 43 44  1  0  0  0
 44113  1  0  0  0
 45 46  2  0  0  0
 45114  1  0  0  0
 46115  1  0  0  0
 47116  1  0  0  0
 47117  1  0  0  0
 48 56  1  0  0  0
 48 65  1  0  0  0
 48118  1  0  0  0
 49 50  1  0  0  0
 49 53  1  0  0  0
 49 64  1  0  0  0
 49119  1  0  0  0
 50 51  1  0  0  0
 50120  1  0  0  0
 50121  1  0  0  0
 51 52  1  0  0  0
 51122  1  0  0  0
 51123  1  0  0  0
 52124  1  0  0  0
 52125  1  0  0  0
 53 54  1  0  0  0
 54 55  2  0  0  0
 54126  1  0  0  0
 55 57  1  0  0  0
 55127  1  0  0  0
 56 69  2  0  0  0
 57 58  2  0  0  0
 57128  1  0  0  0
 58129  1  0  0  0
 59 60  1  0  0  0
 59 61  1  0  0  0
 59 62  1  0  0  0
 60130  1  0  0  0
 60131  1  0  0  0
 60132  1  0  0  0
 61133  1  0  0  0
 61134  1  0  0  0
 61135  1  0  0  0
 62136  1  0  0  0
 62137  1  0  0  0
 62138  1  0  0  0
 63 65  1  0  0  0
 63139  1  0  0  0
 63140  1  0  0  0
 63141  1  0  0  0
 64142  1  0  0  0
 65143  1  0  0  0
 68 79  1  0  0  0
 71 73  2  0  0  0
 71 74  1  0  0  0
 71144  1  0  0  0
 72 73  1  0  0  0
 72 75  2  0  0  0
 72145  1  0  0  0
 73 76  1  0  0  0
 74 78  1  0  0  0
 74 83  2  0  0  0
 75 79  1  0  0  0
 75 83  1  0  0  0
 76146  1  0  0  0
 76147  1  0  0  0
 76148  1  0  0  0
 77149  1  0  0  0
 77150  1  0  0  0
 77151  1  0  0  0
 77 84  1  0  0  0
 78 81  1  0  0  0
 78152  1  0  0  0
 78153  1  0  0  0
 79154  1  0  0  0
 79155  1  0  0  0
 80 82  1  0  0  0
 80156  1  0  0  0
 80157  1  0  0  0
 81 84  1  0  0  0
 81158  1  0  0  0
 81159  1  0  0  0
 82 84  1  0  0  0
 82160  1  0  0  0
 82161  1  0  0  0
 84162  1  0  0  0
M  CHG  1  84   1
M  ISO  4   1 100  68 101  79 101  80 100
M  END
> <chiral flag>
0

> <version>
0

> <s_m_source_file>
/data/baiqing/PycharmProjects/Reinvent-master-3.2/result/LINK_invent/BTK/process_docking_weight1_custom_sum_contain_oxygen_bond_distance_aromatic_linkinvent_7_9_3/rearranged_h_0052.sdf

> <i_m_source_file_index>
5

> <r_mmod_Potential_Energy-OPLS-2005>
-225.609313964844

> <r_mmod_Stretch_Energy-OPLS-2005>
64.8708648681641

> <r_mmod_Bend_Energy-OPLS-2005>
146.540481567383

> <r_mmod_Torsional_Energy-OPLS-2005>
195.556655883789

> <r_mmod_Improper_Torsional_Energy-OPLS-2005>
3.14035248756409

> <r_mmod_Van_der_Waal_Energy-OPLS-2005>
151.401153564453

> <r_mmod_Electrostatic_Energy-OPLS-2005>
-355.424194335938

> <r_mmod_Solvation_Energy-OPLS-2005>
-457.660461425781

> <b_mmod_Minimization_Converged-OPLS-2005>
0

> <r_mmod_RMS_Derivative-OPLS-2005>
11.7176942825317

$$$$
5
                    3D
 Structure written by MMmdl.
167175  0  0  1  0            999 V2000
  -30.7286  -14.4457   20.6173 C   0  0  0  0  0  0
  -30.4183  -12.3054   19.4144 C   0  0  0  0  0  0
  -29.4899  -12.5143   18.2017 C   0  0  0  0  0  0
  -28.0116  -12.3776   18.6160 C   0  0  0  0  0  0
  -27.6641  -13.2100   19.8797 C   0  0  2  0  0  0
  -28.7092  -12.9881   20.9980 C   0  0  0  0  0  0
  -25.2594  -13.8168   20.5697 C   0  0  0  0  0  0
  -24.1850  -13.0451   20.9195 C   0  0  0  0  0  0
  -24.6396  -11.6911   20.8736 C   0  0  0  0  0  0
  -23.9059  -10.4302   21.0399 C   0  0  0  0  0  0
  -24.3609   -9.4214   21.9178 C   0  0  0  0  0  0
  -23.6286   -8.2251   22.0747 C   0  0  0  0  0  0
  -22.4271   -8.0285   21.3538 C   0  0  0  0  0  0
  -21.9907   -9.0258   20.4639 C   0  0  0  0  0  0
  -22.7234  -10.2138   20.3048 C   0  0  0  0  0  0
  -21.6853   -6.0739   22.5277 C   0  0  0  0  0  0
  -21.4011   -6.5640   23.8212 C   0  0  0  0  0  0
  -21.3661   -5.6791   24.9176 C   0  0  0  0  0  0
  -21.6048   -4.3057   24.7226 C   0  0  0  0  0  0
  -21.8818   -3.8147   23.4345 C   0  0  0  0  0  0
  -21.9190   -4.6964   22.3399 C   0  0  0  0  0  0
  -22.7861  -13.5237   21.1854 C   0  0  0  0  0  0
  -22.1661   -4.2148   21.0977 F   0  0  0  0  0  0
  -21.5634   -3.4537   25.7740 F   0  0  0  0  0  0
  -30.0394  -13.2840   20.4456 N   0  0  0  0  0  0
  -26.3041  -12.9344   20.3410 N   0  0  0  0  0  0
  -25.9330  -11.6496   20.5783 N   0  0  0  0  0  0
  -22.0493  -12.8234   22.0402 N   0  0  0  0  0  0
  -25.4326  -15.1888   20.4087 N   0  0  0  0  0  0
  -31.8153  -14.6374   20.0638 O   0  0  0  0  0  0
  -21.6638   -6.8876   21.4238 O   0  0  0  0  0  0
  -22.3554  -14.5558   20.6714 O   0  0  0  0  0  0
  -24.6184  -31.8665   23.2087 C   0  0  0  0  0  0
  -25.9055  -32.4830   23.8390 C   0  0  1  0  0  0
  -27.2347  -27.3985   20.1044 C   0  0  0  0  0  0
  -25.5908  -33.8634   24.2273 N   0  0  0  0  0  0
  -23.4094  -30.4890   21.5503 C   0  0  2  0  0  0
  -24.8557  -28.9530   20.1113 C   0  0  0  0  0  0
  -22.7429  -29.4652   22.4983 C   0  0  0  0  0  0
  -18.0278  -28.1395   22.8469 C   0  0  0  0  0  0
  -24.1480  -36.7301   23.2642 C   0  0  0  0  0  0
  -25.9419  -30.8205   21.3683 C   0  0  0  0  0  0
  -26.0199  -29.4539   20.7093 C   0  0  0  0  0  0
  -27.2121  -28.6883   20.6954 C   0  0  0  0  0  0
  -26.0483  -26.9287   19.4883 C   0  0  0  0  0  0
  -24.8672  -27.6917   19.4953 C   0  0  0  0  0  0
  -23.6193  -29.8230   20.1649 C   0  0  0  0  0  0
  -25.4127  -36.3098   24.0304 C   0  0  1  0  0  0
  -20.5867  -28.3669   23.1291 C   0  0  2  0  0  0
  -20.6762  -26.9405   22.5404 C   0  0  0  0  0  0
  -19.5735  -26.6377   21.5206 C   0  0  0  0  0  0
  -18.1912  -26.7938   22.1618 C   0  0  0  0  0  0
  -19.1531  -28.8853   23.2854 C   0  0  0  0  0  0
  -18.9474  -30.1460   23.8865 C   0  0  0  0  0  0
  -17.6476  -30.6587   24.0563 C   0  0  0  0  0  0
  -25.9052  -34.9471   23.5073 C   0  0  0  0  0  0
  -16.5360  -29.9088   23.6338 C   0  0  0  0  0  0
  -16.7270  -28.6516   23.0329 C   0  0  0  0  0  0
  -26.4460  -31.6667   25.0765 C   0  0  0  0  0  0
  -25.3706  -31.3813   26.1508 C   0  0  0  0  0  0
  -27.0333  -30.3111   24.6192 C   0  0  0  0  0  0
  -27.5997  -32.4434   25.7541 C   0  0  0  0  0  0
  -27.5583  -37.1804   24.8467 C   0  0  0  0  0  0
  -21.4156  -29.3040   22.3710 N   0  0  0  0  0  0
  -26.4312  -37.3791   23.9390 N   0  0  0  0  0  0
  -24.6749  -31.0728   22.1007 N   0  0  0  0  0  0
  -23.4170  -28.8192   23.3040 O   0  0  0  0  0  0
  -28.3885  -26.6263   20.1548 O   0  0  0  0  0  0
  -26.5623  -34.8934   22.4640 O   0  0  0  0  0  0
  -23.5357  -32.1443   23.7435 O   0  0  0  0  0  0
  -26.8228  -21.2673   22.2405 C   0  0  0  0  0  0
  -27.2435  -22.0618   21.2170 C   0  0  0  0  0  0
  -27.9669  -20.6835   22.8489 C   0  0  0  0  0  0
  -29.0655  -21.0979   22.1318 C   0  0  0  0  0  0
  -27.9349  -19.7954   24.0691 C   0  0  0  0  0  0
  -30.6836  -17.7911   23.5084 C   0  0  0  0  0  0
  -30.5146  -20.7167   22.3493 C   0  0  0  0  0  0
  -30.1390  -15.5982   21.4670 C   0  0  0  0  0  0
  -29.4567  -24.3616   20.5076 C   0  0  0  0  0  0
  -29.4095  -22.8251   20.2166 C   0  0  0  0  0  0
  -31.0185  -19.4145   21.6519 C   0  0  0  0  0  0
  -30.7970  -16.9887   21.1777 C   0  0  0  0  0  0
  -28.2290  -25.1907   20.0355 C   0  0  0  0  0  0
  -28.6239  -22.0264   21.1713 N   0  0  0  0  0  0
  -30.4015  -18.1168   22.0856 N   0  3  1  0  0  0
  -31.4627  -12.3937   19.1107 H   0  0  0  0  0  0
  -30.3117  -11.2923   19.8066 H   0  0  0  0  0  0
  -29.7259  -11.7923   17.4188 H   0  0  0  0  0  0
  -29.6622  -13.5013   17.7694 H   0  0  0  0  0  0
  -27.8162  -11.3217   18.8024 H   0  0  0  0  0  0
  -27.3616  -12.6639   17.7880 H   0  0  0  0  0  0
  -27.7105  -14.2599   19.5884 H   0  0  0  0  0  0
  -28.6825  -11.9530   21.3417 H   0  0  0  0  0  0
  -28.4750  -13.5888   21.8767 H   0  0  0  0  0  0
  -25.2749   -9.5703   22.4757 H   0  0  0  0  0  0
  -24.0002   -7.4645   22.7467 H   0  0  0  0  0  0
  -21.0841   -8.8771   19.8941 H   0  0  0  0  0  0
  -22.3682  -10.9677   19.6161 H   0  0  0  0  0  0
  -21.1997   -7.6146   23.9715 H   0  0  0  0  0  0
  -21.1486   -6.0522   25.9080 H   0  0  0  0  0  0
  -22.0591   -2.7606   23.2845 H   0  0  0  0  0  0
  -22.4084  -11.9879   22.4786 H   0  0  0  0  0  0
  -21.1103  -13.1257   22.2598 H   0  0  0  0  0  0
  -24.6655  -15.8453   20.5082 H   0  0  0  0  0  0
  -26.2870  -15.6229   20.0839 H   0  0  0  0  0  0
  -26.7115  -32.5504   23.1135 H   0  0  0  0  0  0
  -25.0122  -33.9812   25.0457 H   0  0  0  0  0  0
  -22.6999  -31.3056   21.4084 H   0  0  0  0  0  0
  -23.3747  -35.9638   23.3338 H   0  0  0  0  0  0
  -24.3540  -36.8913   22.2053 H   0  0  0  0  0  0
  -23.7248  -37.6505   23.6669 H   0  0  0  0  0  0
  -26.0575  -31.5875   20.6010 H   0  0  0  0  0  0
  -26.8271  -30.8712   21.9892 H   0  0  0  0  0  0
  -28.1105  -29.0730   21.1613 H   0  0  0  0  0  0
  -26.0093  -25.9672   18.9993 H   0  0  0  0  0  0
  -23.9748  -27.2999   19.0250 H   0  0  0  0  0  0
  -23.7302  -30.5982   19.4072 H   0  0  0  0  0  0
  -22.7409  -29.2488   19.8645 H   0  0  0  0  0  0
  -25.1304  -36.1949   25.0800 H   0  0  0  0  0  0
  -20.9948  -28.3255   24.1413 H   0  0  0  0  0  0
  -20.5693  -26.2286   23.3614 H   0  0  0  0  0  0
  -21.6632  -26.7471   22.1175 H   0  0  0  0  0  0
  -19.6900  -25.6279   21.1248 H   0  0  0  0  0  0
  -19.6678  -27.3177   20.6727 H   0  0  0  0  0  0
  -17.4189  -26.6688   21.4008 H   0  0  0  0  0  0
  -18.0284  -26.0109   22.9035 H   0  0  0  0  0  0
  -19.7968  -30.7258   24.2221 H   0  0  0  0  0  0
  -17.5052  -31.6274   24.5158 H   0  0  0  0  0  0
  -15.5359  -30.2970   23.7708 H   0  0  0  0  0  0
  -15.8675  -28.0837   22.7039 H   0  0  0  0  0  0
  -24.5821  -30.7243   25.7812 H   0  0  0  0  0  0
  -24.9000  -32.3019   26.4979 H   0  0  0  0  0  0
  -25.8036  -30.8938   27.0260 H   0  0  0  0  0  0
  -26.2929  -29.6843   24.1217 H   0  0  0  0  0  0
  -27.4043  -29.7383   25.4698 H   0  0  0  0  0  0
  -27.8757  -30.4408   23.9401 H   0  0  0  0  0  0
  -27.2563  -33.3721   26.2106 H   0  0  0  0  0  0
  -28.3812  -32.7030   25.0391 H   0  0  0  0  0  0
  -28.0656  -31.8613   26.5494 H   0  0  0  0  0  0
  -28.2598  -38.0099   24.7506 H   0  0  0  0  0  0
  -28.1066  -36.2622   24.6308 H   0  0  0  0  0  0
  -27.2270  -37.1466   25.8862 H   0  0  0  0  0  0
  -20.9333  -29.8820   21.6966 H   0  0  0  0  0  0
  -26.0178  -38.2852   24.1430 H   0  0  0  0  0  0
  -25.7923  -21.1332   22.5425 H   0  0  0  0  0  0
  -26.6796  -22.6699   20.5219 H   0  0  0  0  0  0
  -27.0184  -19.9535   24.6380 H   0  0  0  0  0  0
  -28.7665  -20.0221   24.7370 H   0  0  0  0  0  0
  -27.9764  -18.7432   23.7902 H   0  0  0  0  0  0
  -30.5181  -18.6314   24.1770 H   0  0  0  0  0  0
  -31.7145  -17.4638   23.6458 H   0  0  0  0  0  0
  -30.0295  -16.9967   23.8647 H   0  0  0  0  0  0
  -30.7063  -20.6605   23.4196 H   0  0  0  0  0  0
  -31.1594  -21.5350   22.0325 H   0  0  0  0  0  0
  -29.0674  -15.6787   21.2921 H   0  0  0  0  0  0
  -30.2771  -15.2963   22.5029 H   0  0  0  0  0  0
  -30.3335  -24.7625   19.9989 H   0  0  0  0  0  0
  -29.6332  -24.5240   21.5705 H   0  0  0  0  0  0
  -30.4240  -22.4327   20.1818 H   0  0  0  0  0  0
  -29.0073  -22.6478   19.2182 H   0  0  0  0  0  0
  -32.0957  -19.3418   21.8100 H   0  0  0  0  0  0
  -30.8853  -19.5400   20.5770 H   0  0  0  0  0  0
  -30.5631  -17.2684   20.1497 H   0  0  0  0  0  0
  -31.8841  -16.8959   21.2152 H   0  0  0  0  0  0
  -27.3618  -24.8733   20.6154 H   0  0  0  0  0  0
  -28.0280  -24.9508   18.9905 H   0  0  0  0  0  0
  -29.4048  -18.2452   21.9908 H   0  0  0  0  0  0
  1 25  1  0  0  0
  1 30  2  0  0  0
  1 78  1  0  0  0
  2  3  1  0  0  0
  2 25  1  0  0  0
  2 86  1  0  0  0
  2 87  1  0  0  0
  3  4  1  0  0  0
  3 88  1  0  0  0
  3 89  1  0  0  0
  4  5  1  0  0  0
  4 90  1  0  0  0
  4 91  1  0  0  0
  5  6  1  0  0  0
  5 26  1  0  0  0
  5 92  1  0  0  0
  6 25  1  0  0  0
  6 93  1  0  0  0
  6 94  1  0  0  0
  7  8  2  0  0  0
  7 26  1  0  0  0
  7 29  1  0  0  0
  8  9  1  0  0  0
  8 22  1  0  0  0
  9 10  1  0  0  0
  9 27  2  0  0  0
 10 11  2  0  0  0
 10 15  1  0  0  0
 11 12  1  0  0  0
 11 95  1  0  0  0
 12 13  2  0  0  0
 12 96  1  0  0  0
 13 14  1  0  0  0
 13 31  1  0  0  0
 14 15  2  0  0  0
 14 97  1  0  0  0
 15 98  1  0  0  0
 16 17  2  0  0  0
 16 21  1  0  0  0
 16 31  1  0  0  0
 17 18  1  0  0  0
 17 99  1  0  0  0
 18 19  2  0  0  0
 18100  1  0  0  0
 19 20  1  0  0  0
 19 24  1  0  0  0
 20 21  2  0  0  0
 20101  1  0  0  0
 21 23  1  0  0  0
 22 28  1  0  0  0
 22 32  2  0  0  0
 26 27  1  0  0  0
 28102  1  0  0  0
 28103  1  0  0  0
 29104  1  0  0  0
 29105  1  0  0  0
 33 34  1  0  0  0
 33 66  1  0  0  0
 33 70  2  0  0  0
 34 36  1  0  0  0
 34 59  1  0  0  0
 34106  1  0  0  0
 35 44  2  0  0  0
 35 45  1  0  0  0
 35 68  1  0  0  0
 36 56  1  0  0  0
 36107  1  0  0  0
 37 39  1  0  0  0
 37 47  1  0  0  0
 37 66  1  0  0  0
 37108  1  0  0  0
 38 43  2  0  0  0
 38 46  1  0  0  0
 38 47  1  0  0  0
 39 64  1  0  0  0
 39 67  2  0  0  0
 40 52  1  0  0  0
 40 53  2  0  0  0
 40 58  1  0  0  0
 41109  1  0  0  0
 41110  1  0  0  0
 41111  1  0  0  0
 41 48  1  0  0  0
 42 43  1  0  0  0
 42 66  1  0  0  0
 42112  1  0  0  0
 42113  1  0  0  0
 43 44  1  0  0  0
 44114  1  0  0  0
 45 46  2  0  0  0
 45115  1  0  0  0
 46116  1  0  0  0
 47117  1  0  0  0
 47118  1  0  0  0
 48 56  1  0  0  0
 48 65  1  0  0  0
 48119  1  0  0  0
 49 50  1  0  0  0
 49 53  1  0  0  0
 49 64  1  0  0  0
 49120  1  0  0  0
 50 51  1  0  0  0
 50121  1  0  0  0
 50122  1  0  0  0
 51 52  1  0  0  0
 51123  1  0  0  0
 51124  1  0  0  0
 52125  1  0  0  0
 52126  1  0  0  0
 53 54  1  0  0  0
 54 55  2  0  0  0
 54127  1  0  0  0
 55 57  1  0  0  0
 55128  1  0  0  0
 56 69  2  0  0  0
 57 58  2  0  0  0
 57129  1  0  0  0
 58130  1  0  0  0
 59 60  1  0  0  0
 59 61  1  0  0  0
 59 62  1  0  0  0
 60131  1  0  0  0
 60132  1  0  0  0
 60133  1  0  0  0
 61134  1  0  0  0
 61135  1  0  0  0
 61136  1  0  0  0
 62137  1  0  0  0
 62138  1  0  0  0
 62139  1  0  0  0
 63 65  1  0  0  0
 63140  1  0  0  0
 63141  1  0  0  0
 63142  1  0  0  0
 64143  1  0  0  0
 65144  1  0  0  0
 68 83  1  0  0  0
 71 72  2  0  0  0
 71 73  1  0  0  0
 71145  1  0  0  0
 72 84  1  0  0  0
 72146  1  0  0  0
 73 74  2  0  0  0
 73 75  1  0  0  0
 74 77  1  0  0  0
 74 84  1  0  0  0
 75147  1  0  0  0
 75148  1  0  0  0
 75149  1  0  0  0
 76150  1  0  0  0
 76151  1  0  0  0
 76152  1  0  0  0
 76 85  1  0  0  0
 77 81  1  0  0  0
 77153  1  0  0  0
 77154  1  0  0  0
 78 82  1  0  0  0
 78155  1  0  0  0
 78156  1  0  0  0
 79 80  1  0  0  0
 79 83  1  0  0  0
 79157  1  0  0  0
 79158  1  0  0  0
 80 84  1  0  0  0
 80159  1  0  0  0
 80160  1  0  0  0
 81 85  1  0  0  0
 81161  1  0  0  0
 81162  1  0  0  0
 82 85  1  0  0  0
 82163  1  0  0  0
 82164  1  0  0  0
 83165  1  0  0  0
 83166  1  0  0  0
 85167  1  0  0  0
M  CHG  1  85   1
M  ISO  4   1 100  68 101  78 100  83 101
M  END
> <chiral flag>
0

> <version>
0

> <s_m_source_file>
/data/baiqing/PycharmProjects/Reinvent-master-3.2/result/LINK_invent/BTK/process_docking_weight1_custom_sum_contain_oxygen_bond_distance_aromatic_linkinvent_7_9_3/rearranged_h_0052.sdf

> <i_m_source_file_index>
6

> <r_mmod_Potential_Energy-OPLS-2005>
-205.021209716797

> <r_mmod_Stretch_Energy-OPLS-2005>
45.6644668579102

> <r_mmod_Bend_Energy-OPLS-2005>
110.899673461914

> <r_mmod_Torsional_Energy-OPLS-2005>
204.286743164062

> <r_mmod_Improper_Torsional_Energy-OPLS-2005>
2.16171169281006

> <r_mmod_Van_der_Waal_Energy-OPLS-2005>
129.186599731445

> <r_mmod_Electrostatic_Energy-OPLS-2005>
-282.060729980469

> <r_mmod_Solvation_Energy-OPLS-2005>
-429.955718994141

> <b_mmod_Minimization_Converged-OPLS-2005>
0

> <r_mmod_RMS_Derivative-OPLS-2005>
2.59947228431702

$$$$
6
                    3D
 Structure written by MMmdl.
154162  0  0  1  0            999 V2000
  -30.5362  -14.9692   20.4343 C   0  0  0  0  0  0
  -30.4405  -12.5975   19.5138 C   0  0  0  0  0  0
  -29.5207  -12.5154   18.2727 C   0  0  0  0  0  0
  -28.0595  -12.2904   18.6969 C   0  0  0  0  0  0
  -27.6298  -13.2375   19.8461 C   0  0  2  0  0  0
  -28.6746  -13.2808   20.9837 C   0  0  0  0  0  0
  -25.2438  -13.8208   20.5724 C   0  0  0  0  0  0
  -24.1743  -13.0461   20.9224 C   0  0  0  0  0  0
  -24.6347  -11.6923   20.8764 C   0  0  0  0  0  0
  -23.9016  -10.4306   21.0423 C   0  0  0  0  0  0
  -24.3578   -9.4215   21.9183 C   0  0  0  0  0  0
  -23.6274   -8.2246   22.0743 C   0  0  0  0  0  0
  -22.4252   -8.0308   21.3575 C   0  0  0  0  0  0
  -21.9896   -9.0249   20.4637 C   0  0  0  0  0  0
  -22.7189  -10.2127   20.3050 C   0  0  0  0  0  0
  -21.6849   -6.0737   22.5279 C   0  0  0  0  0  0
  -21.4007   -6.5629   23.8218 C   0  0  0  0  0  0
  -21.3650   -5.6778   24.9187 C   0  0  0  0  0  0
  -21.6060   -4.3054   24.7232 C   0  0  0  0  0  0
  -21.8804   -3.8146   23.4343 C   0  0  0  0  0  0
  -21.9187   -4.6962   22.3404 C   0  0  0  0  0  0
  -22.7779  -13.5224   21.1870 C   0  0  0  0  0  0
  -22.1638   -4.2153   21.0985 F   0  0  0  0  0  0
  -21.5629   -3.4524   25.7736 F   0  0  0  0  0  0
  -29.9455  -13.7051   20.3857 N   0  0  0  0  0  0
  -26.2870  -12.9418   20.3305 N   0  0  0  0  0  0
  -25.9280  -11.6573   20.5796 N   0  0  0  0  0  0
  -22.0459  -12.8212   22.0431 N   0  0  0  0  0  0
  -25.4145  -15.1941   20.4166 N   0  0  0  0  0  0
  -31.7366  -15.0302   20.1408 O   0  0  0  0  0  0
  -21.6643   -6.8880   21.4251 O   0  0  0  0  0  0
  -22.3475  -14.5557   20.6737 O   0  0  0  0  0  0
  -24.6424  -31.8428   23.1868 C   0  0  0  0  0  0
  -25.9186  -32.4710   23.8252 C   0  0  1  0  0  0
  -27.2165  -27.1023   20.1676 C   0  0  0  0  0  0
  -25.5956  -33.8516   24.2190 N   0  0  0  0  0  0
  -23.4488  -30.4637   21.5329 C   0  0  2  0  0  0
  -24.9025  -28.8826   20.1158 C   0  0  0  0  0  0
  -22.7537  -29.4564   22.4834 C   0  0  0  0  0  0
  -18.0314  -28.1408   22.8494 C   0  0  0  0  0  0
  -24.1500  -36.7228   23.2638 C   0  0  0  0  0  0
  -26.0077  -30.7027   21.3961 C   0  0  0  0  0  0
  -26.0803  -29.3090   20.7431 C   0  0  0  0  0  0
  -27.2377  -28.4354   20.7557 C   0  0  0  0  0  0
  -26.0139  -26.7956   19.4868 C   0  0  0  0  0  0
  -24.8848  -27.6394   19.4713 C   0  0  0  0  0  0
  -23.6804  -29.7901   20.1547 C   0  0  0  0  0  0
  -25.4128  -36.3016   24.0321 C   0  0  1  0  0  0
  -20.5927  -28.3737   23.1238 C   0  0  2  0  0  0
  -20.6827  -26.9453   22.5425 C   0  0  0  0  0  0
  -19.5778  -26.6405   21.5246 C   0  0  0  0  0  0
  -18.1946  -26.7955   22.1650 C   0  0  0  0  0  0
  -19.1566  -28.8878   23.2877 C   0  0  0  0  0  0
  -18.9485  -30.1487   23.8893 C   0  0  0  0  0  0
  -17.6483  -30.6612   24.0558 C   0  0  0  0  0  0
  -25.9072  -34.9400   23.5057 C   0  0  0  0  0  0
  -16.5381  -29.9099   23.6339 C   0  0  0  0  0  0
  -16.7306  -28.6518   23.0375 C   0  0  0  0  0  0
  -26.4508  -31.6566   25.0684 C   0  0  0  0  0  0
  -25.3676  -31.3830   26.1377 C   0  0  0  0  0  0
  -27.0376  -30.2926   24.6336 C   0  0  0  0  0  0
  -27.6049  -32.4328   25.7459 C   0  0  0  0  0  0
  -27.5593  -37.1773   24.8454 C   0  0  0  0  0  0
  -21.4228  -29.3062   22.3567 N   0  0  0  0  0  0
  -26.4286  -37.3748   23.9413 N   0  0  0  0  0  0
  -24.7187  -31.0248   22.0932 N   0  0  0  0  0  0
  -23.4151  -28.8101   23.2995 O   0  0  0  0  0  0
  -28.2536  -26.0845   20.2151 O   0  0  0  0  0  0
  -26.5648  -34.8909   22.4634 O   0  0  0  0  0  0
  -23.5549  -32.1339   23.7067 O   0  0  0  0  0  0
  -28.4629  -21.8014   20.5310 C   0  0  0  0  0  0
  -28.8498  -23.2022   20.2657 C   0  0  0  0  0  0
  -29.3763  -20.6466   20.3830 C   0  0  0  0  0  0
  -30.9214  -22.2717   19.7392 C   0  0  0  0  0  0
  -32.3238  -22.5405   19.2265 C   0  0  0  0  0  0
  -28.6255  -18.9296   22.1778 C   0  0  0  0  0  0
  -27.8849  -24.5573   20.3656 C   0  0  0  0  0  0
  -30.1027  -17.7100   20.3824 C   0  0  0  0  0  0
  -29.0663  -19.0299   20.7081 C   0  0  2  0  0  0
  -30.1279  -23.3503   19.8525 N   0  0  0  0  0  0
  -30.6260  -20.9869   19.9962 N   0  0  0  0  0  0
  -29.7670  -16.1615   20.6060 N   0  0  0  0  0  0
  -27.9637  -18.7396   20.0130 F   0  0  0  0  0  0
  -31.4770  -12.7450   19.2043 H   0  0  0  0  0  0
  -30.4317  -11.6512   20.0601 H   0  0  0  0  0  0
  -29.8444  -11.7092   17.6096 H   0  0  0  0  0  0
  -29.5877  -13.4425   17.7035 H   0  0  0  0  0  0
  -27.9706  -11.2549   19.0342 H   0  0  0  0  0  0
  -27.3879  -12.3914   17.8427 H   0  0  0  0  0  0
  -27.5939  -14.2327   19.4037 H   0  0  0  0  0  0
  -28.7746  -12.3046   21.4618 H   0  0  0  0  0  0
  -28.3683  -13.9803   21.7633 H   0  0  0  0  0  0
  -25.2713   -9.5710   22.4755 H   0  0  0  0  0  0
  -24.0011   -7.4619   22.7394 H   0  0  0  0  0  0
  -21.0867   -8.8717   19.8890 H   0  0  0  0  0  0
  -22.3636  -10.9668   19.6159 H   0  0  0  0  0  0
  -21.1991   -7.6138   23.9741 H   0  0  0  0  0  0
  -21.1495   -6.0511   25.9098 H   0  0  0  0  0  0
  -22.0601   -2.7617   23.2859 H   0  0  0  0  0  0
  -22.4134  -11.9840   22.4734 H   0  0  0  0  0  0
  -21.1100  -13.1207   22.2667 H   0  0  0  0  0  0
  -24.6489  -15.8470   20.5432 H   0  0  0  0  0  0
  -26.2541  -15.6403   20.0725 H   0  0  0  0  0  0
  -26.7252  -32.5316   23.0980 H   0  0  0  0  0  0
  -25.0119  -33.9637   25.0348 H   0  0  0  0  0  0
  -22.7573  -31.2951   21.3775 H   0  0  0  0  0  0
  -23.3768  -35.9554   23.3292 H   0  0  0  0  0  0
  -24.3598  -36.8842   22.2052 H   0  0  0  0  0  0
  -23.7236  -37.6432   23.6654 H   0  0  0  0  0  0
  -26.1778  -31.4572   20.6274 H   0  0  0  0  0  0
  -26.8676  -30.7508   22.0507 H   0  0  0  0  0  0
  -28.1231  -28.7506   21.2863 H   0  0  0  0  0  0
  -25.9073  -25.8631   18.9568 H   0  0  0  0  0  0
  -23.9922  -27.3124   18.9577 H   0  0  0  0  0  0
  -23.8228  -30.5640   19.4009 H   0  0  0  0  0  0
  -22.7901  -29.2424   19.8372 H   0  0  0  0  0  0
  -25.1329  -36.1857   25.0819 H   0  0  0  0  0  0
  -21.0093  -28.3396   24.1321 H   0  0  0  0  0  0
  -20.5730  -26.2384   23.3648 H   0  0  0  0  0  0
  -21.6679  -26.7466   22.1202 H   0  0  0  0  0  0
  -19.6933  -25.6300   21.1288 H   0  0  0  0  0  0
  -19.6703  -27.3209   20.6749 H   0  0  0  0  0  0
  -17.4238  -26.6721   21.4036 H   0  0  0  0  0  0
  -18.0325  -26.0097   22.9032 H   0  0  0  0  0  0
  -19.7972  -30.7311   24.2262 H   0  0  0  0  0  0
  -17.5046  -31.6285   24.5164 H   0  0  0  0  0  0
  -15.5386  -30.3002   23.7657 H   0  0  0  0  0  0
  -15.8717  -28.0820   22.7104 H   0  0  0  0  0  0
  -24.5888  -30.7118   25.7737 H   0  0  0  0  0  0
  -24.8819  -32.3043   26.4582 H   0  0  0  0  0  0
  -25.7950  -30.9183   27.0254 H   0  0  0  0  0  0
  -26.3007  -29.6641   24.1327 H   0  0  0  0  0  0
  -27.3919  -29.7252   25.4945 H   0  0  0  0  0  0
  -27.8954  -30.4107   23.9718 H   0  0  0  0  0  0
  -27.2633  -33.3632   26.1988 H   0  0  0  0  0  0
  -28.3886  -32.6868   25.0311 H   0  0  0  0  0  0
  -28.0676  -31.8461   26.5400 H   0  0  0  0  0  0
  -28.2600  -38.0094   24.7561 H   0  0  0  0  0  0
  -28.1125  -36.2628   24.6223 H   0  0  0  0  0  0
  -27.2323  -37.1349   25.8865 H   0  0  0  0  0  0
  -20.9415  -29.8744   21.6726 H   0  0  0  0  0  0
  -26.0150  -38.2814   24.1433 H   0  0  0  0  0  0
  -27.4498  -21.6090   20.8582 H   0  0  0  0  0  0
  -32.6422  -23.5520   19.4758 H   0  0  0  0  0  0
  -32.3521  -22.4322   18.1425 H   0  0  0  0  0  0
  -33.0506  -21.8525   19.6568 H   0  0  0  0  0  0
  -29.4431  -19.1698   22.8551 H   0  0  0  0  0  0
  -28.2719  -17.9279   22.4162 H   0  0  0  0  0  0
  -27.8118  -19.6241   22.3904 H   0  0  0  0  0  0
  -27.4138  -24.4813   21.3479 H   0  0  0  0  0  0
  -27.0895  -24.3254   19.6578 H   0  0  0  0  0  0
  -30.3943  -17.7885   19.3336 H   0  0  0  0  0  0
  -31.0280  -17.8976   20.9320 H   0  0  0  0  0  0
  -28.7956  -15.9910   20.8218 H   0  0  0  0  0  0
  1 25  1  0  0  0
  1 30  2  0  0  0
  1 82  1  0  0  0
  2  3  1  0  0  0
  2 25  1  0  0  0
  2 84  1  0  0  0
  2 85  1  0  0  0
  3  4  1  0  0  0
  3 86  1  0  0  0
  3 87  1  0  0  0
  4  5  1  0  0  0
  4 88  1  0  0  0
  4 89  1  0  0  0
  5  6  1  0  0  0
  5 26  1  0  0  0
  5 90  1  0  0  0
  6 25  1  0  0  0
  6 91  1  0  0  0
  6 92  1  0  0  0
  7  8  2  0  0  0
  7 26  1  0  0  0
  7 29  1  0  0  0
  8  9  1  0  0  0
  8 22  1  0  0  0
  9 10  1  0  0  0
  9 27  2  0  0  0
 10 11  2  0  0  0
 10 15  1  0  0  0
 11 12  1  0  0  0
 11 93  1  0  0  0
 12 13  2  0  0  0
 12 94  1  0  0  0
 13 14  1  0  0  0
 13 31  1  0  0  0
 14 15  2  0  0  0
 14 95  1  0  0  0
 15 96  1  0  0  0
 16 17  2  0  0  0
 16 21  1  0  0  0
 16 31  1  0  0  0
 17 18  1  0  0  0
 17 97  1  0  0  0
 18 19  2  0  0  0
 18 98  1  0  0  0
 19 20  1  0  0  0
 19 24  1  0  0  0
 20 21  2  0  0  0
 20 99  1  0  0  0
 21 23  1  0  0  0
 22 28  1  0  0  0
 22 32  2  0  0  0
 26 27  1  0  0  0
 28100  1  0  0  0
 28101  1  0  0  0
 29102  1  0  0  0
 29103  1  0  0  0
 33 34  1  0  0  0
 33 66  1  0  0  0
 33 70  2  0  0  0
 34 36  1  0  0  0
 34 59  1  0  0  0
 34104  1  0  0  0
 35 44  2  0  0  0
 35 45  1  0  0  0
 35 68  1  0  0  0
 36 56  1  0  0  0
 36105  1  0  0  0
 37 39  1  0  0  0
 37 47  1  0  0  0
 37 66  1  0  0  0
 37106  1  0  0  0
 38 43  2  0  0  0
 38 46  1  0  0  0
 38 47  1  0  0  0
 39 64  1  0  0  0
 39 67  2  0  0  0
 40 52  1  0  0  0
 40 53  2  0  0  0
 40 58  1  0  0  0
 41107  1  0  0  0
 41108  1  0  0  0
 41109  1  0  0  0
 41 48  1  0  0  0
 42 43  1  0  0  0
 42 66  1  0  0  0
 42110  1  0  0  0
 42111  1  0  0  0
 43 44  1  0  0  0
 44112  1  0  0  0
 45 46  2  0  0  0
 45113  1  0  0  0
 46114  1  0  0  0
 47115  1  0  0  0
 47116  1  0  0  0
 48 56  1  0  0  0
 48 65  1  0  0  0
 48117  1  0  0  0
 49 50  1  0  0  0
 49 53  1  0  0  0
 49 64  1  0  0  0
 49118  1  0  0  0
 50 51  1  0  0  0
 50119  1  0  0  0
 50120  1  0  0  0
 51 52  1  0  0  0
 51121  1  0  0  0
 51122  1  0  0  0
 52123  1  0  0  0
 52124  1  0  0  0
 53 54  1  0  0  0
 54 55  2  0  0  0
 54125  1  0  0  0
 55 57  1  0  0  0
 55126  1  0  0  0
 56 69  2  0  0  0
 57 58  2  0  0  0
 57127  1  0  0  0
 58128  1  0  0  0
 59 60  1  0  0  0
 59 61  1  0  0  0
 59 62  1  0  0  0
 60129  1  0  0  0
 60130  1  0  0  0
 60131  1  0  0  0
 61132  1  0  0  0
 61133  1  0  0  0
 61134  1  0  0  0
 62135  1  0  0  0
 62136  1  0  0  0
 62137  1  0  0  0
 63 65  1  0  0  0
 63138  1  0  0  0
 63139  1  0  0  0
 63140  1  0  0  0
 64141  1  0  0  0
 65142  1  0  0  0
 68 77  1  0  0  0
 71 72  2  0  0  0
 71 73  1  0  0  0
 71143  1  0  0  0
 72 77  1  0  0  0
 72 80  1  0  0  0
 73 79  1  0  0  0
 73 81  2  0  0  0
 74 75  1  0  0  0
 74 80  2  0  0  0
 74 81  1  0  0  0
 75144  1  0  0  0
 75145  1  0  0  0
 75146  1  0  0  0
 76147  1  0  0  0
 76148  1  0  0  0
 76149  1  0  0  0
 76 79  1  0  0  0
 77150  1  0  0  0
 77151  1  0  0  0
 78 79  1  0  0  0
 78 82  1  0  0  0
 78152  1  0  0  0
 78153  1  0  0  0
 79 83  1  0  0  0
 82154  1  0  0  0
M  ISO  4   1 100  68 101  77 101  82 100
M  END
> <chiral flag>
0

> <version>
0

> <s_m_source_file>
/data/baiqing/PycharmProjects/Reinvent-master-3.2/result/LINK_invent/BTK/process_docking_weight1_custom_sum_contain_oxygen_bond_distance_aromatic_linkinvent_7_9_3/rearranged_h_0052.sdf

> <i_m_source_file_index>
7

> <r_mmod_Potential_Energy-OPLS-2005>
105.29345703125

> <r_mmod_Stretch_Energy-OPLS-2005>
289.003356933594

> <r_mmod_Bend_Energy-OPLS-2005>
257.281585693359

> <r_mmod_Torsional_Energy-OPLS-2005>
223.492233276367

> <r_mmod_Improper_Torsional_Energy-OPLS-2005>
4.49031925201416

> <r_mmod_Van_der_Waal_Energy-OPLS-2005>
137.864196777344

> <r_mmod_Electrostatic_Energy-OPLS-2005>
-782.478576660156

> <r_mmod_Solvation_Energy-OPLS-2005>
-239.869277954102

> <b_mmod_Minimization_Converged-OPLS-2005>
0

> <r_mmod_RMS_Derivative-OPLS-2005>
5.4313817024231

$$$$
7
                    3D
 Structure written by MMmdl.
143151  0  0  1  0            999 V2000
  -30.3836  -15.5292   20.3217 C   0  0  0  0  0  0
  -30.4183  -12.9915   19.5677 C   0  0  0  0  0  0
  -29.5498  -12.6351   18.3303 C   0  0  0  0  0  0
  -28.1125  -12.3040   18.7554 C   0  0  0  0  0  0
  -27.5942  -13.3097   19.8089 C   0  0  2  0  0  0
  -28.6040  -13.6230   20.9362 C   0  0  0  0  0  0
  -25.2318  -13.8306   20.5783 C   0  0  0  0  0  0
  -24.1710  -13.0452   20.9288 C   0  0  0  0  0  0
  -24.6409  -11.6961   20.8761 C   0  0  0  0  0  0
  -23.9117  -10.4304   21.0397 C   0  0  0  0  0  0
  -24.3655   -9.4215   21.9178 C   0  0  0  0  0  0
  -23.6318   -8.2253   22.0752 C   0  0  0  0  0  0
  -22.4297   -8.0294   21.3544 C   0  0  0  0  0  0
  -21.9943   -9.0269   20.4643 C   0  0  0  0  0  0
  -22.7284  -10.2141   20.3049 C   0  0  0  0  0  0
  -21.6861   -6.0747   22.5280 C   0  0  0  0  0  0
  -21.4021   -6.5647   23.8215 C   0  0  0  0  0  0
  -21.3661   -5.6795   24.9174 C   0  0  0  0  0  0
  -21.6044   -4.3059   24.7222 C   0  0  0  0  0  0
  -21.8817   -3.8154   23.4342 C   0  0  0  0  0  0
  -21.9195   -4.6974   22.3401 C   0  0  0  0  0  0
  -22.7722  -13.5175   21.1928 C   0  0  0  0  0  0
  -22.1663   -4.2161   21.0978 F   0  0  0  0  0  0
  -21.5624   -3.4539   25.7732 F   0  0  0  0  0  0
  -29.8156  -14.1888   20.3080 N   0  0  0  0  0  0
  -26.2752  -12.9639   20.3184 N   0  0  0  0  0  0
  -25.9351  -11.6710   20.5678 N   0  0  0  0  0  0
  -22.0387  -12.8149   22.0478 N   0  0  0  0  0  0
  -25.3933  -15.2048   20.4246 N   0  0  0  0  0  0
  -31.6071  -15.4009   20.1373 O   0  0  0  0  0  0
  -21.6651   -6.8894   21.4244 O   0  0  0  0  0  0
  -22.3394  -14.5473   20.6764 O   0  0  0  0  0  0
  -24.6775  -31.8060   23.1557 C   0  0  0  0  0  0
  -25.9383  -32.4500   23.8080 C   0  0  1  0  0  0
  -27.2212  -26.7600   20.2101 C   0  0  0  0  0  0
  -25.5985  -33.8322   24.1976 N   0  0  0  0  0  0
  -23.5005  -30.4101   21.5079 C   0  0  2  0  0  0
  -24.9568  -28.7619   20.1138 C   0  0  0  0  0  0
  -22.7737  -29.4350   22.4727 C   0  0  0  0  0  0
  -18.0334  -28.1421   22.8462 C   0  0  0  0  0  0
  -24.1495  -36.7166   23.2654 C   0  0  0  0  0  0
  -26.0778  -30.5580   21.4113 C   0  0  0  0  0  0
  -26.1433  -29.1291   20.7602 C   0  0  0  0  0  0
  -27.2616  -28.1530   20.7787 C   0  0  0  0  0  0
  -26.0054  -26.5868   19.5052 C   0  0  0  0  0  0
  -24.9236  -27.5158   19.4634 C   0  0  0  0  0  0
  -23.7503  -29.7107   20.1404 C   0  0  0  0  0  0
  -25.4144  -36.2916   24.0289 C   0  0  1  0  0  0
  -20.5969  -28.3776   23.1162 C   0  0  2  0  0  0
  -20.6807  -26.9443   22.5409 C   0  0  0  0  0  0
  -19.5782  -26.6376   21.5223 C   0  0  0  0  0  0
  -18.1963  -26.7950   22.1623 C   0  0  0  0  0  0
  -19.1600  -28.8920   23.2793 C   0  0  0  0  0  0
  -18.9508  -30.1506   23.8835 C   0  0  0  0  0  0
  -17.6499  -30.6607   24.0554 C   0  0  0  0  0  0
  -25.9118  -34.9305   23.4968 C   0  0  0  0  0  0
  -16.5388  -29.9093   23.6349 C   0  0  0  0  0  0
  -16.7315  -28.6513   23.0370 C   0  0  0  0  0  0
  -26.4575  -31.6513   25.0682 C   0  0  0  0  0  0
  -25.3654  -31.3818   26.1307 C   0  0  0  0  0  0
  -27.0504  -30.2862   24.6543 C   0  0  0  0  0  0
  -27.6033  -32.4359   25.7495 C   0  0  0  0  0  0
  -27.5562  -37.1745   24.8469 C   0  0  0  0  0  0
  -21.4389  -29.3036   22.3486 N   0  0  0  0  0  0
  -26.4275  -37.3669   23.9403 N   0  0  0  0  0  0
  -24.7747  -30.9565   22.0777 N   0  0  0  0  0  0
  -23.4210  -28.7951   23.3050 O   0  0  0  0  0  0
  -28.1958  -25.5753   20.3112 O   0  0  0  0  0  0
  -26.5752  -34.8873   22.4581 O   0  0  0  0  0  0
  -23.5809  -32.1109   23.6551 O   0  0  0  0  0  0
  -28.7376  -17.9546   21.0057 C   0  0  0  0  0  0
  -30.4154  -18.3485   19.6425 C   0  0  0  0  0  0
  -29.7980  -17.1866   20.3122 C   0  0  0  0  0  0
  -29.0682  -20.4261   20.3083 C   0  0  0  0  0  0
  -28.9716  -22.2554   20.5557 C   0  0  0  0  0  0
  -28.0509  -23.8577   20.0814 C   0  0  0  0  0  0
  -28.4313  -19.3922   21.0107 N   0  0  0  0  0  0
  -30.0962  -19.7681   19.6419 N   0  0  0  0  0  0
  -31.4326  -13.1962   19.2249 H   0  0  0  0  0  0
  -30.5170  -12.1303   20.2308 H   0  0  0  0  0  0
  -29.9857  -11.7970   17.7857 H   0  0  0  0  0  0
  -29.5420  -13.4819   17.6423 H   0  0  0  0  0  0
  -28.1151  -11.2995   19.1803 H   0  0  0  0  0  0
  -27.4508  -12.2720   17.8892 H   0  0  0  0  0  0
  -27.4678  -14.2389   19.2519 H   0  0  0  0  0  0
  -28.8220  -12.7394   21.5383 H   0  0  0  0  0  0
  -28.1854  -14.3637   21.6192 H   0  0  0  0  0  0
  -25.2790   -9.5693   22.4766 H   0  0  0  0  0  0
  -24.0023   -7.4644   22.7476 H   0  0  0  0  0  0
  -21.0872   -8.8794   19.8948 H   0  0  0  0  0  0
  -22.3739  -10.9683   19.6164 H   0  0  0  0  0  0
  -21.2016   -7.6155   23.9725 H   0  0  0  0  0  0
  -21.1483   -6.0522   25.9078 H   0  0  0  0  0  0
  -22.0594   -2.7617   23.2835 H   0  0  0  0  0  0
  -22.4028  -11.9823   22.4867 H   0  0  0  0  0  0
  -21.0996  -13.1147   22.2683 H   0  0  0  0  0  0
  -24.6192  -15.8518   20.5310 H   0  0  0  0  0  0
  -26.2304  -15.6424   20.0629 H   0  0  0  0  0  0
  -26.7462  -32.4991   23.0790 H   0  0  0  0  0  0
  -25.0048  -33.9362   25.0074 H   0  0  0  0  0  0
  -22.8230  -31.2463   21.3232 H   0  0  0  0  0  0
  -23.3770  -35.9482   23.3283 H   0  0  0  0  0  0
  -24.3566  -36.8854   22.2075 H   0  0  0  0  0  0
  -23.7245  -37.6336   23.6745 H   0  0  0  0  0  0
  -26.2754  -31.2870   20.6243 H   0  0  0  0  0  0
  -26.9308  -30.6236   22.0748 H   0  0  0  0  0  0
  -28.1530  -28.4359   21.3204 H   0  0  0  0  0  0
  -25.8520  -25.6384   19.0103 H   0  0  0  0  0  0
  -24.0259  -27.2275   18.9339 H   0  0  0  0  0  0
  -23.9205  -30.4724   19.3789 H   0  0  0  0  0  0
  -22.8555  -29.1750   19.8180 H   0  0  0  0  0  0
  -25.1356  -36.1685   25.0780 H   0  0  0  0  0  0
  -21.0050  -28.3397   24.1288 H   0  0  0  0  0  0
  -20.5688  -26.2395   23.3663 H   0  0  0  0  0  0
  -21.6669  -26.7405   22.1219 H   0  0  0  0  0  0
  -19.6940  -25.6270   21.1295 H   0  0  0  0  0  0
  -19.6724  -27.3151   20.6725 H   0  0  0  0  0  0
  -17.4235  -26.6694   21.4023 H   0  0  0  0  0  0
  -18.0348  -26.0109   22.9035 H   0  0  0  0  0  0
  -19.7986  -30.7339   24.2175 H   0  0  0  0  0  0
  -17.5055  -31.6281   24.5170 H   0  0  0  0  0  0
  -15.5389  -30.2981   23.7710 H   0  0  0  0  0  0
  -15.8714  -28.0812   22.7127 H   0  0  0  0  0  0
  -24.5852  -30.7154   25.7609 H   0  0  0  0  0  0
  -24.8824  -32.3039   26.4554 H   0  0  0  0  0  0
  -25.7841  -30.9096   27.0203 H   0  0  0  0  0  0
  -26.3211  -29.6484   24.1536 H   0  0  0  0  0  0
  -27.3960  -29.7295   25.5265 H   0  0  0  0  0  0
  -27.9178  -30.4010   24.0041 H   0  0  0  0  0  0
  -27.2579  -33.3722   26.1887 H   0  0  0  0  0  0
  -28.3937  -32.6816   25.0391 H   0  0  0  0  0  0
  -28.0596  -31.8608   26.5562 H   0  0  0  0  0  0
  -28.2566  -38.0051   24.7498 H   0  0  0  0  0  0
  -28.1068  -36.2574   24.6322 H   0  0  0  0  0  0
  -27.2270  -37.1414   25.8869 H   0  0  0  0  0  0
  -20.9680  -29.8685   21.6557 H   0  0  0  0  0  0
  -26.0107  -38.2721   24.1404 H   0  0  0  0  0  0
  -28.0836  -17.3902   21.6543 H   0  0  0  0  0  0
  -31.2908  -18.1376   19.0456 H   0  0  0  0  0  0
  -28.9544  -22.3012   21.6438 H   0  0  0  0  0  0
  -29.9985  -22.5236   20.3108 H   0  0  0  0  0  0
  -27.9970  -23.7944   18.9945 H   0  0  0  0  0  0
  -27.0263  -23.6673   20.4008 H   0  0  0  0  0  0
  1 25  1  0  0  0
  1 30  2  0  0  0
  1 73  1  0  0  0
  2  3  1  0  0  0
  2 25  1  0  0  0
  2 79  1  0  0  0
  2 80  1  0  0  0
  3  4  1  0  0  0
  3 81  1  0  0  0
  3 82  1  0  0  0
  4  5  1  0  0  0
  4 83  1  0  0  0
  4 84  1  0  0  0
  5  6  1  0  0  0
  5 26  1  0  0  0
  5 85  1  0  0  0
  6 25  1  0  0  0
  6 86  1  0  0  0
  6 87  1  0  0  0
  7  8  2  0  0  0
  7 26  1  0  0  0
  7 29  1  0  0  0
  8  9  1  0  0  0
  8 22  1  0  0  0
  9 10  1  0  0  0
  9 27  2  0  0  0
 10 11  2  0  0  0
 10 15  1  0  0  0
 11 12  1  0  0  0
 11 88  1  0  0  0
 12 13  2  0  0  0
 12 89  1  0  0  0
 13 14  1  0  0  0
 13 31  1  0  0  0
 14 15  2  0  0  0
 14 90  1  0  0  0
 15 91  1  0  0  0
 16 17  2  0  0  0
 16 21  1  0  0  0
 16 31  1  0  0  0
 17 18  1  0  0  0
 17 92  1  0  0  0
 18 19  2  0  0  0
 18 93  1  0  0  0
 19 20  1  0  0  0
 19 24  1  0  0  0
 20 21  2  0  0  0
 20 94  1  0  0  0
 21 23  1  0  0  0
 22 28  1  0  0  0
 22 32  2  0  0  0
 26 27  1  0  0  0
 28 95  1  0  0  0
 28 96  1  0  0  0
 29 97  1  0  0  0
 29 98  1  0  0  0
 33 34  1  0  0  0
 33 66  1  0  0  0
 33 70  2  0  0  0
 34 36  1  0  0  0
 34 59  1  0  0  0
 34 99  1  0  0  0
 35 44  2  0  0  0
 35 45  1  0  0  0
 35 68  1  0  0  0
 36 56  1  0  0  0
 36100  1  0  0  0
 37 39  1  0  0  0
 37 47  1  0  0  0
 37 66  1  0  0  0
 37101  1  0  0  0
 38 43  2  0  0  0
 38 46  1  0  0  0
 38 47  1  0  0  0
 39 64  1  0  0  0
 39 67  2  0  0  0
 40 52  1  0  0  0
 40 53  2  0  0  0
 40 58  1  0  0  0
 41102  1  0  0  0
 41103  1  0  0  0
 41104  1  0  0  0
 41 48  1  0  0  0
 42 43  1  0  0  0
 42 66  1  0  0  0
 42105  1  0  0  0
 42106  1  0  0  0
 43 44  1  0  0  0
 44107  1  0  0  0
 45 46  2  0  0  0
 45108  1  0  0  0
 46109  1  0  0  0
 47110  1  0  0  0
 47111  1  0  0  0
 48 56  1  0  0  0
 48 65  1  0  0  0
 48112  1  0  0  0
 49 50  1  0  0  0
 49 53  1  0  0  0
 49 64  1  0  0  0
 49113  1  0  0  0
 50 51  1  0  0  0
 50114  1  0  0  0
 50115  1  0  0  0
 51 52  1  0  0  0
 51116  1  0  0  0
 51117  1  0  0  0
 52118  1  0  0  0
 52119  1  0  0  0
 53 54  1  0  0  0
 54 55  2  0  0  0
 54120  1  0  0  0
 55 57  1  0  0  0
 55121  1  0  0  0
 56 69  2  0  0  0
 57 58  2  0  0  0
 57122  1  0  0  0
 58123  1  0  0  0
 59 60  1  0  0  0
 59 61  1  0  0  0
 59 62  1  0  0  0
 60124  1  0  0  0
 60125  1  0  0  0
 60126  1  0  0  0
 61127  1  0  0  0
 61128  1  0  0  0
 61129  1  0  0  0
 62130  1  0  0  0
 62131  1  0  0  0
 62132  1  0  0  0
 63 65  1  0  0  0
 63133  1  0  0  0
 63134  1  0  0  0
 63135  1  0  0  0
 64136  1  0  0  0
 65137  1  0  0  0
 68 76  1  0  0  0
 71 73  2  0  0  0
 71 77  1  0  0  0
 71138  1  0  0  0
 72 73  1  0  0  0
 72 78  2  0  0  0
 72139  1  0  0  0
 74 75  1  0  0  0
 74 77  2  0  0  0
 74 78  1  0  0  0
 75 76  1  0  0  0
 75140  1  0  0  0
 75141  1  0  0  0
 76142  1  0  0  0
 76143  1  0  0  0
M  ISO  4   1 100  68 101  73 100  76 101
M  END
> <chiral flag>
0

> <version>
0

> <s_m_source_file>
/data/baiqing/PycharmProjects/Reinvent-master-3.2/result/LINK_invent/BTK/process_docking_weight1_custom_sum_contain_oxygen_bond_distance_aromatic_linkinvent_7_9_3/rearranged_h_0052.sdf

> <i_m_source_file_index>
8

> <r_mmod_Potential_Energy-OPLS-2005>
1696.12609863281

> <r_mmod_Stretch_Energy-OPLS-2005>
861.621826171875

> <r_mmod_Bend_Energy-OPLS-2005>
655.0185546875

> <r_mmod_Torsional_Energy-OPLS-2005>
190.73014831543

> <r_mmod_Improper_Torsional_Energy-OPLS-2005>
7.58641481399536

> <r_mmod_Van_der_Waal_Energy-OPLS-2005>
138.967208862305

> <r_mmod_Electrostatic_Energy-OPLS-2005>
-681.277282714844

> <r_mmod_Solvation_Energy-OPLS-2005>
-231.443161010742

> <b_mmod_Minimization_Converged-OPLS-2005>
0

> <r_mmod_RMS_Derivative-OPLS-2005>
0.589472770690918

$$$$
8
                    3D
 Structure written by MMmdl.
170178  0  0  1  0            999 V2000
  -30.7438  -14.4010   20.6487 C   0  0  0  0  0  0
  -30.4328  -12.2902   19.4021 C   0  0  0  0  0  0
  -29.5012  -12.5165   18.1965 C   0  0  0  0  0  0
  -28.0210  -12.3799   18.6080 C   0  0  0  0  0  0
  -27.6739  -13.2008   19.8792 C   0  0  2  0  0  0
  -28.7177  -12.9483   20.9915 C   0  0  0  0  0  0
  -25.2668  -13.8148   20.5666 C   0  0  0  0  0  0
  -24.1905  -13.0440   20.9169 C   0  0  0  0  0  0
  -24.6449  -11.6899   20.8738 C   0  0  0  0  0  0
  -23.9104  -10.4288   21.0406 C   0  0  0  0  0  0
  -24.3637   -9.4199   21.9193 C   0  0  0  0  0  0
  -23.6297   -8.2244   22.0763 C   0  0  0  0  0  0
  -22.4286   -8.0291   21.3544 C   0  0  0  0  0  0
  -21.9929   -9.0274   20.4648 C   0  0  0  0  0  0
  -22.7274  -10.2144   20.3054 C   0  0  0  0  0  0
  -21.6852   -6.0747   22.5294 C   0  0  0  0  0  0
  -21.4003   -6.5645   23.8225 C   0  0  0  0  0  0
  -21.3657   -5.6796   24.9185 C   0  0  0  0  0  0
  -21.6040   -4.3061   24.7231 C   0  0  0  0  0  0
  -21.8817   -3.8157   23.4352 C   0  0  0  0  0  0
  -21.9184   -4.6975   22.3412 C   0  0  0  0  0  0
  -22.7914  -13.5248   21.1811 C   0  0  0  0  0  0
  -22.1657   -4.2158   21.0989 F   0  0  0  0  0  0
  -21.5631   -3.4546   25.7745 F   0  0  0  0  0  0
  -30.0529  -13.2490   20.4461 N   0  0  0  0  0  0
  -26.3112  -12.9307   20.3372 N   0  0  0  0  0  0
  -25.9377  -11.6472   20.5760 N   0  0  0  0  0  0
  -22.0520  -12.8249   22.0342 N   0  0  0  0  0  0
  -25.4415  -15.1863   20.4061 N   0  0  0  0  0  0
  -31.8050  -14.6497   20.0683 O   0  0  0  0  0  0
  -21.6637   -6.8895   21.4256 O   0  0  0  0  0  0
  -22.3598  -14.5552   20.6657 O   0  0  0  0  0  0
  -24.6110  -31.8717   23.2137 C   0  0  0  0  0  0
  -25.9004  -32.4857   23.8418 C   0  0  1  0  0  0
  -27.2240  -27.4830   20.0853 C   0  0  0  0  0  0
  -25.5865  -33.8663   24.2323 N   0  0  0  0  0  0
  -23.3974  -30.4948   21.5531 C   0  0  2  0  0  0
  -24.8391  -28.9694   20.1093 C   0  0  0  0  0  0
  -22.7396  -29.4666   22.5008 C   0  0  0  0  0  0
  -18.0267  -28.1392   22.8466 C   0  0  0  0  0  0
  -24.1496  -36.7328   23.2638 C   0  0  0  0  0  0
  -25.9211  -30.8509   21.3612 C   0  0  0  0  0  0
  -25.9961  -29.4913   20.7056 C   0  0  0  0  0  0
  -27.1934  -28.7505   20.6962 C   0  0  0  0  0  0
  -26.0581  -26.9613   19.4898 C   0  0  0  0  0  0
  -24.8637  -27.7025   19.5000 C   0  0  0  0  0  0
  -23.5999  -29.8303   20.1652 C   0  0  0  0  0  0
  -25.4111  -36.3135   24.0344 C   0  0  1  0  0  0
  -20.5862  -28.3652   23.1357 C   0  0  2  0  0  0
  -20.6769  -26.9396   22.5439 C   0  0  0  0  0  0
  -19.5739  -26.6385   21.5263 C   0  0  0  0  0  0
  -18.1915  -26.7939   22.1627 C   0  0  0  0  0  0
  -19.1523  -28.8835   23.2903 C   0  0  0  0  0  0
  -18.9452  -30.1431   23.8913 C   0  0  0  0  0  0
  -17.6465  -30.6585   24.0566 C   0  0  0  0  0  0
  -25.9040  -34.9495   23.5135 C   0  0  0  0  0  0
  -16.5347  -29.9089   23.6332 C   0  0  0  0  0  0
  -16.7267  -28.6523   23.0322 C   0  0  0  0  0  0
  -26.4429  -31.6640   25.0745 C   0  0  0  0  0  0
  -25.3697  -31.3732   26.1510 C   0  0  0  0  0  0
  -27.0275  -30.3103   24.6085 C   0  0  0  0  0  0
  -27.6022  -32.4360   25.7483 C   0  0  0  0  0  0
  -27.5578  -37.1812   24.8458 C   0  0  0  0  0  0
  -21.4143  -29.3008   22.3765 N   0  0  0  0  0  0
  -26.4306  -37.3822   23.9409 N   0  0  0  0  0  0
  -24.6614  -31.0849   22.1007 N   0  0  0  0  0  0
  -23.4188  -28.8199   23.3034 O   0  0  0  0  0  0
  -28.3809  -26.7614   20.0658 O   0  0  0  0  0  0
  -26.5638  -34.8922   22.4717 O   0  0  0  0  0  0
  -23.5320  -32.1430   23.7563 O   0  0  0  0  0  0
  -28.8304  -23.2379   22.5405 C   0  0  0  0  0  0
  -30.0479  -22.2372   20.9573 C   0  0  0  0  0  0
  -29.2501  -22.0458   23.0551 C   0  0  0  0  0  0
  -30.0246  -21.4016   22.0405 C   0  0  0  0  0  0
  -28.9480  -21.5625   24.4504 C   0  0  0  0  0  0
  -32.9391  -16.7584   25.6535 C   0  0  0  0  0  0
  -30.7405  -20.0818   22.1604 C   0  0  0  0  0  0
  -30.1621  -15.4539   21.6041 C   0  0  0  0  0  0
  -31.9681  -16.4576   24.5011 C   0  0  0  0  0  0
  -29.2062  -24.5286   20.3807 C   0  0  0  0  0  0
  -29.7767  -18.8946   22.4078 C   0  0  0  0  0  0
  -30.9126  -16.8052   21.6406 C   0  0  0  0  0  0
  -31.3924  -17.7663   23.9272 C   0  0  0  0  0  0
  -28.3646  -25.6659   20.9699 C   0  0  0  0  0  0
  -29.3416  -23.3804   21.2649 N   0  0  0  0  0  0
  -30.4353  -17.6163   22.7941 N   0  3  1  0  0  0
  -31.4779  -12.3914   19.1052 H   0  0  0  0  0  0
  -30.3323  -11.2721   19.7806 H   0  0  0  0  0  0
  -29.7380  -11.8093   17.4005 H   0  0  0  0  0  0
  -29.6797  -13.5108   17.7834 H   0  0  0  0  0  0
  -27.8234  -11.3220   18.7843 H   0  0  0  0  0  0
  -27.3749  -12.6772   17.7812 H   0  0  0  0  0  0
  -27.7294  -14.2538   19.6031 H   0  0  0  0  0  0
  -28.6865  -11.9038   21.3043 H   0  0  0  0  0  0
  -28.4770  -13.5202   21.8867 H   0  0  0  0  0  0
  -25.2788   -9.5658   22.4761 H   0  0  0  0  0  0
  -24.0002   -7.4629   22.7483 H   0  0  0  0  0  0
  -21.0859   -8.8809   19.8945 H   0  0  0  0  0  0
  -22.3765  -10.9685   19.6147 H   0  0  0  0  0  0
  -21.1995   -7.6152   23.9730 H   0  0  0  0  0  0
  -21.1473   -6.0526   25.9084 H   0  0  0  0  0  0
  -22.0592   -2.7618   23.2859 H   0  0  0  0  0  0
  -22.4098  -11.9909   22.4763 H   0  0  0  0  0  0
  -21.1118  -13.1268   22.2474 H   0  0  0  0  0  0
  -24.6786  -15.8461   20.5086 H   0  0  0  0  0  0
  -26.2929  -15.6173   20.0690 H   0  0  0  0  0  0
  -26.7059  -32.5569   23.1172 H   0  0  0  0  0  0
  -25.0005  -33.9827   25.0447 H   0  0  0  0  0  0
  -22.6863  -31.3116   21.4168 H   0  0  0  0  0  0
  -23.3772  -35.9644   23.3341 H   0  0  0  0  0  0
  -24.3580  -36.8929   22.2051 H   0  0  0  0  0  0
  -23.7230  -37.6523   23.6648 H   0  0  0  0  0  0
  -26.0346  -31.6178   20.5939 H   0  0  0  0  0  0
  -26.8126  -30.9026   21.9746 H   0  0  0  0  0  0
  -28.0870  -29.1403   21.1637 H   0  0  0  0  0  0
  -26.0810  -25.9853   19.0205 H   0  0  0  0  0  0
  -23.9756  -27.2971   19.0367 H   0  0  0  0  0  0
  -23.6973  -30.6109   19.4086 H   0  0  0  0  0  0
  -22.7241  -29.2463   19.8756 H   0  0  0  0  0  0
  -25.1290  -36.2014   25.0843 H   0  0  0  0  0  0
  -20.9924  -28.3205   24.1493 H   0  0  0  0  0  0
  -20.5756  -26.2242   23.3602 H   0  0  0  0  0  0
  -21.6630  -26.7485   22.1173 H   0  0  0  0  0  0
  -19.6937  -25.6329   21.1227 H   0  0  0  0  0  0
  -19.6712  -27.3234   20.6842 H   0  0  0  0  0  0
  -17.4204  -26.6718   21.3999 H   0  0  0  0  0  0
  -18.0237  -26.0111   22.9037 H   0  0  0  0  0  0
  -19.7942  -30.7224   24.2301 H   0  0  0  0  0  0
  -17.5031  -31.6273   24.5152 H   0  0  0  0  0  0
  -15.5345  -30.2989   23.7661 H   0  0  0  0  0  0
  -15.8672  -28.0846   22.7012 H   0  0  0  0  0  0
  -24.5856  -30.7092   25.7827 H   0  0  0  0  0  0
  -24.8869  -32.2879   26.4969 H   0  0  0  0  0  0
  -25.8018  -30.8868   27.0254 H   0  0  0  0  0  0
  -26.2807  -29.6888   24.1120 H   0  0  0  0  0  0
  -27.4083  -29.7324   25.4506 H   0  0  0  0  0  0
  -27.8601  -30.4500   23.9196 H   0  0  0  0  0  0
  -27.2678  -33.3673   26.2065 H   0  0  0  0  0  0
  -28.3788  -32.6935   25.0271 H   0  0  0  0  0  0
  -28.0737  -31.8503   26.5382 H   0  0  0  0  0  0
  -28.2607  -38.0108   24.7533 H   0  0  0  0  0  0
  -28.1078  -36.2636   24.6264 H   0  0  0  0  0  0
  -27.2299  -37.1460   25.8868 H   0  0  0  0  0  0
  -20.9321  -29.8735   21.6979 H   0  0  0  0  0  0
  -26.0213  -38.2899   24.1409 H   0  0  0  0  0  0
  -28.2318  -24.0095   23.0071 H   0  0  0  0  0  0
  -30.5383  -22.1360   19.9963 H   0  0  0  0  0  0
  -29.0312  -22.3907   25.1533 H   0  0  0  0  0  0
  -29.6374  -20.7848   24.7752 H   0  0  0  0  0  0
  -27.9298  -21.1749   24.5075 H   0  0  0  0  0  0
  -33.5562  -15.8907   25.8857 H   0  0  0  0  0  0
  -32.4014  -17.0479   26.5578 H   0  0  0  0  0  0
  -33.6147  -17.5786   25.3993 H   0  0  0  0  0  0
  -31.4337  -20.2298   22.9848 H   0  0  0  0  0  0
  -31.3487  -19.9113   21.2702 H   0  0  0  0  0  0
  -29.1282  -15.6508   21.3193 H   0  0  0  0  0  0
  -30.1503  -15.0104   22.5993 H   0  0  0  0  0  0
  -31.1696  -15.7986   24.8498 H   0  0  0  0  0  0
  -32.5171  -15.9081   23.7342 H   0  0  0  0  0  0
  -30.2083  -24.9008   20.1595 H   0  0  0  0  0  0
  -28.7697  -24.1902   19.4399 H   0  0  0  0  0  0
  -29.1488  -18.7370   21.5298 H   0  0  0  0  0  0
  -29.0864  -19.1412   23.2117 H   0  0  0  0  0  0
  -30.7317  -17.3307   20.7016 H   0  0  0  0  0  0
  -31.9949  -16.6782   21.6864 H   0  0  0  0  0  0
  -32.2336  -18.3837   23.6145 H   0  0  0  0  0  0
  -30.8793  -18.3019   24.7295 H   0  0  0  0  0  0
  -28.7791  -26.0036   21.9208 H   0  0  0  0  0  0
  -27.3525  -25.3044   21.1716 H   0  0  0  0  0  0
  -29.6673  -17.0823   23.1725 H   0  0  0  0  0  0
  1 25  1  0  0  0
  1 30  2  0  0  0
  1 78  1  0  0  0
  2  3  1  0  0  0
  2 25  1  0  0  0
  2 87  1  0  0  0
  2 88  1  0  0  0
  3  4  1  0  0  0
  3 89  1  0  0  0
  3 90  1  0  0  0
  4  5  1  0  0  0
  4 91  1  0  0  0
  4 92  1  0  0  0
  5  6  1  0  0  0
  5 26  1  0  0  0
  5 93  1  0  0  0
  6 25  1  0  0  0
  6 94  1  0  0  0
  6 95  1  0  0  0
  7  8  2  0  0  0
  7 26  1  0  0  0
  7 29  1  0  0  0
  8  9  1  0  0  0
  8 22  1  0  0  0
  9 10  1  0  0  0
  9 27  2  0  0  0
 10 11  2  0  0  0
 10 15  1  0  0  0
 11 12  1  0  0  0
 11 96  1  0  0  0
 12 13  2  0  0  0
 12 97  1  0  0  0
 13 14  1  0  0  0
 13 31  1  0  0  0
 14 15  2  0  0  0
 14 98  1  0  0  0
 15 99  1  0  0  0
 16 17  2  0  0  0
 16 21  1  0  0  0
 16 31  1  0  0  0
 17 18  1  0  0  0
 17100  1  0  0  0
 18 19  2  0  0  0
 18101  1  0  0  0
 19 20  1  0  0  0
 19 24  1  0  0  0
 20 21  2  0  0  0
 20102  1  0  0  0
 21 23  1  0  0  0
 22 28  1  0  0  0
 22 32  2  0  0  0
 26 27  1  0  0  0
 28103  1  0  0  0
 28104  1  0  0  0
 29105  1  0  0  0
 29106  1  0  0  0
 33 34  1  0  0  0
 33 66  1  0  0  0
 33 70  2  0  0  0
 34 36  1  0  0  0
 34 59  1  0  0  0
 34107  1  0  0  0
 35 44  2  0  0  0
 35 45  1  0  0  0
 35 68  1  0  0  0
 36 56  1  0  0  0
 36108  1  0  0  0
 37 39  1  0  0  0
 37 47  1  0  0  0
 37 66  1  0  0  0
 37109  1  0  0  0
 38 43  2  0  0  0
 38 46  1  0  0  0
 38 47  1  0  0  0
 39 64  1  0  0  0
 39 67  2  0  0  0
 40 52  1  0  0  0
 40 53  2  0  0  0
 40 58  1  0  0  0
 41110  1  0  0  0
 41111  1  0  0  0
 41112  1  0  0  0
 41 48  1  0  0  0
 42 43  1  0  0  0
 42 66  1  0  0  0
 42113  1  0  0  0
 42114  1  0  0  0
 43 44  1  0  0  0
 44115  1  0  0  0
 45 46  2  0  0  0
 45116  1  0  0  0
 46117  1  0  0  0
 47118  1  0  0  0
 47119  1  0  0  0
 48 56  1  0  0  0
 48 65  1  0  0  0
 48120  1  0  0  0
 49 50  1  0  0  0
 49 53  1  0  0  0
 49 64  1  0  0  0
 49121  1  0  0  0
 50 51  1  0  0  0
 50122  1  0  0  0
 50123  1  0  0  0
 51 52  1  0  0  0
 51124  1  0  0  0
 51125  1  0  0  0
 52126  1  0  0  0
 52127  1  0  0  0
 53 54  1  0  0  0
 54 55  2  0  0  0
 54128  1  0  0  0
 55 57  1  0  0  0
 55129  1  0  0  0
 56 69  2  0  0  0
 57 58  2  0  0  0
 57130  1  0  0  0
 58131  1  0  0  0
 59 60  1  0  0  0
 59 61  1  0  0  0
 59 62  1  0  0  0
 60132  1  0  0  0
 60133  1  0  0  0
 60134  1  0  0  0
 61135  1  0  0  0
 61136  1  0  0  0
 61137  1  0  0  0
 62138  1  0  0  0
 62139  1  0  0  0
 62140  1  0  0  0
 63 65  1  0  0  0
 63141  1  0  0  0
 63142  1  0  0  0
 63143  1  0  0  0
 64144  1  0  0  0
 65145  1  0  0  0
 68 84  1  0  0  0
 71 73  2  0  0  0
 71 85  1  0  0  0
 71146  1  0  0  0
 72 74  2  0  0  0
 72 85  1  0  0  0
 72147  1  0  0  0
 73 74  1  0  0  0
 73 75  1  0  0  0
 74 77  1  0  0  0
 75148  1  0  0  0
 75149  1  0  0  0
 75150  1  0  0  0
 76 79  1  0  0  0
 76151  1  0  0  0
 76152  1  0  0  0
 76153  1  0  0  0
 77 81  1  0  0  0
 77154  1  0  0  0
 77155  1  0  0  0
 78 82  1  0  0  0
 78156  1  0  0  0
 78157  1  0  0  0
 79 83  1  0  0  0
 79158  1  0  0  0
 79159  1  0  0  0
 80 84  1  0  0  0
 80 85  1  0  0  0
 80160  1  0  0  0
 80161  1  0  0  0
 81162  1  0  0  0
 81163  1  0  0  0
 81 86  1  0  0  0
 82 86  1  0  0  0
 82164  1  0  0  0
 82165  1  0  0  0
 83 86  1  0  0  0
 83166  1  0  0  0
 83167  1  0  0  0
 84168  1  0  0  0
 84169  1  0  0  0
 86170  1  0  0  0
M  CHG  1  86   1
M  ISO  4   1 100  68 101  78 100  84 101
M  END
> <chiral flag>
0

> <version>
0

> <s_m_source_file>
/data/baiqing/PycharmProjects/Reinvent-master-3.2/result/LINK_invent/BTK/process_docking_weight1_custom_sum_contain_oxygen_bond_distance_aromatic_linkinvent_7_9_3/rearranged_h_0052.sdf

> <i_m_source_file_index>
9

> <r_mmod_Potential_Energy-OPLS-2005>
-149.982604980469

> <r_mmod_Stretch_Energy-OPLS-2005>
31.0608520507812

> <r_mmod_Bend_Energy-OPLS-2005>
99.5270767211914

> <r_mmod_Torsional_Energy-OPLS-2005>
225.588912963867

> <r_mmod_Improper_Torsional_Energy-OPLS-2005>
2.02937316894531

> <r_mmod_Van_der_Waal_Energy-OPLS-2005>
135.039459228516

> <r_mmod_Electrostatic_Energy-OPLS-2005>
-230.035629272461

> <r_mmod_Solvation_Energy-OPLS-2005>
-420.595489501953

> <b_mmod_Minimization_Converged-OPLS-2005>
0

> <r_mmod_RMS_Derivative-OPLS-2005>
3.70123505592346

$$$$
9
                    3D
 Structure written by MMmdl.
156164  0  0  1  0            999 V2000
  -30.6419  -14.7199   20.5008 C   0  0  0  0  0  0
  -30.4292  -12.4472   19.4792 C   0  0  0  0  0  0
  -29.5118  -12.5140   18.2385 C   0  0  0  0  0  0
  -28.0351  -12.3402   18.6443 C   0  0  0  0  0  0
  -27.6434  -13.2308   19.8538 C   0  0  2  0  0  0
  -28.6832  -13.1329   20.9885 C   0  0  0  0  0  0
  -25.2519  -13.8195   20.5688 C   0  0  0  0  0  0
  -24.1799  -13.0444   20.9185 C   0  0  0  0  0  0
  -24.6390  -11.6918   20.8733 C   0  0  0  0  0  0
  -23.9060  -10.4295   21.0396 C   0  0  0  0  0  0
  -24.3612   -9.4214   21.9172 C   0  0  0  0  0  0
  -23.6294   -8.2247   22.0748 C   0  0  0  0  0  0
  -22.4277   -8.0274   21.3547 C   0  0  0  0  0  0
  -21.9909   -9.0239   20.4647 C   0  0  0  0  0  0
  -22.7231  -10.2128   20.3049 C   0  0  0  0  0  0
  -21.6849   -6.0741   22.5288 C   0  0  0  0  0  0
  -21.4006   -6.5639   23.8219 C   0  0  0  0  0  0
  -21.3666   -5.6793   24.9181 C   0  0  0  0  0  0
  -21.6050   -4.3055   24.7228 C   0  0  0  0  0  0
  -21.8817   -3.8151   23.4348 C   0  0  0  0  0  0
  -21.9188   -4.6969   22.3406 C   0  0  0  0  0  0
  -22.7826  -13.5229   21.1856 C   0  0  0  0  0  0
  -22.1658   -4.2157   21.0984 F   0  0  0  0  0  0
  -21.5633   -3.4540   25.7738 F   0  0  0  0  0  0
  -29.9888  -13.5037   20.4236 N   0  0  0  0  0  0
  -26.2938  -12.9401   20.3272 N   0  0  0  0  0  0
  -25.9317  -11.6546   20.5730 N   0  0  0  0  0  0
  -22.0465  -12.8221   22.0419 N   0  0  0  0  0  0
  -25.4241  -15.1916   20.4144 N   0  0  0  0  0  0
  -31.7989  -14.8014   20.0762 O   0  0  0  0  0  0
  -21.6640   -6.8877   21.4245 O   0  0  0  0  0  0
  -22.3511  -14.5532   20.6701 O   0  0  0  0  0  0
  -24.6307  -31.8566   23.2010 C   0  0  0  0  0  0
  -25.9135  -32.4763   23.8350 C   0  0  1  0  0  0
  -27.2121  -27.2706   20.1300 C   0  0  0  0  0  0
  -25.5932  -33.8564   24.2272 N   0  0  0  0  0  0
  -23.4256  -30.4804   21.5449 C   0  0  2  0  0  0
  -24.8718  -28.9326   20.1111 C   0  0  0  0  0  0
  -22.7495  -29.4602   22.4921 C   0  0  0  0  0  0
  -18.0286  -28.1385   22.8494 C   0  0  0  0  0  0
  -24.1489  -36.7278   23.2639 C   0  0  0  0  0  0
  -25.9718  -30.7722   21.3811 C   0  0  0  0  0  0
  -26.0436  -29.3959   20.7230 C   0  0  0  0  0  0
  -27.2191  -28.5780   20.7215 C   0  0  0  0  0  0
  -26.0241  -26.8856   19.4694 C   0  0  0  0  0  0
  -24.8663  -27.6848   19.4718 C   0  0  0  0  0  0
  -23.6420  -29.8180   20.1603 C   0  0  0  0  0  0
  -25.4119  -36.3074   24.0326 C   0  0  1  0  0  0
  -20.5890  -28.3689   23.1273 C   0  0  2  0  0  0
  -20.6772  -26.9404   22.5404 C   0  0  0  0  0  0
  -19.5739  -26.6386   21.5207 C   0  0  0  0  0  0
  -18.1923  -26.7929   22.1627 C   0  0  0  0  0  0
  -19.1541  -28.8856   23.2878 C   0  0  0  0  0  0
  -18.9459  -30.1462   23.8887 C   0  0  0  0  0  0
  -17.6461  -30.6587   24.0556 C   0  0  0  0  0  0
  -25.9057  -34.9442   23.5101 C   0  0  0  0  0  0
  -16.5350  -29.9086   23.6338 C   0  0  0  0  0  0
  -16.7273  -28.6499   23.0362 C   0  0  0  0  0  0
  -26.4508  -31.6581   25.0728 C   0  0  0  0  0  0
  -25.3739  -31.3718   26.1456 C   0  0  0  0  0  0
  -27.0361  -30.3002   24.6206 C   0  0  0  0  0  0
  -27.6060  -32.4336   25.7494 C   0  0  0  0  0  0
  -27.5578  -37.1799   24.8467 C   0  0  0  0  0  0
  -21.4200  -29.3040   22.3668 N   0  0  0  0  0  0
  -26.4291  -37.3772   23.9405 N   0  0  0  0  0  0
  -24.6947  -31.0541   22.0982 N   0  0  0  0  0  0
  -23.4202  -28.8138   23.3011 O   0  0  0  0  0  0
  -28.2952  -26.3632   20.1702 O   0  0  0  0  0  0
  -26.5620  -34.8913   22.4665 O   0  0  0  0  0  0
  -23.5459  -32.1382   23.7308 O   0  0  0  0  0  0
  -28.7740  -19.5622   20.0514 C   0  0  0  0  0  0
  -29.1921  -20.8617   20.5559 C   0  0  0  0  0  0
  -29.7740  -18.6248   20.3078 C   0  0  0  0  0  0
  -32.0504  -18.9675   21.4032 C   0  0  0  0  0  0
  -29.3693  -16.1514   22.0721 C   0  0  0  0  0  0
  -28.3955  -22.2251   20.6953 C   0  0  0  0  0  0
  -30.0128  -17.1293   19.8457 C   0  0  0  0  0  0
  -28.9466  -23.6730   20.2316 C   0  0  0  0  0  0
  -27.9927  -24.9390   20.5510 C   0  0  0  0  0  0
  -30.3808  -20.7019   21.1273 N   0  0  0  0  0  0
  -30.7378  -19.3899   20.9540 N   0  0  0  0  0  0
  -29.9162  -15.8900   20.7384 N   0  0  0  0  0  0
  -31.4718  -12.5586   19.1785 H   0  0  0  0  0  0
  -30.3677  -11.4649   19.9500 H   0  0  0  0  0  0
  -29.7977  -11.7471   17.5168 H   0  0  0  0  0  0
  -29.6428  -13.4724   17.7343 H   0  0  0  0  0  0
  -27.8849  -11.2890   18.8937 H   0  0  0  0  0  0
  -27.3828  -12.5469   17.7945 H   0  0  0  0  0  0
  -27.6467  -14.2600   19.4926 H   0  0  0  0  0  0
  -28.7160  -12.1194   21.3907 H   0  0  0  0  0  0
  -28.3933  -13.7665   21.8226 H   0  0  0  0  0  0
  -25.2757   -9.5699   22.4744 H   0  0  0  0  0  0
  -24.0010   -7.4646   22.7468 H   0  0  0  0  0  0
  -21.0844   -8.8752   19.8952 H   0  0  0  0  0  0
  -22.3680  -10.9660   19.6153 H   0  0  0  0  0  0
  -21.1992   -7.6146   23.9727 H   0  0  0  0  0  0
  -21.1493   -6.0521   25.9089 H   0  0  0  0  0  0
  -22.0592   -2.7612   23.2842 H   0  0  0  0  0  0
  -22.4072  -11.9891   22.4830 H   0  0  0  0  0  0
  -21.1074  -13.1249   22.2608 H   0  0  0  0  0  0
  -24.6638  -15.8502   20.5391 H   0  0  0  0  0  0
  -26.2865  -15.6333   20.1229 H   0  0  0  0  0  0
  -26.7188  -32.5409   23.1084 H   0  0  0  0  0  0
  -25.0104  -33.9713   25.0435 H   0  0  0  0  0  0
  -22.7215  -31.3026   21.4019 H   0  0  0  0  0  0
  -23.3754  -35.9605   23.3303 H   0  0  0  0  0  0
  -24.3580  -36.8897   22.2050 H   0  0  0  0  0  0
  -23.7234  -37.6479   23.6663 H   0  0  0  0  0  0
  -26.1121  -31.5341   20.6129 H   0  0  0  0  0  0
  -26.8484  -30.8180   22.0150 H   0  0  0  0  0  0
  -28.1140  -28.9268   21.2173 H   0  0  0  0  0  0
  -25.9668  -25.9468   18.9390 H   0  0  0  0  0  0
  -23.9742  -27.3310   18.9731 H   0  0  0  0  0  0
  -23.7622  -30.5959   19.4052 H   0  0  0  0  0  0
  -22.7589  -29.2511   19.8597 H   0  0  0  0  0  0
  -25.1303  -36.1921   25.0817 H   0  0  0  0  0  0
  -20.9992  -28.3254   24.1388 H   0  0  0  0  0  0
  -20.5670  -26.2290   23.3608 H   0  0  0  0  0  0
  -21.6641  -26.7429   22.1189 H   0  0  0  0  0  0
  -19.6900  -25.6297   21.1233 H   0  0  0  0  0  0
  -19.6674  -27.3199   20.6741 H   0  0  0  0  0  0
  -17.4201  -26.6694   21.4025 H   0  0  0  0  0  0
  -18.0305  -26.0071   22.9014 H   0  0  0  0  0  0
  -19.7934  -30.7290   24.2241 H   0  0  0  0  0  0
  -17.5011  -31.6269   24.5159 H   0  0  0  0  0  0
  -15.5349  -30.2977   23.7680 H   0  0  0  0  0  0
  -15.8670  -28.0814   22.7083 H   0  0  0  0  0  0
  -24.5911  -30.7070   25.7785 H   0  0  0  0  0  0
  -24.8939  -32.2882   26.4898 H   0  0  0  0  0  0
  -25.8072  -30.8885   27.0224 H   0  0  0  0  0  0
  -26.2943  -29.6742   24.1240 H   0  0  0  0  0  0
  -27.4053  -29.7272   25.4720 H   0  0  0  0  0  0
  -27.8814  -30.4276   23.9443 H   0  0  0  0  0  0
  -27.2659  -33.3637   26.2064 H   0  0  0  0  0  0
  -28.3872  -32.6904   25.0324 H   0  0  0  0  0  0
  -28.0736  -31.8478   26.5421 H   0  0  0  0  0  0
  -28.2609  -38.0088   24.7520 H   0  0  0  0  0  0
  -28.1073  -36.2623   24.6302 H   0  0  0  0  0  0
  -27.2299  -37.1453   25.8874 H   0  0  0  0  0  0
  -20.9379  -29.8758   21.6876 H   0  0  0  0  0  0
  -26.0171  -38.2844   24.1418 H   0  0  0  0  0  0
  -27.8418  -19.3481   19.5466 H   0  0  0  0  0  0
  -32.0161  -17.9325   21.7457 H   0  0  0  0  0  0
  -32.3981  -19.5953   22.2238 H   0  0  0  0  0  0
  -32.7586  -19.0417   20.5782 H   0  0  0  0  0  0
  -29.7594  -17.0796   22.4879 H   0  0  0  0  0  0
  -29.6277  -15.3706   22.7901 H   0  0  0  0  0  0
  -28.2829  -16.2342   22.0272 H   0  0  0  0  0  0
  -28.1298  -22.3244   21.7476 H   0  0  0  0  0  0
  -27.4360  -22.0894   20.1943 H   0  0  0  0  0  0
  -30.9944  -17.1096   19.3708 H   0  0  0  0  0  0
  -29.3264  -16.9357   19.0214 H   0  0  0  0  0  0
  -29.1420  -23.6435   19.1596 H   0  0  0  0  0  0
  -29.9125  -23.8431   20.7070 H   0  0  0  0  0  0
  -27.8621  -24.9611   21.6333 H   0  0  0  0  0  0
  -27.0135  -24.6448   20.1830 H   0  0  0  0  0  0
  1 25  1  0  0  0
  1 30  2  0  0  0
  1 82  1  0  0  0
  2  3  1  0  0  0
  2 25  1  0  0  0
  2 83  1  0  0  0
  2 84  1  0  0  0
  3  4  1  0  0  0
  3 85  1  0  0  0
  3 86  1  0  0  0
  4  5  1  0  0  0
  4 87  1  0  0  0
  4 88  1  0  0  0
  5  6  1  0  0  0
  5 26  1  0  0  0
  5 89  1  0  0  0
  6 25  1  0  0  0
  6 90  1  0  0  0
  6 91  1  0  0  0
  7  8  2  0  0  0
  7 26  1  0  0  0
  7 29  1  0  0  0
  8  9  1  0  0  0
  8 22  1  0  0  0
  9 10  1  0  0  0
  9 27  2  0  0  0
 10 11  2  0  0  0
 10 15  1  0  0  0
 11 12  1  0  0  0
 11 92  1  0  0  0
 12 13  2  0  0  0
 12 93  1  0  0  0
 13 14  1  0  0  0
 13 31  1  0  0  0
 14 15  2  0  0  0
 14 94  1  0  0  0
 15 95  1  0  0  0
 16 17  2  0  0  0
 16 21  1  0  0  0
 16 31  1  0  0  0
 17 18  1  0  0  0
 17 96  1  0  0  0
 18 19  2  0  0  0
 18 97  1  0  0  0
 19 20  1  0  0  0
 19 24  1  0  0  0
 20 21  2  0  0  0
 20 98  1  0  0  0
 21 23  1  0  0  0
 22 28  1  0  0  0
 22 32  2  0  0  0
 26 27  1  0  0  0
 28 99  1  0  0  0
 28100  1  0  0  0
 29101  1  0  0  0
 29102  1  0  0  0
 33 34  1  0  0  0
 33 66  1  0  0  0
 33 70  2  0  0  0
 34 36  1  0  0  0
 34 59  1  0  0  0
 34103  1  0  0  0
 35 44  2  0  0  0
 35 45  1  0  0  0
 35 68  1  0  0  0
 36 56  1  0  0  0
 36104  1  0  0  0
 37 39  1  0  0  0
 37 47  1  0  0  0
 37 66  1  0  0  0
 37105  1  0  0  0
 38 43  2  0  0  0
 38 46  1  0  0  0
 38 47  1  0  0  0
 39 64  1  0  0  0
 39 67  2  0  0  0
 40 52  1  0  0  0
 40 53  2  0  0  0
 40 58  1  0  0  0
 41106  1  0  0  0
 41107  1  0  0  0
 41108  1  0  0  0
 41 48  1  0  0  0
 42 43  1  0  0  0
 42 66  1  0  0  0
 42109  1  0  0  0
 42110  1  0  0  0
 43 44  1  0  0  0
 44111  1  0  0  0
 45 46  2  0  0  0
 45112  1  0  0  0
 46113  1  0  0  0
 47114  1  0  0  0
 47115  1  0  0  0
 48 56  1  0  0  0
 48 65  1  0  0  0
 48116  1  0  0  0
 49 50  1  0  0  0
 49 53  1  0  0  0
 49 64  1  0  0  0
 49117  1  0  0  0
 50 51  1  0  0  0
 50118  1  0  0  0
 50119  1  0  0  0
 51 52  1  0  0  0
 51120  1  0  0  0
 51121  1  0  0  0
 52122  1  0  0  0
 52123  1  0  0  0
 53 54  1  0  0  0
 54 55  2  0  0  0
 54124  1  0  0  0
 55 57  1  0  0  0
 55125  1  0  0  0
 56 69  2  0  0  0
 57 58  2  0  0  0
 57126  1  0  0  0
 58127  1  0  0  0
 59 60  1  0  0  0
 59 61  1  0  0  0
 59 62  1  0  0  0
 60128  1  0  0  0
 60129  1  0  0  0
 60130  1  0  0  0
 61131  1  0  0  0
 61132  1  0  0  0
 61133  1  0  0  0
 62134  1  0  0  0
 62135  1  0  0  0
 62136  1  0  0  0
 63 65  1  0  0  0
 63137  1  0  0  0
 63138  1  0  0  0
 63139  1  0  0  0
 64140  1  0  0  0
 65141  1  0  0  0
 68 79  1  0  0  0
 71 72  1  0  0  0
 71 73  2  0  0  0
 71142  1  0  0  0
 72 76  1  0  0  0
 72 80  2  0  0  0
 73 77  1  0  0  0
 73 81  1  0  0  0
 74 81  1  0  0  0
 74143  1  0  0  0
 74144  1  0  0  0
 74145  1  0  0  0
 75 82  1  0  0  0
 75146  1  0  0  0
 75147  1  0  0  0
 75148  1  0  0  0
 76 78  1  0  0  0
 76149  1  0  0  0
 76150  1  0  0  0
 77 82  1  0  0  0
 77151  1  0  0  0
 77152  1  0  0  0
 78 79  1  0  0  0
 78153  1  0  0  0
 78154  1  0  0  0
 79155  1  0  0  0
 79156  1  0  0  0
 80 81  1  0  0  0
M  ISO  4   1 100  68 101  79 101  82 100
M  END
> <chiral flag>
0

> <version>
0

> <s_m_source_file>
/data/baiqing/PycharmProjects/Reinvent-master-3.2/result/LINK_invent/BTK/process_docking_weight1_custom_sum_contain_oxygen_bond_distance_aromatic_linkinvent_7_9_3/rearranged_h_0052.sdf

> <i_m_source_file_index>
10

> <r_mmod_Potential_Energy-OPLS-2005>
186.572692871094

> <r_mmod_Stretch_Energy-OPLS-2005>
115.707443237305

> <r_mmod_Bend_Energy-OPLS-2005>
174.554550170898

> <r_mmod_Torsional_Energy-OPLS-2005>
273.201995849609

> <r_mmod_Improper_Torsional_Energy-OPLS-2005>
10.4864568710327

> <r_mmod_Van_der_Waal_Energy-OPLS-2005>
119.535453796387

> <r_mmod_Electrostatic_Energy-OPLS-2005>
-373.142883300781

> <r_mmod_Solvation_Energy-OPLS-2005>
-209.12060546875

> <b_mmod_Minimization_Converged-OPLS-2005>
0

> <r_mmod_RMS_Derivative-OPLS-2005>
1.39265441894531

$$$$
10
                    3D
 Structure written by MMmdl.
154162  0  0  1  0            999 V2000
  -30.2329  -15.6889   20.3367 C   0  0  0  0  0  0
  -30.4343  -13.1108   19.5591 C   0  0  0  0  0  0
  -29.5650  -12.7136   18.3272 C   0  0  0  0  0  0
  -28.1296  -12.3424   18.7400 C   0  0  0  0  0  0
  -27.5971  -13.3220   19.8086 C   0  0  2  0  0  0
  -28.6060  -13.6304   20.9342 C   0  0  0  0  0  0
  -25.2339  -13.8324   20.5797 C   0  0  0  0  0  0
  -24.1730  -13.0460   20.9271 C   0  0  0  0  0  0
  -24.6448  -11.6974   20.8726 C   0  0  0  0  0  0
  -23.9145  -10.4319   21.0382 C   0  0  0  0  0  0
  -24.3676   -9.4225   21.9164 C   0  0  0  0  0  0
  -23.6331   -8.2272   22.0749 C   0  0  0  0  0  0
  -22.4303   -8.0316   21.3556 C   0  0  0  0  0  0
  -21.9947   -9.0286   20.4649 C   0  0  0  0  0  0
  -22.7305  -10.2153   20.3038 C   0  0  0  0  0  0
  -21.6872   -6.0765   22.5288 C   0  0  0  0  0  0
  -21.4041   -6.5650   23.8234 C   0  0  0  0  0  0
  -21.3663   -5.6785   24.9182 C   0  0  0  0  0  0
  -21.6044   -4.3049   24.7219 C   0  0  0  0  0  0
  -21.8817   -3.8160   23.4337 C   0  0  0  0  0  0
  -21.9196   -4.6992   22.3402 C   0  0  0  0  0  0
  -22.7743  -13.5177   21.1961 C   0  0  0  0  0  0
  -22.1664   -4.2173   21.0978 F   0  0  0  0  0  0
  -21.5598   -3.4536   25.7728 F   0  0  0  0  0  0
  -29.7953  -14.2787   20.3216 N   0  0  0  0  0  0
  -26.2778  -12.9674   20.3155 N   0  0  0  0  0  0
  -25.9392  -11.6723   20.5614 N   0  0  0  0  0  0
  -22.0413  -12.8111   22.0503 N   0  0  0  0  0  0
  -25.3937  -15.2078   20.4354 N   0  0  0  0  0  0
  -31.4592  -15.6649   20.0926 O   0  0  0  0  0  0
  -21.6657   -6.8921   21.4257 O   0  0  0  0  0  0
  -22.3401  -14.5480   20.6829 O   0  0  0  0  0  0
  -24.6831  -31.7957   23.1546 C   0  0  0  0  0  0
  -25.9391  -32.4463   23.8059 C   0  0  1  0  0  0
  -27.2259  -26.6616   20.2176 C   0  0  0  0  0  0
  -25.5960  -33.8300   24.1909 N   0  0  0  0  0  0
  -23.5145  -30.3964   21.5088 C   0  0  2  0  0  0
  -24.9747  -28.7356   20.1121 C   0  0  0  0  0  0
  -22.7773  -29.4290   22.4734 C   0  0  0  0  0  0
  -18.0340  -28.1452   22.8404 C   0  0  0  0  0  0
  -24.1469  -36.7168   23.2667 C   0  0  0  0  0  0
  -26.0944  -30.5126   21.4268 C   0  0  0  0  0  0
  -26.1620  -29.0754   20.7713 C   0  0  0  0  0  0
  -27.2674  -28.0679   20.7967 C   0  0  0  0  0  0
  -26.0139  -26.5507   19.4834 C   0  0  0  0  0  0
  -24.9449  -27.4988   19.4419 C   0  0  0  0  0  0
  -23.7717  -29.6962   20.1427 C   0  0  0  0  0  0
  -25.4130  -36.2904   24.0281 C   0  0  1  0  0  0
  -20.5975  -28.3792   23.1154 C   0  0  2  0  0  0
  -20.6826  -26.9443   22.5438 C   0  0  0  0  0  0
  -19.5793  -26.6354   21.5255 C   0  0  0  0  0  0
  -18.1954  -26.7964   22.1604 C   0  0  0  0  0  0
  -19.1613  -28.8943   23.2730 C   0  0  0  0  0  0
  -18.9541  -30.1530   23.8776 C   0  0  0  0  0  0
  -17.6535  -30.6626   24.0548 C   0  0  0  0  0  0
  -25.9123  -34.9298   23.4933 C   0  0  0  0  0  0
  -16.5411  -29.9116   23.6372 C   0  0  0  0  0  0
  -16.7324  -28.6550   23.0328 C   0  0  0  0  0  0
  -26.4530  -31.6544   25.0714 C   0  0  0  0  0  0
  -25.3558  -31.3893   26.1304 C   0  0  0  0  0  0
  -27.0486  -30.2887   24.6661 C   0  0  0  0  0  0
  -27.5932  -32.4459   25.7552 C   0  0  0  0  0  0
  -27.5535  -37.1724   24.8459 C   0  0  0  0  0  0
  -21.4427  -29.3031   22.3476 N   0  0  0  0  0  0
  -26.4245  -37.3687   23.9415 N   0  0  0  0  0  0
  -24.7883  -30.9344   22.0842 N   0  0  0  0  0  0
  -23.4168  -28.7894   23.3115 O   0  0  0  0  0  0
  -28.1539  -25.4055   20.3494 O   0  0  0  0  0  0
  -26.5780  -34.8896   22.4559 O   0  0  0  0  0  0
  -23.5848  -32.1055   23.6475 O   0  0  0  0  0  0
  -29.2146  -20.6611   19.7801 C   0  0  0  0  0  0
  -29.1533  -19.2495   20.5386 C   0  0  0  0  0  0
  -28.6008  -21.9491   20.3362 C   0  0  0  0  0  0
  -27.6214  -21.3347   23.8877 C   0  0  0  0  0  0
  -25.7657  -21.1992   22.1711 C   0  0  0  0  0  0
  -28.9755  -17.0929   22.1207 C   0  0  0  0  0  0
  -27.9996  -23.7011   19.8752 C   0  0  0  0  0  0
  -27.1873  -21.7143   22.4582 C   0  0  0  0  0  0
  -29.2630  -17.3090   20.6115 C   0  0  2  0  0  0
  -28.4291  -19.8288   21.5382 N   0  0  0  0  0  0
  -28.1228  -21.2149   21.4474 N   0  0  0  0  0  0
  -28.1108  -17.0327   19.9936 F   0  0  0  0  0  0
  -31.4321  -13.3793   19.2108 H   0  0  0  0  0  0
  -30.5913  -12.2553   20.2160 H   0  0  0  0  0  0
  -30.0319  -11.8961   17.7769 H   0  0  0  0  0  0
  -29.5256  -13.5611   17.6383 H   0  0  0  0  0  0
  -28.1373  -11.3259   19.1329 H   0  0  0  0  0  0
  -27.4733  -12.3381   17.8685 H   0  0  0  0  0  0
  -27.4630  -14.2586   19.2651 H   0  0  0  0  0  0
  -28.8634  -12.7389   21.5081 H   0  0  0  0  0  0
  -28.1406  -14.3160   21.6395 H   0  0  0  0  0  0
  -25.2825   -9.5694   22.4728 H   0  0  0  0  0  0
  -24.0050   -7.4663   22.7445 H   0  0  0  0  0  0
  -21.0881   -8.8819   19.8946 H   0  0  0  0  0  0
  -22.3777  -10.9691   19.6133 H   0  0  0  0  0  0
  -21.2065   -7.6163   23.9749 H   0  0  0  0  0  0
  -21.1470   -6.0510   25.9079 H   0  0  0  0  0  0
  -22.0586   -2.7623   23.2824 H   0  0  0  0  0  0
  -22.4059  -11.9761   22.4834 H   0  0  0  0  0  0
  -21.1034  -13.1107   22.2759 H   0  0  0  0  0  0
  -24.6287  -15.8592   20.5753 H   0  0  0  0  0  0
  -26.2548  -15.6667   20.1607 H   0  0  0  0  0  0
  -26.7440  -32.4912   23.0738 H   0  0  0  0  0  0
  -25.0006  -33.9354   24.9988 H   0  0  0  0  0  0
  -22.8451  -31.2380   21.3225 H   0  0  0  0  0  0
  -23.3780  -35.9450   23.3282 H   0  0  0  0  0  0
  -24.3542  -36.8885   22.2098 H   0  0  0  0  0  0
  -23.7192  -37.6304   23.6801 H   0  0  0  0  0  0
  -26.2948  -31.2403   20.6389 H   0  0  0  0  0  0
  -26.9446  -30.5801   22.0940 H   0  0  0  0  0  0
  -28.1521  -28.3296   21.3616 H   0  0  0  0  0  0
  -25.8358  -25.6170   18.9697 H   0  0  0  0  0  0
  -24.0488  -27.2302   18.8980 H   0  0  0  0  0  0
  -23.9550  -30.4616   19.3894 H   0  0  0  0  0  0
  -22.8726  -29.1730   19.8097 H   0  0  0  0  0  0
  -25.1333  -36.1665   25.0776 H   0  0  0  0  0  0
  -21.0003  -28.3437   24.1306 H   0  0  0  0  0  0
  -20.5776  -26.2399   23.3706 H   0  0  0  0  0  0
  -21.6681  -26.7455   22.1197 H   0  0  0  0  0  0
  -19.6987  -25.6236   21.1355 H   0  0  0  0  0  0
  -19.6791  -27.3101   20.6734 H   0  0  0  0  0  0
  -17.4260  -26.6735   21.3963 H   0  0  0  0  0  0
  -18.0282  -26.0140   22.9022 H   0  0  0  0  0  0
  -19.8036  -30.7365   24.2068 H   0  0  0  0  0  0
  -17.5114  -31.6297   24.5175 H   0  0  0  0  0  0
  -15.5411  -30.2979   23.7818 H   0  0  0  0  0  0
  -15.8715  -28.0891   22.7062 H   0  0  0  0  0  0
  -24.5844  -30.7144   25.7580 H   0  0  0  0  0  0
  -24.8644  -32.3119   26.4405 H   0  0  0  0  0  0
  -25.7680  -30.9278   27.0289 H   0  0  0  0  0  0
  -26.3196  -29.6469   24.1713 H   0  0  0  0  0  0
  -27.3921  -29.7406   25.5438 H   0  0  0  0  0  0
  -27.9153  -30.4004   24.0160 H   0  0  0  0  0  0
  -27.2451  -33.3888   26.1802 H   0  0  0  0  0  0
  -28.3890  -32.6823   25.0478 H   0  0  0  0  0  0
  -28.0416  -31.8832   26.5744 H   0  0  0  0  0  0
  -28.2492  -38.0066   24.7526 H   0  0  0  0  0  0
  -28.1059  -36.2589   24.6239 H   0  0  0  0  0  0
  -27.2255  -37.1317   25.8855 H   0  0  0  0  0  0
  -20.9788  -29.8697   21.6507 H   0  0  0  0  0  0
  -26.0060  -38.2707   24.1502 H   0  0  0  0  0  0
  -29.6344  -20.7014   18.7827 H   0  0  0  0  0  0
  -26.9310  -21.7426   24.6273 H   0  0  0  0  0  0
  -28.6160  -21.7195   24.1144 H   0  0  0  0  0  0
  -27.6399  -20.2534   24.0342 H   0  0  0  0  0  0
  -25.0336  -21.6610   22.8347 H   0  0  0  0  0  0
  -25.7003  -20.1192   22.3136 H   0  0  0  0  0  0
  -25.4642  -21.4175   21.1464 H   0  0  0  0  0  0
  -27.9624  -17.4008   22.3789 H   0  0  0  0  0  0
  -29.6701  -17.6793   22.7211 H   0  0  0  0  0  0
  -29.0743  -16.0674   22.4709 H   0  0  0  0  0  0
  -26.9152  -23.5977   19.8756 H   0  0  0  0  0  0
  -28.2298  -23.7762   18.8129 H   0  0  0  0  0  0
  -27.1689  -22.8030   22.3968 H   0  0  0  0  0  0
  1 25  1  0  0  0
  1 30  2  0  0  0
  1 79  1  0  0  0
  2  3  1  0  0  0
  2 25  1  0  0  0
  2 83  1  0  0  0
  2 84  1  0  0  0
  3  4  1  0  0  0
  3 85  1  0  0  0
  3 86  1  0  0  0
  4  5  1  0  0  0
  4 87  1  0  0  0
  4 88  1  0  0  0
  5  6  1  0  0  0
  5 26  1  0  0  0
  5 89  1  0  0  0
  6 25  1  0  0  0
  6 90  1  0  0  0
  6 91  1  0  0  0
  7  8  2  0  0  0
  7 26  1  0  0  0
  7 29  1  0  0  0
  8  9  1  0  0  0
  8 22  1  0  0  0
  9 10  1  0  0  0
  9 27  2  0  0  0
 10 11  2  0  0  0
 10 15  1  0  0  0
 11 12  1  0  0  0
 11 92  1  0  0  0
 12 13  2  0  0  0
 12 93  1  0  0  0
 13 14  1  0  0  0
 13 31  1  0  0  0
 14 15  2  0  0  0
 14 94  1  0  0  0
 15 95  1  0  0  0
 16 17  2  0  0  0
 16 21  1  0  0  0
 16 31  1  0  0  0
 17 18  1  0  0  0
 17 96  1  0  0  0
 18 19  2  0  0  0
 18 97  1  0  0  0
 19 20  1  0  0  0
 19 24  1  0  0  0
 20 21  2  0  0  0
 20 98  1  0  0  0
 21 23  1  0  0  0
 22 28  1  0  0  0
 22 32  2  0  0  0
 26 27  1  0  0  0
 28 99  1  0  0  0
 28100  1  0  0  0
 29101  1  0  0  0
 29102  1  0  0  0
 33 34  1  0  0  0
 33 66  1  0  0  0
 33 70  2  0  0  0
 34 36  1  0  0  0
 34 59  1  0  0  0
 34103  1  0  0  0
 35 44  2  0  0  0
 35 45  1  0  0  0
 35 68  1  0  0  0
 36 56  1  0  0  0
 36104  1  0  0  0
 37 39  1  0  0  0
 37 47  1  0  0  0
 37 66  1  0  0  0
 37105  1  0  0  0
 38 43  2  0  0  0
 38 46  1  0  0  0
 38 47  1  0  0  0
 39 64  1  0  0  0
 39 67  2  0  0  0
 40 52  1  0  0  0
 40 53  2  0  0  0
 40 58  1  0  0  0
 41106  1  0  0  0
 41107  1  0  0  0
 41108  1  0  0  0
 41 48  1  0  0  0
 42 43  1  0  0  0
 42 66  1  0  0  0
 42109  1  0  0  0
 42110  1  0  0  0
 43 44  1  0  0  0
 44111  1  0  0  0
 45 46  2  0  0  0
 45112  1  0  0  0
 46113  1  0  0  0
 47114  1  0  0  0
 47115  1  0  0  0
 48 56  1  0  0  0
 48 65  1  0  0  0
 48116  1  0  0  0
 49 50  1  0  0  0
 49 53  1  0  0  0
 49 64  1  0  0  0
 49117  1  0  0  0
 50 51  1  0  0  0
 50118  1  0  0  0
 50119  1  0  0  0
 51 52  1  0  0  0
 51120  1  0  0  0
 51121  1  0  0  0
 52122  1  0  0  0
 52123  1  0  0  0
 53 54  1  0  0  0
 54 55  2  0  0  0
 54124  1  0  0  0
 55 57  1  0  0  0
 55125  1  0  0  0
 56 69  2  0  0  0
 57 58  2  0  0  0
 57126  1  0  0  0
 58127  1  0  0  0
 59 60  1  0  0  0
 59 61  1  0  0  0
 59 62  1  0  0  0
 60128  1  0  0  0
 60129  1  0  0  0
 60130  1  0  0  0
 61131  1  0  0  0
 61132  1  0  0  0
 61133  1  0  0  0
 62134  1  0  0  0
 62135  1  0  0  0
 62136  1  0  0  0
 63 65  1  0  0  0
 63137  1  0  0  0
 63138  1  0  0  0
 63139  1  0  0  0
 64140  1  0  0  0
 65141  1  0  0  0
 68 77  1  0  0  0
 71 72  1  0  0  0
 71 73  2  0  0  0
 71142  1  0  0  0
 72 79  1  0  0  0
 72 80  2  0  0  0
 73 77  1  0  0  0
 73 81  1  0  0  0
 74143  1  0  0  0
 74144  1  0  0  0
 74145  1  0  0  0
 74 78  1  0  0  0
 75 78  1  0  0  0
 75146  1  0  0  0
 75147  1  0  0  0
 75148  1  0  0  0
 76149  1  0  0  0
 76150  1  0  0  0
 76151  1  0  0  0
 76 79  1  0  0  0
 77152  1  0  0  0
 77153  1  0  0  0
 78 81  1  0  0  0
 78154  1  0  0  0
 79 82  1  0  0  0
 80 81  1  0  0  0
M  ISO  4   1 100  68 101  77 101  79 100
M  END
> <chiral flag>
0

> <version>
0

> <s_m_source_file>
/data/baiqing/PycharmProjects/Reinvent-master-3.2/result/LINK_invent/BTK/process_docking_weight1_custom_sum_contain_oxygen_bond_distance_aromatic_linkinvent_7_9_3/rearranged_h_0052.sdf

> <i_m_source_file_index>
11

> <r_mmod_Potential_Energy-OPLS-2005>
2931.89794921875

> <r_mmod_Stretch_Energy-OPLS-2005>
1209.20690917969

> <r_mmod_Bend_Energy-OPLS-2005>
812.593017578125

> <r_mmod_Torsional_Energy-OPLS-2005>
233.29426574707

> <r_mmod_Improper_Torsional_Energy-OPLS-2005>
5.31249189376831

> <r_mmod_Van_der_Waal_Energy-OPLS-2005>
114.470039367676

> <r_mmod_Electrostatic_Energy-OPLS-2005>
-243.828216552734

> <r_mmod_Solvation_Energy-OPLS-2005>
-192.217300415039

> <b_mmod_Minimization_Converged-OPLS-2005>
0

> <r_mmod_RMS_Derivative-OPLS-2005>
4.06514596939087

$$$$
11
                    3D
 Structure written by MMmdl.
156164  0  0  1  0            999 V2000
  -30.6600  -14.5943   20.4610 C   0  0  0  0  0  0
  -30.4241  -12.3518   19.4496 C   0  0  0  0  0  0
  -29.4989  -12.4590   18.2182 C   0  0  0  0  0  0
  -28.0205  -12.3271   18.6339 C   0  0  0  0  0  0
  -27.6470  -13.2154   19.8517 C   0  0  2  0  0  0
  -28.6935  -13.0998   20.9819 C   0  0  0  0  0  0
  -25.2552  -13.8170   20.5697 C   0  0  0  0  0  0
  -24.1822  -13.0435   20.9205 C   0  0  0  0  0  0
  -24.6389  -11.6907   20.8746 C   0  0  0  0  0  0
  -23.9060  -10.4290   21.0410 C   0  0  0  0  0  0
  -24.3613   -9.4202   21.9188 C   0  0  0  0  0  0
  -23.6291   -8.2234   22.0753 C   0  0  0  0  0  0
  -22.4271   -8.0276   21.3544 C   0  0  0  0  0  0
  -21.9910   -9.0248   20.4643 C   0  0  0  0  0  0
  -22.7234  -10.2130   20.3055 C   0  0  0  0  0  0
  -21.6849   -6.0737   22.5282 C   0  0  0  0  0  0
  -21.4013   -6.5642   23.8217 C   0  0  0  0  0  0
  -21.3657   -5.6793   24.9182 C   0  0  0  0  0  0
  -21.6038   -4.3055   24.7228 C   0  0  0  0  0  0
  -21.8818   -3.8151   23.4351 C   0  0  0  0  0  0
  -21.9193   -4.6967   22.3408 C   0  0  0  0  0  0
  -22.7846  -13.5229   21.1868 C   0  0  0  0  0  0
  -22.1661   -4.2156   21.0983 F   0  0  0  0  0  0
  -21.5628   -3.4537   25.7742 F   0  0  0  0  0  0
  -30.0071  -13.3971   20.4004 N   0  0  0  0  0  0
  -26.2968  -12.9350   20.3298 N   0  0  0  0  0  0
  -25.9312  -11.6508   20.5761 N   0  0  0  0  0  0
  -22.0480  -12.8215   22.0414 N   0  0  0  0  0  0
  -25.4274  -15.1889   20.4119 N   0  0  0  0  0  0
  -31.8625  -14.6805   20.1960 O   0  0  0  0  0  0
  -21.6628   -6.8877   21.4245 O   0  0  0  0  0  0
  -22.3531  -14.5536   20.6718 O   0  0  0  0  0  0
  -24.6189  -31.8643   23.2059 C   0  0  0  0  0  0
  -25.9064  -32.4795   23.8369 C   0  0  1  0  0  0
  -27.2308  -27.3737   20.1033 C   0  0  0  0  0  0
  -25.5898  -33.8601   24.2307 N   0  0  0  0  0  0
  -23.4090  -30.4880   21.5459 C   0  0  2  0  0  0
  -24.8549  -28.9449   20.1125 C   0  0  0  0  0  0
  -22.7424  -29.4646   22.4950 C   0  0  0  0  0  0
  -18.0272  -28.1377   22.8496 C   0  0  0  0  0  0
  -24.1482  -36.7300   23.2638 C   0  0  0  0  0  0
  -25.9428  -30.8118   21.3658 C   0  0  0  0  0  0
  -26.0182  -29.4414   20.7120 C   0  0  0  0  0  0
  -27.2050  -28.6635   20.7022 C   0  0  0  0  0  0
  -26.0395  -26.9022   19.5052 C   0  0  0  0  0  0
  -24.8637  -27.6778   19.5059 C   0  0  0  0  0  0
  -23.6206  -29.8193   20.1609 C   0  0  0  0  0  0
  -25.4103  -36.3089   24.0329 C   0  0  1  0  0  0
  -20.5871  -28.3670   23.1304 C   0  0  2  0  0  0
  -20.6770  -26.9399   22.5412 C   0  0  0  0  0  0
  -19.5749  -26.6379   21.5207 C   0  0  0  0  0  0
  -18.1927  -26.7923   22.1619 C   0  0  0  0  0  0
  -19.1521  -28.8837   23.2903 C   0  0  0  0  0  0
  -18.9449  -30.1438   23.8920 C   0  0  0  0  0  0
  -17.6455  -30.6591   24.0563 C   0  0  0  0  0  0
  -25.9031  -34.9458   23.5116 C   0  0  0  0  0  0
  -16.5344  -29.9090   23.6329 C   0  0  0  0  0  0
  -16.7261  -28.6502   23.0358 C   0  0  0  0  0  0
  -26.4474  -31.6587   25.0714 C   0  0  0  0  0  0
  -25.3713  -31.3692   26.1443 C   0  0  0  0  0  0
  -27.0308  -30.3024   24.6116 C   0  0  0  0  0  0
  -27.6060  -32.4301   25.7470 C   0  0  0  0  0  0
  -27.5575  -37.1795   24.8466 C   0  0  0  0  0  0
  -21.4144  -29.3041   22.3706 N   0  0  0  0  0  0
  -26.4292  -37.3772   23.9404 N   0  0  0  0  0  0
  -24.6758  -31.0702   22.0974 N   0  0  0  0  0  0
  -23.4177  -28.8186   23.3007 O   0  0  0  0  0  0
  -28.4038  -26.6250   20.1478 O   0  0  0  0  0  0
  -26.5600  -34.8910   22.4684 O   0  0  0  0  0  0
  -23.5375  -32.1422   23.7434 O   0  0  0  0  0  0
  -29.8298  -20.4415   20.4465 C   0  0  0  0  0  0
  -27.9662  -19.5240   21.0372 C   0  0  0  0  0  0
  -28.8092  -21.3598   20.2349 C   0  0  0  0  0  0
  -29.9251  -16.3158   18.9014 C   0  0  0  0  0  0
  -28.8471  -22.7325   19.5415 C   0  0  0  0  0  0
  -28.4341  -24.0268   20.3341 C   0  0  0  0  0  0
  -30.0130  -18.0284   21.3843 C   0  0  0  0  0  0
  -29.3089  -16.6184   21.2478 C   0  0  0  0  0  0
  -28.5448  -25.3409   19.4741 C   0  0  0  0  0  0
  -27.6158  -20.7457   20.6190 N   0  0  0  0  0  0
  -29.2787  -19.2466   20.9454 N   0  0  0  0  0  0
  -29.8706  -15.6917   20.2281 N   0  0  0  0  0  0
  -31.4683  -12.4522   19.1468 H   0  0  0  0  0  0
  -30.3367  -11.3676   19.9118 H   0  0  0  0  0  0
  -29.7495  -11.6824   17.4942 H   0  0  0  0  0  0
  -29.6554  -13.4075   17.7052 H   0  0  0  0  0  0
  -27.8475  -11.2784   18.8787 H   0  0  0  0  0  0
  -27.3681  -12.5519   17.7891 H   0  0  0  0  0  0
  -27.6549  -14.2440   19.4924 H   0  0  0  0  0  0
  -28.6911  -12.0982   21.4142 H   0  0  0  0  0  0
  -28.4594  -13.7898   21.7939 H   0  0  0  0  0  0
  -25.2757   -9.5682   22.4767 H   0  0  0  0  0  0
  -23.9999   -7.4625   22.7474 H   0  0  0  0  0  0
  -21.0842   -8.8769   19.8948 H   0  0  0  0  0  0
  -22.3692  -10.9673   19.6168 H   0  0  0  0  0  0
  -21.2001   -7.6147   23.9726 H   0  0  0  0  0  0
  -21.1478   -6.0523   25.9085 H   0  0  0  0  0  0
  -22.0599   -2.7612   23.2851 H   0  0  0  0  0  0
  -22.4082  -11.9871   22.4804 H   0  0  0  0  0  0
  -21.1098  -13.1246   22.2598 H   0  0  0  0  0  0
  -24.6627  -15.8463   20.5200 H   0  0  0  0  0  0
  -26.2831  -15.6227   20.0912 H   0  0  0  0  0  0
  -26.7118  -32.5492   23.1115 H   0  0  0  0  0  0
  -25.0058  -33.9762   25.0464 H   0  0  0  0  0  0
  -22.6996  -31.3063   21.4027 H   0  0  0  0  0  0
  -23.3737  -35.9636   23.3308 H   0  0  0  0  0  0
  -24.3572  -36.8917   22.2050 H   0  0  0  0  0  0
  -23.7242  -37.6509   23.6657 H   0  0  0  0  0  0
  -26.0604  -31.5758   20.5965 H   0  0  0  0  0  0
  -26.8283  -30.8655   21.9864 H   0  0  0  0  0  0
  -28.1040  -29.0439   21.1665 H   0  0  0  0  0  0
  -25.9811  -25.9245   19.0522 H   0  0  0  0  0  0
  -23.9654  -27.2884   19.0472 H   0  0  0  0  0  0
  -23.7320  -30.5928   19.4001 H   0  0  0  0  0  0
  -22.7437  -29.2407   19.8652 H   0  0  0  0  0  0
  -25.1280  -36.1950   25.0820 H   0  0  0  0  0  0
  -20.9970  -28.3245   24.1420 H   0  0  0  0  0  0
  -20.5655  -26.2280   23.3604 H   0  0  0  0  0  0
  -21.6647  -26.7435   22.1210 H   0  0  0  0  0  0
  -19.6913  -25.6285   21.1241 H   0  0  0  0  0  0
  -19.6697  -27.3196   20.6743 H   0  0  0  0  0  0
  -17.4193  -26.6671   21.4018 H   0  0  0  0  0  0
  -18.0333  -26.0046   22.9001 H   0  0  0  0  0  0
  -19.7923  -30.7248   24.2308 H   0  0  0  0  0  0
  -17.5006  -31.6279   24.5150 H   0  0  0  0  0  0
  -15.5345  -30.3000   23.7640 H   0  0  0  0  0  0
  -15.8656  -28.0826   22.7070 H   0  0  0  0  0  0
  -24.5929  -30.6994   25.7776 H   0  0  0  0  0  0
  -24.8844  -32.2831   26.4850 H   0  0  0  0  0  0
  -25.8049  -30.8900   27.0229 H   0  0  0  0  0  0
  -26.2859  -29.6777   24.1171 H   0  0  0  0  0  0
  -27.4065  -29.7281   25.4591 H   0  0  0  0  0  0
  -27.8693  -30.4339   23.9269 H   0  0  0  0  0  0
  -27.2715  -33.3628   26.2022 H   0  0  0  0  0  0
  -28.3874  -32.6804   25.0282 H   0  0  0  0  0  0
  -28.0694  -31.8411   26.5392 H   0  0  0  0  0  0
  -28.2594  -38.0096   24.7524 H   0  0  0  0  0  0
  -28.1063  -36.2623   24.6278 H   0  0  0  0  0  0
  -27.2287  -37.1450   25.8870 H   0  0  0  0  0  0
  -20.9297  -29.8765   21.6935 H   0  0  0  0  0  0
  -26.0173  -38.2840   24.1428 H   0  0  0  0  0  0
  -30.8920  -20.5338   20.2610 H   0  0  0  0  0  0
  -27.2463  -18.8174   21.4257 H   0  0  0  0  0  0
  -28.9935  -16.8382   18.6807 H   0  0  0  0  0  0
  -30.0819  -15.5828   18.1100 H   0  0  0  0  0  0
  -30.7419  -17.0353   18.8380 H   0  0  0  0  0  0
  -28.2203  -22.6825   18.6503 H   0  0  0  0  0  0
  -29.8548  -22.8906   19.1548 H   0  0  0  0  0  0
  -29.0724  -24.1194   21.2132 H   0  0  0  0  0  0
  -27.4141  -23.9191   20.7045 H   0  0  0  0  0  0
  -30.9944  -18.0204   20.9101 H   0  0  0  0  0  0
  -30.2248  -18.1836   22.4427 H   0  0  0  0  0  0
  -28.2428  -16.7333   21.0572 H   0  0  0  0  0  0
  -29.3645  -16.1172   22.2156 H   0  0  0  0  0  0
  -27.9218  -25.2703   18.5838 H   0  0  0  0  0  0
  -29.5574  -25.3637   19.0700 H   0  0  0  0  0  0
  1 25  1  0  0  0
  1 30  2  0  0  0
  1 82  1  0  0  0
  2  3  1  0  0  0
  2 25  1  0  0  0
  2 83  1  0  0  0
  2 84  1  0  0  0
  3  4  1  0  0  0
  3 85  1  0  0  0
  3 86  1  0  0  0
  4  5  1  0  0  0
  4 87  1  0  0  0
  4 88  1  0  0  0
  5  6  1  0  0  0
  5 26  1  0  0  0
  5 89  1  0  0  0
  6 25  1  0  0  0
  6 90  1  0  0  0
  6 91  1  0  0  0
  7  8  2  0  0  0
  7 26  1  0  0  0
  7 29  1  0  0  0
  8  9  1  0  0  0
  8 22  1  0  0  0
  9 10  1  0  0  0
  9 27  2  0  0  0
 10 11  2  0  0  0
 10 15  1  0  0  0
 11 12  1  0  0  0
 11 92  1  0  0  0
 12 13  2  0  0  0
 12 93  1  0  0  0
 13 14  1  0  0  0
 13 31  1  0  0  0
 14 15  2  0  0  0
 14 94  1  0  0  0
 15 95  1  0  0  0
 16 17  2  0  0  0
 16 21  1  0  0  0
 16 31  1  0  0  0
 17 18  1  0  0  0
 17 96  1  0  0  0
 18 19  2  0  0  0
 18 97  1  0  0  0
 19 20  1  0  0  0
 19 24  1  0  0  0
 20 21  2  0  0  0
 20 98  1  0  0  0
 21 23  1  0  0  0
 22 28  1  0  0  0
 22 32  2  0  0  0
 26 27  1  0  0  0
 28 99  1  0  0  0
 28100  1  0  0  0
 29101  1  0  0  0
 29102  1  0  0  0
 33 34  1  0  0  0
 33 66  1  0  0  0
 33 70  2  0  0  0
 34 36  1  0  0  0
 34 59  1  0  0  0
 34103  1  0  0  0
 35 44  2  0  0  0
 35 45  1  0  0  0
 35 68  1  0  0  0
 36 56  1  0  0  0
 36104  1  0  0  0
 37 39  1  0  0  0
 37 47  1  0  0  0
 37 66  1  0  0  0
 37105  1  0  0  0
 38 43  2  0  0  0
 38 46  1  0  0  0
 38 47  1  0  0  0
 39 64  1  0  0  0
 39 67  2  0  0  0
 40 52  1  0  0  0
 40 53  2  0  0  0
 40 58  1  0  0  0
 41106  1  0  0  0
 41107  1  0  0  0
 41108  1  0  0  0
 41 48  1  0  0  0
 42 43  1  0  0  0
 42 66  1  0  0  0
 42109  1  0  0  0
 42110  1  0  0  0
 43 44  1  0  0  0
 44111  1  0  0  0
 45 46  2  0  0  0
 45112  1  0  0  0
 46113  1  0  0  0
 47114  1  0  0  0
 47115  1  0  0  0
 48 56  1  0  0  0
 48 65  1  0  0  0
 48116  1  0  0  0
 49 50  1  0  0  0
 49 53  1  0  0  0
 49 64  1  0  0  0
 49117  1  0  0  0
 50 51  1  0  0  0
 50118  1  0  0  0
 50119  1  0  0  0
 51 52  1  0  0  0
 51120  1  0  0  0
 51121  1  0  0  0
 52122  1  0  0  0
 52123  1  0  0  0
 53 54  1  0  0  0
 54 55  2  0  0  0
 54124  1  0  0  0
 55 57  1  0  0  0
 55125  1  0  0  0
 56 69  2  0  0  0
 57 58  2  0  0  0
 57126  1  0  0  0
 58127  1  0  0  0
 59 60  1  0  0  0
 59 61  1  0  0  0
 59 62  1  0  0  0
 60128  1  0  0  0
 60129  1  0  0  0
 60130  1  0  0  0
 61131  1  0  0  0
 61132  1  0  0  0
 61133  1  0  0  0
 62134  1  0  0  0
 62135  1  0  0  0
 62136  1  0  0  0
 63 65  1  0  0  0
 63137  1  0  0  0
 63138  1  0  0  0
 63139  1  0  0  0
 64140  1  0  0  0
 65141  1  0  0  0
 68 79  1  0  0  0
 71 73  2  0  0  0
 71 81  1  0  0  0
 71142  1  0  0  0
 72 80  2  0  0  0
 72 81  1  0  0  0
 72143  1  0  0  0
 73 75  1  0  0  0
 73 80  1  0  0  0
 74 82  1  0  0  0
 74144  1  0  0  0
 74145  1  0  0  0
 74146  1  0  0  0
 75 76  1  0  0  0
 75147  1  0  0  0
 75148  1  0  0  0
 76 79  1  0  0  0
 76149  1  0  0  0
 76150  1  0  0  0
 77 78  1  0  0  0
 77 81  1  0  0  0
 77151  1  0  0  0
 77152  1  0  0  0
 78 82  1  0  0  0
 78153  1  0  0  0
 78154  1  0  0  0
 79155  1  0  0  0
 79156  1  0  0  0
M  ISO  4   1 100  68 101  79 101  82 100
M  END
> <chiral flag>
0

> <version>
0

> <s_m_source_file>
/data/baiqing/PycharmProjects/Reinvent-master-3.2/result/LINK_invent/BTK/process_docking_weight1_custom_sum_contain_oxygen_bond_distance_aromatic_linkinvent_7_9_3/rearranged_h_0052.sdf

> <i_m_source_file_index>
12

> <r_mmod_Potential_Energy-OPLS-2005>
140.684921264648

> <r_mmod_Stretch_Energy-OPLS-2005>
55.938793182373

> <r_mmod_Bend_Energy-OPLS-2005>
137.454559326172

> <r_mmod_Torsional_Energy-OPLS-2005>
304.229919433594

> <r_mmod_Improper_Torsional_Energy-OPLS-2005>
22.2880191802979

> <r_mmod_Van_der_Waal_Energy-OPLS-2005>
116.149215698242

> <r_mmod_Electrostatic_Energy-OPLS-2005>
-313.721771240234

> <r_mmod_Solvation_Energy-OPLS-2005>
-217.551361083984

> <b_mmod_Minimization_Converged-OPLS-2005>
0

> <r_mmod_RMS_Derivative-OPLS-2005>
1.53747320175171

$$$$
12
                    3D
 Structure written by MMmdl.
159167  0  0  1  0            999 V2000
  -30.6879  -14.4036   20.5184 C   0  0  0  0  0  0
  -30.7125  -12.2144   19.3762 C   0  0  0  0  0  0
  -29.7043  -12.4023   18.2120 C   0  0  0  0  0  0
  -28.2704  -12.1421   18.7294 C   0  0  0  0  0  0
  -28.0884  -12.9246   20.0888 C   0  0  2  0  0  0
  -29.0960  -12.6421   21.1309 C   0  0  0  0  0  0
  -25.4059  -14.2209   21.6828 C   0  0  0  0  0  0
  -23.9991  -13.5878   20.9513 C   0  0  0  0  0  0
  -24.3028  -12.2399   19.9389 C   0  0  0  0  0  0
  -23.7689  -10.7975   20.4870 C   0  0  0  0  0  0
  -24.3300   -9.8751   21.4834 C   0  0  0  0  0  0
  -23.7069   -8.6146   21.8858 C   0  0  0  0  0  0
  -22.4792   -8.2073   21.3026 C   0  0  0  0  0  0
  -21.9109   -9.1192   20.4024 C   0  0  0  0  0  0
  -22.5160  -10.3532   20.0225 C   0  0  0  0  0  0
  -21.7896   -6.1544   22.5217 C   0  0  0  0  0  0
  -21.4722   -6.6230   23.8095 C   0  0  0  0  0  0
  -21.3813   -5.7189   24.8994 C   0  0  0  0  0  0
  -21.6007   -4.3426   24.6983 C   0  0  0  0  0  0
  -21.8731   -3.8611   23.4101 C   0  0  0  0  0  0
  -21.9517   -4.7625   22.3226 C   0  0  0  0  0  0
  -22.5989  -13.8262   21.2899 C   0  0  0  0  0  0
  -22.1828   -4.2664   21.0877 F   0  0  0  0  0  0
  -21.5393   -3.4791   25.7501 F   0  0  0  0  0  0
  -30.2963  -13.1102   20.4741 N   0  0  0  0  0  0
  -26.8321  -13.1100   20.6765 N   0  0  0  0  0  0
  -25.8741  -12.1403   19.6725 N   0  0  0  0  0  0
  -21.9977  -12.9092   22.0596 N   0  0  0  0  0  0
  -25.4206  -15.4072   22.2975 N   0  0  0  0  0  0
  -31.7818  -14.7810   20.1050 O   0  0  0  0  0  0
  -21.8038   -6.9802   21.4168 O   0  0  0  0  0  0
  -22.0192  -14.7463   20.7522 O   0  0  0  0  0  0
  -24.6798  -31.8153   23.1680 C   0  0  0  0  0  0
  -25.9448  -32.4514   23.8119 C   0  0  1  0  0  0
  -26.9039  -26.7723   20.0654 C   0  0  0  0  0  0
  -25.6066  -33.8340   24.2012 N   0  0  0  0  0  0
  -23.4715  -30.4554   21.5373 C   0  0  2  0  0  0
  -24.8398  -28.8392   20.0905 C   0  0  0  0  0  0
  -22.7646  -29.4449   22.4804 C   0  0  0  0  0  0
  -18.0320  -28.1399   22.8470 C   0  0  0  0  0  0
  -24.1483  -36.7145   23.2648 C   0  0  0  0  0  0
  -26.0536  -30.5578   21.4034 C   0  0  0  0  0  0
  -26.0525  -29.1511   20.7151 C   0  0  0  0  0  0
  -27.1203  -28.1264   20.6676 C   0  0  0  0  0  0
  -25.6898  -26.6512   19.4114 C   0  0  0  0  0  0
  -24.6855  -27.6259   19.4259 C   0  0  0  0  0  0
  -23.6787  -29.8179   20.1471 C   0  0  0  0  0  0
  -25.4144  -36.2922   24.0288 C   0  0  1  0  0  0
  -20.5943  -28.3746   23.1185 C   0  0  2  0  0  0
  -20.6795  -26.9425   22.5394 C   0  0  0  0  0  0
  -19.5769  -26.6367   21.5210 C   0  0  0  0  0  0
  -18.1955  -26.7927   22.1621 C   0  0  0  0  0  0
  -19.1581  -28.8903   23.2810 C   0  0  0  0  0  0
  -18.9493  -30.1495   23.8848 C   0  0  0  0  0  0
  -17.6485  -30.6595   24.0555 C   0  0  0  0  0  0
  -25.9144  -34.9315   23.4967 C   0  0  0  0  0  0
  -16.5376  -29.9085   23.6340 C   0  0  0  0  0  0
  -16.7303  -28.6499   23.0373 C   0  0  0  0  0  0
  -26.4621  -31.6516   25.0713 C   0  0  0  0  0  0
  -25.3698  -31.3805   26.1341 C   0  0  0  0  0  0
  -27.0543  -30.2881   24.6537 C   0  0  0  0  0  0
  -27.6074  -32.4371   25.7544 C   0  0  0  0  0  0
  -27.5560  -37.1740   24.8472 C   0  0  0  0  0  0
  -21.4326  -29.3035   22.3542 N   0  0  0  0  0  0
  -26.4264  -37.3692   23.9419 N   0  0  0  0  0  0
  -24.7632  -30.9761   22.0862 N   0  0  0  0  0  0
  -23.4224  -28.7990   23.2998 O   0  0  0  0  0  0
  -27.6622  -25.4898   19.9641 O   0  0  0  0  0  0
  -26.5765  -34.8880   22.4568 O   0  0  0  0  0  0
  -23.5867  -32.1228   23.6751 O   0  0  0  0  0  0
  -25.6924  -17.6295   18.7084 C   0  0  0  0  0  0
  -24.4896  -18.4931   20.1370 C   0  0  0  0  0  0
  -25.1087  -16.3604   19.3315 C   0  0  0  0  0  0
  -29.7403  -15.8547   22.1907 C   0  0  0  0  0  0
  -25.6335  -14.5595   19.5458 C   0  0  0  0  0  0
  -27.1550  -15.5708   20.0712 C   0  0  0  0  0  0
  -26.4451  -22.3227   19.2493 C   0  0  0  0  0  0
  -26.4302  -20.4823   19.6238 C   0  0  0  0  0  0
  -28.7478  -15.7875   19.7613 C   0  0  0  0  0  0
  -27.1488  -23.8491   20.0928 C   0  0  0  0  0  0
  -24.2367  -17.1229   20.1582 N   0  0  0  0  0  0
  -25.5270  -18.9834   19.4051 N   0  0  0  0  0  0
  -29.6769  -15.2641   20.8359 N   0  0  0  0  0  0
  -31.7369  -12.4343   19.0628 H   0  0  0  0  0  0
  -30.7226  -11.1697   19.7068 H   0  0  0  0  0  0
  -29.9401  -11.7562   17.3649 H   0  0  0  0  0  0
  -29.7998  -13.4272   17.8256 H   0  0  0  0  0  0
  -28.1230  -11.0661   18.8381 H   0  0  0  0  0  0
  -27.5982  -12.4902   17.9347 H   0  0  0  0  0  0
  -28.2452  -13.7157   19.4494 H   0  0  0  0  0  0
  -29.1395  -11.5695   21.3342 H   0  0  0  0  0  0
  -28.8753  -13.1556   22.0707 H   0  0  0  0  0  0
  -25.2648  -10.1277   21.9653 H   0  0  0  0  0  0
  -24.1916   -7.9541   22.5852 H   0  0  0  0  0  0
  -20.9670   -8.8437   19.9519 H   0  0  0  0  0  0
  -21.9582  -10.9636   19.3250 H   0  0  0  0  0  0
  -21.3061   -7.6765   23.9703 H   0  0  0  0  0  0
  -21.1565   -6.0998   25.8870 H   0  0  0  0  0  0
  -22.0316   -2.8061   23.2382 H   0  0  0  0  0  0
  -22.4705  -12.0691   22.3851 H   0  0  0  0  0  0
  -21.0124  -13.0113   22.2812 H   0  0  0  0  0  0
  -24.5227  -15.5382   22.7275 H   0  0  0  0  0  0
  -26.1426  -15.5691   22.9931 H   0  0  0  0  0  0
  -26.7487  -32.4942   23.0773 H   0  0  0  0  0  0
  -25.0110  -33.9392   25.0099 H   0  0  0  0  0  0
  -22.7934  -31.2996   21.3965 H   0  0  0  0  0  0
  -23.3787  -35.9428   23.3276 H   0  0  0  0  0  0
  -24.3536  -36.8846   22.2064 H   0  0  0  0  0  0
  -23.7197  -37.6296   23.6748 H   0  0  0  0  0  0
  -26.2729  -31.3009   20.6359 H   0  0  0  0  0  0
  -26.9084  -30.5747   22.0658 H   0  0  0  0  0  0
  -28.0610  -28.3316   21.1593 H   0  0  0  0  0  0
  -25.4653  -25.7197   18.9130 H   0  0  0  0  0  0
  -23.7553  -27.3907   18.9315 H   0  0  0  0  0  0
  -23.8753  -30.6025   19.4138 H   0  0  0  0  0  0
  -22.7624  -29.3257   19.8127 H   0  0  0  0  0  0
  -25.1339  -36.1674   25.0780 H   0  0  0  0  0  0
  -21.0033  -28.3338   24.1313 H   0  0  0  0  0  0
  -20.5672  -26.2357   23.3638 H   0  0  0  0  0  0
  -21.6658  -26.7397   22.1200 H   0  0  0  0  0  0
  -19.6911  -25.6267   21.1281 H   0  0  0  0  0  0
  -19.6697  -27.3147   20.6723 H   0  0  0  0  0  0
  -17.4209  -26.6681   21.4036 H   0  0  0  0  0  0
  -18.0343  -26.0094   22.9044 H   0  0  0  0  0  0
  -19.7976  -30.7322   24.2188 H   0  0  0  0  0  0
  -17.5045  -31.6275   24.5151 H   0  0  0  0  0  0
  -15.5377  -30.2969   23.7705 H   0  0  0  0  0  0
  -15.8706  -28.0805   22.7117 H   0  0  0  0  0  0
  -24.5884  -30.7172   25.7623 H   0  0  0  0  0  0
  -24.8903  -32.3024   26.4643 H   0  0  0  0  0  0
  -25.7889  -30.9026   27.0203 H   0  0  0  0  0  0
  -26.3217  -29.6514   24.1586 H   0  0  0  0  0  0
  -27.4067  -29.7316   25.5225 H   0  0  0  0  0  0
  -27.9158  -30.4065   23.9975 H   0  0  0  0  0  0
  -27.2605  -33.3721   26.1968 H   0  0  0  0  0  0
  -28.3974  -32.6866   25.0444 H   0  0  0  0  0  0
  -28.0648  -31.8610   26.5602 H   0  0  0  0  0  0
  -28.2537  -38.0076   24.7561 H   0  0  0  0  0  0
  -28.1098  -36.2603   24.6251 H   0  0  0  0  0  0
  -27.2280  -37.1317   25.8876 H   0  0  0  0  0  0
  -20.9583  -29.8762   21.6710 H   0  0  0  0  0  0
  -26.0083  -38.2725   24.1478 H   0  0  0  0  0  0
  -26.4947  -17.6604   17.9927 H   0  0  0  0  0  0
  -23.9677  -19.1592   20.8200 H   0  0  0  0  0  0
  -29.9719  -16.9141   22.1638 H   0  0  0  0  0  0
  -30.5319  -15.3900   22.7843 H   0  0  0  0  0  0
  -28.8224  -15.6886   22.7550 H   0  0  0  0  0  0
  -25.3863  -12.4492   21.4438 H   0  0  0  0  0  0
  -25.9569  -14.2437   18.5402 H   0  0  0  0  0  0
  -27.3058  -15.5982   21.1355 H   0  0  0  0  0  0
  -27.1358  -16.6239   19.9830 H   0  0  0  0  0  0
  -25.4300  -22.5924   18.9392 H   0  0  0  0  0  0
  -27.0144  -22.3503   18.3128 H   0  0  0  0  0  0
  -26.6362  -20.4996   20.7018 H   0  0  0  0  0  0
  -27.4024  -20.1940   19.2457 H   0  0  0  0  0  0
  -29.0065  -16.8469   19.7486 H   0  0  0  0  0  0
  -29.0464  -15.5001   18.7456 H   0  0  0  0  0  0
  -28.1489  -23.4590   20.3173 H   0  0  0  0  0  0
  -26.6707  -23.8474   21.0668 H   0  0  0  0  0  0
  1 25  1  0  0  0
  1 30  2  0  0  0
  1 83  1  0  0  0
  2  3  1  0  0  0
  2 25  1  0  0  0
  2 84  1  0  0  0
  2 85  1  0  0  0
  3  4  1  0  0  0
  3 86  1  0  0  0
  3 87  1  0  0  0
  4  5  1  0  0  0
  4 88  1  0  0  0
  4 89  1  0  0  0
  5  6  1  0  0  0
  5 26  1  0  0  0
  5 90  1  0  0  0
  6 25  1  0  0  0
  6 91  1  0  0  0
  6 92  1  0  0  0
  7  8  2  0  0  0
  7 26  1  0  0  0
  7 29  1  0  0  0
  8  9  1  0  0  0
  8 22  1  0  0  0
  9 10  1  0  0  0
  9 27  2  0  0  0
 10 11  2  0  0  0
 10 15  1  0  0  0
 11 12  1  0  0  0
 11 93  1  0  0  0
 12 13  2  0  0  0
 12 94  1  0  0  0
 13 14  1  0  0  0
 13 31  1  0  0  0
 14 15  2  0  0  0
 14 95  1  0  0  0
 15 96  1  0  0  0
 16 17  2  0  0  0
 16 21  1  0  0  0
 16 31  1  0  0  0
 17 18  1  0  0  0
 17 97  1  0  0  0
 18 19  2  0  0  0
 18 98  1  0  0  0
 19 20  1  0  0  0
 19 24  1  0  0  0
 20 21  2  0  0  0
 20 99  1  0  0  0
 21 23  1  0  0  0
 22 28  1  0  0  0
 22 32  2  0  0  0
 26 27  1  0  0  0
 28100  1  0  0  0
 28101  1  0  0  0
 29102  1  0  0  0
 29103  1  0  0  0
 33 34  1  0  0  0
 33 66  1  0  0  0
 33 70  2  0  0  0
 34 36  1  0  0  0
 34 59  1  0  0  0
 34104  1  0  0  0
 35 44  2  0  0  0
 35 45  1  0  0  0
 35 68  1  0  0  0
 36 56  1  0  0  0
 36105  1  0  0  0
 37 39  1  0  0  0
 37 47  1  0  0  0
 37 66  1  0  0  0
 37106  1  0  0  0
 38 43  2  0  0  0
 38 46  1  0  0  0
 38 47  1  0  0  0
 39 64  1  0  0  0
 39 67  2  0  0  0
 40 52  1  0  0  0
 40 53  2  0  0  0
 40 58  1  0  0  0
 41107  1  0  0  0
 41108  1  0  0  0
 41109  1  0  0  0
 41 48  1  0  0  0
 42 43  1  0  0  0
 42 66  1  0  0  0
 42110  1  0  0  0
 42111  1  0  0  0
 43 44  1  0  0  0
 44112  1  0  0  0
 45 46  2  0  0  0
 45113  1  0  0  0
 46114  1  0  0  0
 47115  1  0  0  0
 47116  1  0  0  0
 48 56  1  0  0  0
 48 65  1  0  0  0
 48117  1  0  0  0
 49 50  1  0  0  0
 49 53  1  0  0  0
 49 64  1  0  0  0
 49118  1  0  0  0
 50 51  1  0  0  0
 50119  1  0  0  0
 50120  1  0  0  0
 51 52  1  0  0  0
 51121  1  0  0  0
 51122  1  0  0  0
 52123  1  0  0  0
 52124  1  0  0  0
 53 54  1  0  0  0
 54 55  2  0  0  0
 54125  1  0  0  0
 55 57  1  0  0  0
 55126  1  0  0  0
 56 69  2  0  0  0
 57 58  2  0  0  0
 57127  1  0  0  0
 58128  1  0  0  0
 59 60  1  0  0  0
 59 61  1  0  0  0
 59 62  1  0  0  0
 60129  1  0  0  0
 60130  1  0  0  0
 60131  1  0  0  0
 61132  1  0  0  0
 61133  1  0  0  0
 61134  1  0  0  0
 62135  1  0  0  0
 62136  1  0  0  0
 62137  1  0  0  0
 63 65  1  0  0  0
 63138  1  0  0  0
 63139  1  0  0  0
 63140  1  0  0  0
 64141  1  0  0  0
 65142  1  0  0  0
 68 80  1  0  0  0
 71 73  2  0  0  0
 71 82  1  0  0  0
 71143  1  0  0  0
 72 81  2  0  0  0
 72 82  1  0  0  0
 72144  1  0  0  0
 73 75  1  0  0  0
 73 81  1  0  0  0
 74 83  1  0  0  0
 74145  1  0  0  0
 74146  1  0  0  0
 74147  1  0  0  0
 75 76  1  0  0  0
 75148  1  0  0  0
 75149  1  0  0  0
 76 79  1  0  0  0
 76150  1  0  0  0
 76151  1  0  0  0
 77 78  1  0  0  0
 77 80  1  0  0  0
 77152  1  0  0  0
 77153  1  0  0  0
 78 82  1  0  0  0
 78154  1  0  0  0
 78155  1  0  0  0
 79 83  1  0  0  0
 79156  1  0  0  0
 79157  1  0  0  0
 80158  1  0  0  0
 80159  1  0  0  0
M  ISO  4   1 100  68 101  80 101  83 100
M  END
> <chiral flag>
0

> <version>
0

> <s_m_source_file>
/data/baiqing/PycharmProjects/Reinvent-master-3.2/result/LINK_invent/BTK/process_docking_weight1_custom_sum_contain_oxygen_bond_distance_aromatic_linkinvent_7_9_3/rearranged_h_0052.sdf

> <i_m_source_file_index>
13

> <r_mmod_Potential_Energy-OPLS-2005>
12459.5302734375

> <r_mmod_Stretch_Energy-OPLS-2005>
7217.3154296875

> <r_mmod_Bend_Energy-OPLS-2005>
1178.11328125

> <r_mmod_Torsional_Energy-OPLS-2005>
540.499206542969

> <r_mmod_Improper_Torsional_Energy-OPLS-2005>
56.208309173584

> <r_mmod_Van_der_Waal_Energy-OPLS-2005>
2508.03076171875

> <r_mmod_Electrostatic_Energy-OPLS-2005>
-268.507385253906

> <r_mmod_Solvation_Energy-OPLS-2005>
-244.809524536133

> <b_mmod_Minimization_Converged-OPLS-2005>
0

> <r_mmod_RMS_Derivative-OPLS-2005>
39.345157623291

$$$$
13
                    3D
 Structure written by MMmdl.
165173  0  0  1  0            999 V2000
  -30.7505  -14.3885   20.6890 C   0  0  0  0  0  0
  -30.4178  -12.2930   19.4261 C   0  0  0  0  0  0
  -29.4931  -12.5126   18.2130 C   0  0  0  0  0  0
  -28.0153  -12.3551   18.6197 C   0  0  0  0  0  0
  -27.6610  -13.1847   19.8786 C   0  0  2  0  0  0
  -28.6932  -12.9537   21.0029 C   0  0  0  0  0  0
  -25.2594  -13.8115   20.5736 C   0  0  0  0  0  0
  -24.1812  -13.0406   20.9226 C   0  0  0  0  0  0
  -24.6347  -11.6876   20.8776 C   0  0  0  0  0  0
  -23.9019  -10.4267   21.0422 C   0  0  0  0  0  0
  -24.3585   -9.4182   21.9194 C   0  0  0  0  0  0
  -23.6283   -8.2202   22.0733 C   0  0  0  0  0  0
  -22.4272   -8.0254   21.3533 C   0  0  0  0  0  0
  -21.9898   -9.0213   20.4627 C   0  0  0  0  0  0
  -22.7203  -10.2108   20.3050 C   0  0  0  0  0  0
  -21.6830   -6.0745   22.5305 C   0  0  0  0  0  0
  -21.3990   -6.5636   23.8246 C   0  0  0  0  0  0
  -21.3659   -5.6776   24.9199 C   0  0  0  0  0  0
  -21.6039   -4.3036   24.7231 C   0  0  0  0  0  0
  -21.8810   -3.8150   23.4343 C   0  0  0  0  0  0
  -21.9179   -4.6971   22.3421 C   0  0  0  0  0  0
  -22.7832  -13.5224   21.1867 C   0  0  0  0  0  0
  -22.1660   -4.2170   21.0993 F   0  0  0  0  0  0
  -21.5632   -3.4517   25.7735 F   0  0  0  0  0  0
  -30.0408  -13.2477   20.4797 N   0  0  0  0  0  0
  -26.2999  -12.9223   20.3385 N   0  0  0  0  0  0
  -25.9255  -11.6405   20.5766 N   0  0  0  0  0  0
  -22.0440  -12.8249   22.0427 N   0  0  0  0  0  0
  -25.4267  -15.1835   20.4216 N   0  0  0  0  0  0
  -31.7815  -14.6577   20.0591 O   0  0  0  0  0  0
  -21.6602   -6.8880   21.4275 O   0  0  0  0  0  0
  -22.3539  -14.5527   20.6691 O   0  0  0  0  0  0
  -24.6074  -31.8660   23.2132 C   0  0  0  0  0  0
  -25.8978  -32.4849   23.8384 C   0  0  1  0  0  0
  -27.2467  -27.4638   20.0846 C   0  0  0  0  0  0
  -25.5823  -33.8636   24.2315 N   0  0  0  0  0  0
  -23.3942  -30.4875   21.5558 C   0  0  2  0  0  0
  -24.8379  -28.9549   20.1212 C   0  0  0  0  0  0
  -22.7352  -29.4622   22.5029 C   0  0  0  0  0  0
  -18.0245  -28.1335   22.8543 C   0  0  0  0  0  0
  -24.1446  -36.7308   23.2634 C   0  0  0  0  0  0
  -25.9160  -30.8408   21.3601 C   0  0  0  0  0  0
  -25.9944  -29.4746   20.7157 C   0  0  0  0  0  0
  -27.1933  -28.7314   20.7027 C   0  0  0  0  0  0
  -26.0589  -26.9405   19.5136 C   0  0  0  0  0  0
  -24.8636  -27.6852   19.5224 C   0  0  0  0  0  0
  -23.5963  -29.8160   20.1711 C   0  0  0  0  0  0
  -25.4092  -36.3115   24.0318 C   0  0  1  0  0  0
  -20.5843  -28.3641   23.1345 C   0  0  2  0  0  0
  -20.6738  -26.9433   22.5286 C   0  0  0  0  0  0
  -19.5681  -26.6554   21.5060 C   0  0  0  0  0  0
  -18.1903  -26.7934   22.1595 C   0  0  0  0  0  0
  -19.1488  -28.8802   23.2957 C   0  0  0  0  0  0
  -18.9389  -30.1459   23.8877 C   0  0  0  0  0  0
  -17.6383  -30.6602   24.0467 C   0  0  0  0  0  0
  -25.9014  -34.9477   23.5142 C   0  0  0  0  0  0
  -16.5287  -29.9057   23.6269 C   0  0  0  0  0  0
  -16.7230  -28.6435   23.0370 C   0  0  0  0  0  0
  -26.4446  -31.6607   25.0685 C   0  0  0  0  0  0
  -25.3720  -31.3653   26.1444 C   0  0  0  0  0  0
  -27.0275  -30.3068   24.5992 C   0  0  0  0  0  0
  -27.6085  -32.4266   25.7427 C   0  0  0  0  0  0
  -27.5575  -37.1814   24.8470 C   0  0  0  0  0  0
  -21.4074  -29.3071   22.3814 N   0  0  0  0  0  0
  -26.4290  -37.3799   23.9411 N   0  0  0  0  0  0
  -24.6580  -31.0755   22.1045 N   0  0  0  0  0  0
  -23.4159  -28.8093   23.2991 O   0  0  0  0  0  0
  -28.4740  -26.8323   20.0625 O   0  0  0  0  0  0
  -26.5609  -34.8911   22.4721 O   0  0  0  0  0  0
  -23.5278  -32.1404   23.7551 O   0  0  0  0  0  0
  -26.7353  -22.6716   20.2396 C   0  0  0  0  0  0
  -28.4642  -21.2859   18.6955 C   0  0  0  0  0  0
  -28.0474  -23.1373   19.9915 C   0  0  0  0  0  0
  -27.1546  -20.8075   18.9512 C   0  0  0  0  0  0
  -25.4222  -19.5893   17.8280 C   0  0  0  0  0  0
  -30.2498  -15.1187   22.9651 C   0  0  0  0  0  0
  -28.5094  -24.4618   20.5572 C   0  0  0  0  0  0
  -28.3924  -18.3069   19.9121 C   0  0  0  0  0  0
  -28.5937  -16.9441   20.5815 C   0  0  0  0  0  0
  -26.9472  -18.4638   19.3958 C   0  0  0  0  0  0
  -30.0235  -16.7005   21.0876 C   0  0  0  0  0  0
  -28.6180  -25.5433   19.4738 C   0  0  0  0  0  0
  -28.9223  -22.4475   19.2206 N   0  0  0  0  0  0
  -26.2835  -21.5045   19.7224 N   0  0  0  0  0  0
  -26.7448  -19.5621   18.4512 N   0  0  0  0  0  0
  -30.1809  -15.3000   21.5116 N   0  0  0  0  0  0
  -31.4607  -12.3984   19.1239 H   0  0  0  0  0  0
  -30.3255  -11.2743   19.8061 H   0  0  0  0  0  0
  -29.7429  -11.8040   17.4226 H   0  0  0  0  0  0
  -29.6594  -13.5095   17.8013 H   0  0  0  0  0  0
  -27.8411  -11.2967   18.8141 H   0  0  0  0  0  0
  -27.3580  -12.6226   17.7914 H   0  0  0  0  0  0
  -27.7030  -14.2233   19.5758 H   0  0  0  0  0  0
  -28.6595  -11.9177   21.3387 H   0  0  0  0  0  0
  -28.4178  -13.5435   21.8751 H   0  0  0  0  0  0
  -25.2709   -9.5644   22.4809 H   0  0  0  0  0  0
  -23.9974   -7.4566   22.7441 H   0  0  0  0  0  0
  -21.0823   -8.8710   19.8955 H   0  0  0  0  0  0
  -22.3636  -10.9647   19.6170 H   0  0  0  0  0  0
  -21.1970   -7.6132   23.9767 H   0  0  0  0  0  0
  -21.1511   -6.0494   25.9120 H   0  0  0  0  0  0
  -22.0596   -2.7620   23.2824 H   0  0  0  0  0  0
  -22.4003  -11.9907   22.4856 H   0  0  0  0  0  0
  -21.1065  -13.1313   22.2596 H   0  0  0  0  0  0
  -24.6561  -15.8293   20.5580 H   0  0  0  0  0  0
  -26.2788  -15.6339   20.1184 H   0  0  0  0  0  0
  -26.7072  -32.5574   23.1167 H   0  0  0  0  0  0
  -24.9882  -33.9806   25.0395 H   0  0  0  0  0  0
  -22.6824  -31.3038   21.4168 H   0  0  0  0  0  0
  -23.3693  -35.9656   23.3317 H   0  0  0  0  0  0
  -24.3503  -36.8899   22.2041 H   0  0  0  0  0  0
  -23.7206  -37.6521   23.6638 H   0  0  0  0  0  0
  -26.0133  -31.6049   20.5890 H   0  0  0  0  0  0
  -26.8090  -30.9070   21.9687 H   0  0  0  0  0  0
  -28.0846  -29.1342   21.1622 H   0  0  0  0  0  0
  -26.0157  -25.9717   19.0419 H   0  0  0  0  0  0
  -23.9764  -27.2776   19.0559 H   0  0  0  0  0  0
  -23.6969  -30.5845   19.4045 H   0  0  0  0  0  0
  -22.7196  -29.2300   19.8876 H   0  0  0  0  0  0
  -25.1284  -36.1989   25.0814 H   0  0  0  0  0  0
  -21.0009  -28.3105   24.1430 H   0  0  0  0  0  0
  -20.5665  -26.2155   23.3356 H   0  0  0  0  0  0
  -21.6597  -26.7552   22.1002 H   0  0  0  0  0  0
  -19.6824  -25.6547   21.0860 H   0  0  0  0  0  0
  -19.6529  -27.3547   20.6725 H   0  0  0  0  0  0
  -17.4125  -26.6704   21.4057 H   0  0  0  0  0  0
  -18.0367  -26.0000   22.8928 H   0  0  0  0  0  0
  -19.7853  -30.7342   24.2159 H   0  0  0  0  0  0
  -17.4902  -31.6342   24.4945 H   0  0  0  0  0  0
  -15.5273  -30.2961   23.7545 H   0  0  0  0  0  0
  -15.8643  -28.0745   22.7075 H   0  0  0  0  0  0
  -24.5929  -30.6985   25.7716 H   0  0  0  0  0  0
  -24.8875  -32.2794   26.4902 H   0  0  0  0  0  0
  -25.8104  -30.8799   27.0179 H   0  0  0  0  0  0
  -26.2800  -29.6838   24.1091 H   0  0  0  0  0  0
  -27.4127  -29.7300   25.4402 H   0  0  0  0  0  0
  -27.8580  -30.4382   23.9056 H   0  0  0  0  0  0
  -27.2784  -33.3549   26.2080 H   0  0  0  0  0  0
  -28.3878  -32.6826   25.0236 H   0  0  0  0  0  0
  -28.0764  -31.8304   26.5270 H   0  0  0  0  0  0
  -28.2650  -38.0060   24.7535 H   0  0  0  0  0  0
  -28.1030  -36.2625   24.6320 H   0  0  0  0  0  0
  -27.2282  -37.1486   25.8862 H   0  0  0  0  0  0
  -20.9178  -29.8946   21.7202 H   0  0  0  0  0  0
  -26.0168  -38.2870   24.1446 H   0  0  0  0  0  0
  -26.0444  -23.2461   20.8408 H   0  0  0  0  0  0
  -29.1460  -20.7144   18.0839 H   0  0  0  0  0  0
  -25.3252  -20.4225   17.1269 H   0  0  0  0  0  0
  -24.6395  -19.6766   18.5832 H   0  0  0  0  0  0
  -25.2386  -18.6679   17.2731 H   0  0  0  0  0  0
  -29.4368  -15.6570   23.4556 H   0  0  0  0  0  0
  -31.1914  -15.5032   23.3572 H   0  0  0  0  0  0
  -30.1825  -14.0693   23.2591 H   0  0  0  0  0  0
  -29.4700  -24.3332   21.0589 H   0  0  0  0  0  0
  -27.8065  -24.7714   21.3310 H   0  0  0  0  0  0
  -29.0949  -18.3912   19.0806 H   0  0  0  0  0  0
  -28.6403  -19.1009   20.6198 H   0  0  0  0  0  0
  -28.3508  -16.1911   19.8404 H   0  0  0  0  0  0
  -27.8862  -16.8160   21.4013 H   0  0  0  0  0  0
  -26.2645  -18.5832   20.2391 H   0  0  0  0  0  0
  -26.6510  -17.5440   18.8905 H   0  0  0  0  0  0
  -30.2440  -17.3813   21.9113 H   0  0  0  0  0  0
  -30.7320  -16.9551   20.2977 H   0  0  0  0  0  0
  -29.6076  -25.4791   19.0226 H   0  0  0  0  0  0
  -27.9362  -25.3656   18.6452 H   0  0  0  0  0  0
  1 25  1  0  0  0
  1 30  2  0  0  0
  1 86  1  0  0  0
  2  3  1  0  0  0
  2 25  1  0  0  0
  2 87  1  0  0  0
  2 88  1  0  0  0
  3  4  1  0  0  0
  3 89  1  0  0  0
  3 90  1  0  0  0
  4  5  1  0  0  0
  4 91  1  0  0  0
  4 92  1  0  0  0
  5  6  1  0  0  0
  5 26  1  0  0  0
  5 93  1  0  0  0
  6 25  1  0  0  0
  6 94  1  0  0  0
  6 95  1  0  0  0
  7  8  2  0  0  0
  7 26  1  0  0  0
  7 29  1  0  0  0
  8  9  1  0  0  0
  8 22  1  0  0  0
  9 10  1  0  0  0
  9 27  2  0  0  0
 10 11  2  0  0  0
 10 15  1  0  0  0
 11 12  1  0  0  0
 11 96  1  0  0  0
 12 13  2  0  0  0
 12 97  1  0  0  0
 13 14  1  0  0  0
 13 31  1  0  0  0
 14 15  2  0  0  0
 14 98  1  0  0  0
 15 99  1  0  0  0
 16 17  2  0  0  0
 16 21  1  0  0  0
 16 31  1  0  0  0
 17 18  1  0  0  0
 17100  1  0  0  0
 18 19  2  0  0  0
 18101  1  0  0  0
 19 20  1  0  0  0
 19 24  1  0  0  0
 20 21  2  0  0  0
 20102  1  0  0  0
 21 23  1  0  0  0
 22 28  1  0  0  0
 22 32  2  0  0  0
 26 27  1  0  0  0
 28103  1  0  0  0
 28104  1  0  0  0
 29105  1  0  0  0
 29106  1  0  0  0
 33 34  1  0  0  0
 33 66  1  0  0  0
 33 70  2  0  0  0
 34 36  1  0  0  0
 34 59  1  0  0  0
 34107  1  0  0  0
 35 44  2  0  0  0
 35 45  1  0  0  0
 35 68  1  0  0  0
 36 56  1  0  0  0
 36108  1  0  0  0
 37 39  1  0  0  0
 37 47  1  0  0  0
 37 66  1  0  0  0
 37109  1  0  0  0
 38 43  2  0  0  0
 38 46  1  0  0  0
 38 47  1  0  0  0
 39 64  1  0  0  0
 39 67  2  0  0  0
 40 52  1  0  0  0
 40 53  2  0  0  0
 40 58  1  0  0  0
 41110  1  0  0  0
 41111  1  0  0  0
 41112  1  0  0  0
 41 48  1  0  0  0
 42 43  1  0  0  0
 42 66  1  0  0  0
 42113  1  0  0  0
 42114  1  0  0  0
 43 44  1  0  0  0
 44115  1  0  0  0
 45 46  2  0  0  0
 45116  1  0  0  0
 46117  1  0  0  0
 47118  1  0  0  0
 47119  1  0  0  0
 48 56  1  0  0  0
 48 65  1  0  0  0
 48120  1  0  0  0
 49 50  1  0  0  0
 49 53  1  0  0  0
 49 64  1  0  0  0
 49121  1  0  0  0
 50 51  1  0  0  0
 50122  1  0  0  0
 50123  1  0  0  0
 51 52  1  0  0  0
 51124  1  0  0  0
 51125  1  0  0  0
 52126  1  0  0  0
 52127  1  0  0  0
 53 54  1  0  0  0
 54 55  2  0  0  0
 54128  1  0  0  0
 55 57  1  0  0  0
 55129  1  0  0  0
 56 69  2  0  0  0
 57 58  2  0  0  0
 57130  1  0  0  0
 58131  1  0  0  0
 59 60  1  0  0  0
 59 61  1  0  0  0
 59 62  1  0  0  0
 60132  1  0  0  0
 60133  1  0  0  0
 60134  1  0  0  0
 61135  1  0  0  0
 61136  1  0  0  0
 61137  1  0  0  0
 62138  1  0  0  0
 62139  1  0  0  0
 62140  1  0  0  0
 63 65  1  0  0  0
 63141  1  0  0  0
 63142  1  0  0  0
 63143  1  0  0  0
 64144  1  0  0  0
 65145  1  0  0  0
 68 82  1  0  0  0
 71 73  2  0  0  0
 71 84  1  0  0  0
 71146  1  0  0  0
 72 74  1  0  0  0
 72 83  2  0  0  0
 72147  1  0  0  0
 73 77  1  0  0  0
 73 83  1  0  0  0
 74 84  2  0  0  0
 74 85  1  0  0  0
 75 85  1  0  0  0
 75148  1  0  0  0
 75149  1  0  0  0
 75150  1  0  0  0
 76 86  1  0  0  0
 76151  1  0  0  0
 76152  1  0  0  0
 76153  1  0  0  0
 77 82  1  0  0  0
 77154  1  0  0  0
 77155  1  0  0  0
 78 79  1  0  0  0
 78 80  1  0  0  0
 78156  1  0  0  0
 78157  1  0  0  0
 79 81  1  0  0  0
 79158  1  0  0  0
 79159  1  0  0  0
 80 85  1  0  0  0
 80160  1  0  0  0
 80161  1  0  0  0
 81 86  1  0  0  0
 81162  1  0  0  0
 81163  1  0  0  0
 82164  1  0  0  0
 82165  1  0  0  0
M  ISO  4   1 100  68 101  82 101  86 100
M  END
> <chiral flag>
0

> <version>
0

> <s_m_source_file>
/data/baiqing/PycharmProjects/Reinvent-master-3.2/result/LINK_invent/BTK/process_docking_weight1_custom_sum_contain_oxygen_bond_distance_aromatic_linkinvent_7_9_3/rearranged_h_0052.sdf

> <i_m_source_file_index>
14

> <r_mmod_Potential_Energy-OPLS-2005>
151.454605102539

> <r_mmod_Stretch_Energy-OPLS-2005>
35.5917282104492

> <r_mmod_Bend_Energy-OPLS-2005>
102.150009155273

> <r_mmod_Torsional_Energy-OPLS-2005>
273.699401855469

> <r_mmod_Improper_Torsional_Energy-OPLS-2005>
9.66533374786377

> <r_mmod_Van_der_Waal_Energy-OPLS-2005>
164.979385375977

> <r_mmod_Electrostatic_Energy-OPLS-2005>
-226.063507080078

> <r_mmod_Solvation_Energy-OPLS-2005>
-217.29638671875

> <b_mmod_Minimization_Converged-OPLS-2005>
0

> <r_mmod_RMS_Derivative-OPLS-2005>
4.38540506362915

$$$$
14
                    3D
 Structure written by MMmdl.
156164  0  0  1  0            999 V2000
  -30.6430  -14.7204   20.4680 C   0  0  0  0  0  0
  -30.4260  -12.4443   19.4709 C   0  0  0  0  0  0
  -29.5073  -12.5116   18.2329 C   0  0  0  0  0  0
  -28.0323  -12.3429   18.6441 C   0  0  0  0  0  0
  -27.6413  -13.2372   19.8516 C   0  0  2  0  0  0
  -28.6884  -13.1723   20.9851 C   0  0  0  0  0  0
  -25.2508  -13.8212   20.5698 C   0  0  0  0  0  0
  -24.1811  -13.0448   20.9230 C   0  0  0  0  0  0
  -24.6409  -11.6927   20.8763 C   0  0  0  0  0  0
  -23.9073  -10.4300   21.0406 C   0  0  0  0  0  0
  -24.3625   -9.4212   21.9177 C   0  0  0  0  0  0
  -23.6303   -8.2246   22.0736 C   0  0  0  0  0  0
  -22.4285   -8.0281   21.3535 C   0  0  0  0  0  0
  -21.9923   -9.0253   20.4633 C   0  0  0  0  0  0
  -22.7249  -10.2141   20.3045 C   0  0  0  0  0  0
  -21.6850   -6.0743   22.5282 C   0  0  0  0  0  0
  -21.4009   -6.5641   23.8217 C   0  0  0  0  0  0
  -21.3664   -5.6794   24.9179 C   0  0  0  0  0  0
  -21.6050   -4.3056   24.7225 C   0  0  0  0  0  0
  -21.8818   -3.8149   23.4344 C   0  0  0  0  0  0
  -21.9190   -4.6969   22.3405 C   0  0  0  0  0  0
  -22.7827  -13.5213   21.1882 C   0  0  0  0  0  0
  -22.1657   -4.2157   21.0979 F   0  0  0  0  0  0
  -21.5641   -3.4535   25.7733 F   0  0  0  0  0  0
  -29.9885  -13.5125   20.3966 N   0  0  0  0  0  0
  -26.2941  -12.9432   20.3296 N   0  0  0  0  0  0
  -25.9342  -11.6566   20.5764 N   0  0  0  0  0  0
  -22.0468  -12.8202   22.0437 N   0  0  0  0  0  0
  -25.4168  -15.1945   20.4080 N   0  0  0  0  0  0
  -31.8363  -14.7858   20.1636 O   0  0  0  0  0  0
  -21.6648   -6.8886   21.4243 O   0  0  0  0  0  0
  -22.3502  -14.5507   20.6718 O   0  0  0  0  0  0
  -24.6298  -31.8557   23.1987 C   0  0  0  0  0  0
  -25.9127  -32.4755   23.8335 C   0  0  1  0  0  0
  -27.2198  -27.2730   20.1408 C   0  0  0  0  0  0
  -25.5928  -33.8558   24.2254 N   0  0  0  0  0  0
  -23.4268  -30.4776   21.5404 C   0  0  2  0  0  0
  -24.8760  -28.9249   20.1123 C   0  0  0  0  0  0
  -22.7501  -29.4599   22.4905 C   0  0  0  0  0  0
  -18.0293  -28.1383   22.8482 C   0  0  0  0  0  0
  -24.1491  -36.7293   23.2640 C   0  0  0  0  0  0
  -25.9712  -30.7738   21.3764 C   0  0  0  0  0  0
  -26.0460  -29.3957   20.7226 C   0  0  0  0  0  0
  -27.2243  -28.5832   20.7240 C   0  0  0  0  0  0
  -26.0332  -26.8697   19.4927 C   0  0  0  0  0  0
  -24.8734  -27.6694   19.4848 C   0  0  0  0  0  0
  -23.6460  -29.8107   20.1568 C   0  0  0  0  0  0
  -25.4114  -36.3069   24.0322 C   0  0  1  0  0  0
  -20.5897  -28.3696   23.1269 C   0  0  2  0  0  0
  -20.6779  -26.9413   22.5411 C   0  0  0  0  0  0
  -19.5754  -26.6380   21.5215 C   0  0  0  0  0  0
  -18.1932  -26.7926   22.1623 C   0  0  0  0  0  0
  -19.1547  -28.8858   23.2872 C   0  0  0  0  0  0
  -18.9468  -30.1459   23.8889 C   0  0  0  0  0  0
  -17.6469  -30.6583   24.0564 C   0  0  0  0  0  0
  -25.9055  -34.9442   23.5092 C   0  0  0  0  0  0
  -16.5359  -29.9083   23.6330 C   0  0  0  0  0  0
  -16.7281  -28.6501   23.0347 C   0  0  0  0  0  0
  -26.4498  -31.6578   25.0721 C   0  0  0  0  0  0
  -25.3727  -31.3736   26.1448 C   0  0  0  0  0  0
  -27.0346  -30.2995   24.6204 C   0  0  0  0  0  0
  -27.6044  -32.4327   25.7499 C   0  0  0  0  0  0
  -27.5576  -37.1800   24.8458 C   0  0  0  0  0  0
  -21.4209  -29.3047   22.3656 N   0  0  0  0  0  0
  -26.4286  -37.3768   23.9405 N   0  0  0  0  0  0
  -24.6945  -31.0542   22.0946 N   0  0  0  0  0  0
  -23.4209  -28.8141   23.3001 O   0  0  0  0  0  0
  -28.3068  -26.3742   20.1722 O   0  0  0  0  0  0
  -26.5635  -34.8917   22.4664 O   0  0  0  0  0  0
  -23.5453  -32.1372   23.7290 O   0  0  0  0  0  0
  -29.5998  -19.7922   21.2714 C   0  0  0  0  0  0
  -28.9850  -20.8342   20.4689 C   0  0  0  0  0  0
  -29.7401  -18.6352   20.5069 C   0  0  0  0  0  0
  -28.1602  -18.7077   17.0062 C   0  0  0  0  0  0
  -28.4263  -22.2612   20.8809 C   0  0  0  0  0  0
  -30.5133  -17.2853   20.7905 C   0  0  0  0  0  0
  -28.8197  -23.6575   20.1661 C   0  0  0  0  0  0
  -29.1792  -18.2242   18.0536 C   0  0  0  0  0  0
  -28.0506  -24.9857   20.6848 C   0  0  0  0  0  0
  -28.7470  -20.3142   19.2684 N   0  0  0  0  0  0
  -29.2039  -19.0145   19.2803 N   0  0  0  0  0  0
  -29.9232  -15.8827   20.6849 N   0  0  0  0  0  0
  -31.4699  -12.5563   19.1703 H   0  0  0  0  0  0
  -30.3566  -11.4692   19.9557 H   0  0  0  0  0  0
  -29.7868  -11.7424   17.5121 H   0  0  0  0  0  0
  -29.6419  -13.4695   17.7270 H   0  0  0  0  0  0
  -27.8825  -11.2931   18.8967 H   0  0  0  0  0  0
  -27.3765  -12.5493   17.7970 H   0  0  0  0  0  0
  -27.6334  -14.2610   19.4757 H   0  0  0  0  0  0
  -28.7212  -12.1775   21.4329 H   0  0  0  0  0  0
  -28.4315  -13.8642   21.7891 H   0  0  0  0  0  0
  -25.2767   -9.5695   22.4757 H   0  0  0  0  0  0
  -24.0014   -7.4636   22.7446 H   0  0  0  0  0  0
  -21.0855   -8.8774   19.8935 H   0  0  0  0  0  0
  -22.3697  -10.9684   19.6155 H   0  0  0  0  0  0
  -21.1994   -7.6150   23.9721 H   0  0  0  0  0  0
  -21.1489   -6.0525   25.9089 H   0  0  0  0  0  0
  -22.0591   -2.7608   23.2840 H   0  0  0  0  0  0
  -22.4080  -11.9874   22.4854 H   0  0  0  0  0  0
  -21.1069  -13.1203   22.2609 H   0  0  0  0  0  0
  -24.6458  -15.8456   20.5108 H   0  0  0  0  0  0
  -26.2563  -15.6323   20.0508 H   0  0  0  0  0  0
  -26.7194  -32.5416   23.1080 H   0  0  0  0  0  0
  -25.0063  -33.9695   25.0392 H   0  0  0  0  0  0
  -22.7228  -31.2989   21.3933 H   0  0  0  0  0  0
  -23.3745  -35.9632   23.3292 H   0  0  0  0  0  0
  -24.3586  -36.8932   22.2057 H   0  0  0  0  0  0
  -23.7251  -37.6492   23.6680 H   0  0  0  0  0  0
  -26.1082  -31.5329   20.6046 H   0  0  0  0  0  0
  -26.8491  -30.8250   22.0086 H   0  0  0  0  0  0
  -28.1206  -28.9384   21.2133 H   0  0  0  0  0  0
  -25.9927  -25.9090   18.9986 H   0  0  0  0  0  0
  -23.9805  -27.3047   18.9960 H   0  0  0  0  0  0
  -23.7729  -30.5864   19.4011 H   0  0  0  0  0  0
  -22.7654  -29.2440   19.8493 H   0  0  0  0  0  0
  -25.1297  -36.1911   25.0813 H   0  0  0  0  0  0
  -20.9991  -28.3274   24.1390 H   0  0  0  0  0  0
  -20.5674  -26.2309   23.3615 H   0  0  0  0  0  0
  -21.6644  -26.7430   22.1207 H   0  0  0  0  0  0
  -19.6916  -25.6289   21.1247 H   0  0  0  0  0  0
  -19.6691  -27.3188   20.6740 H   0  0  0  0  0  0
  -17.4205  -26.6678   21.4022 H   0  0  0  0  0  0
  -18.0331  -26.0065   22.9016 H   0  0  0  0  0  0
  -19.7946  -30.7277   24.2247 H   0  0  0  0  0  0
  -17.5022  -31.6260   24.5172 H   0  0  0  0  0  0
  -15.5358  -30.2985   23.7652 H   0  0  0  0  0  0
  -15.8681  -28.0822   22.7060 H   0  0  0  0  0  0
  -24.5885  -30.7100   25.7784 H   0  0  0  0  0  0
  -24.8942  -32.2916   26.4875 H   0  0  0  0  0  0
  -25.8046  -30.8911   27.0224 H   0  0  0  0  0  0
  -26.2931  -29.6738   24.1223 H   0  0  0  0  0  0
  -27.4022  -29.7259   25.4721 H   0  0  0  0  0  0
  -27.8810  -30.4265   23.9449 H   0  0  0  0  0  0
  -27.2632  -33.3622   26.2071 H   0  0  0  0  0  0
  -28.3861  -32.6897   25.0337 H   0  0  0  0  0  0
  -28.0706  -31.8461   26.5425 H   0  0  0  0  0  0
  -28.2582  -38.0109   24.7510 H   0  0  0  0  0  0
  -28.1086  -36.2638   24.6273 H   0  0  0  0  0  0
  -27.2304  -37.1434   25.8866 H   0  0  0  0  0  0
  -20.9387  -29.8781   21.6872 H   0  0  0  0  0  0
  -26.0162  -38.2838   24.1410 H   0  0  0  0  0  0
  -29.9149  -19.8896   22.3006 H   0  0  0  0  0  0
  -28.1565  -18.0509   16.1363 H   0  0  0  0  0  0
  -28.3962  -19.7126   16.6537 H   0  0  0  0  0  0
  -27.1494  -18.7236   17.4142 H   0  0  0  0  0  0
  -28.6380  -22.3921   21.9418 H   0  0  0  0  0  0
  -27.3389  -22.1959   20.8439 H   0  0  0  0  0  0
  -30.9137  -17.3506   21.8021 H   0  0  0  0  0  0
  -31.4009  -17.3064   20.1564 H   0  0  0  0  0  0
  -28.6391  -23.5550   19.0964 H   0  0  0  0  0  0
  -29.8936  -23.8085   20.2725 H   0  0  0  0  0  0
  -30.1828  -18.2297   17.6270 H   0  0  0  0  0  0
  -28.9607  -17.1890   18.3172 H   0  0  0  0  0  0
  -28.2451  -25.0535   21.7553 H   0  0  0  0  0  0
  -26.9863  -24.7602   20.6336 H   0  0  0  0  0  0
  -28.9367  -15.7899   20.8705 H   0  0  0  0  0  0
  1 25  1  0  0  0
  1 30  2  0  0  0
  1 82  1  0  0  0
  2  3  1  0  0  0
  2 25  1  0  0  0
  2 83  1  0  0  0
  2 84  1  0  0  0
  3  4  1  0  0  0
  3 85  1  0  0  0
  3 86  1  0  0  0
  4  5  1  0  0  0
  4 87  1  0  0  0
  4 88  1  0  0  0
  5  6  1  0  0  0
  5 26  1  0  0  0
  5 89  1  0  0  0
  6 25  1  0  0  0
  6 90  1  0  0  0
  6 91  1  0  0  0
  7  8  2  0  0  0
  7 26  1  0  0  0
  7 29  1  0  0  0
  8  9  1  0  0  0
  8 22  1  0  0  0
  9 10  1  0  0  0
  9 27  2  0  0  0
 10 11  2  0  0  0
 10 15  1  0  0  0
 11 12  1  0  0  0
 11 92  1  0  0  0
 12 13  2  0  0  0
 12 93  1  0  0  0
 13 14  1  0  0  0
 13 31  1  0  0  0
 14 15  2  0  0  0
 14 94  1  0  0  0
 15 95  1  0  0  0
 16 17  2  0  0  0
 16 21  1  0  0  0
 16 31  1  0  0  0
 17 18  1  0  0  0
 17 96  1  0  0  0
 18 19  2  0  0  0
 18 97  1  0  0  0
 19 20  1  0  0  0
 19 24  1  0  0  0
 20 21  2  0  0  0
 20 98  1  0  0  0
 21 23  1  0  0  0
 22 28  1  0  0  0
 22 32  2  0  0  0
 26 27  1  0  0  0
 28 99  1  0  0  0
 28100  1  0  0  0
 29101  1  0  0  0
 29102  1  0  0  0
 33 34  1  0  0  0
 33 66  1  0  0  0
 33 70  2  0  0  0
 34 36  1  0  0  0
 34 59  1  0  0  0
 34103  1  0  0  0
 35 44  2  0  0  0
 35 45  1  0  0  0
 35 68  1  0  0  0
 36 56  1  0  0  0
 36104  1  0  0  0
 37 39  1  0  0  0
 37 47  1  0  0  0
 37 66  1  0  0  0
 37105  1  0  0  0
 38 43  2  0  0  0
 38 46  1  0  0  0
 38 47  1  0  0  0
 39 64  1  0  0  0
 39 67  2  0  0  0
 40 52  1  0  0  0
 40 53  2  0  0  0
 40 58  1  0  0  0
 41106  1  0  0  0
 41107  1  0  0  0
 41108  1  0  0  0
 41 48  1  0  0  0
 42 43  1  0  0  0
 42 66  1  0  0  0
 42109  1  0  0  0
 42110  1  0  0  0
 43 44  1  0  0  0
 44111  1  0  0  0
 45 46  2  0  0  0
 45112  1  0  0  0
 46113  1  0  0  0
 47114  1  0  0  0
 47115  1  0  0  0
 48 56  1  0  0  0
 48 65  1  0  0  0
 48116  1  0  0  0
 49 50  1  0  0  0
 49 53  1  0  0  0
 49 64  1  0  0  0
 49117  1  0  0  0
 50 51  1  0  0  0
 50118  1  0  0  0
 50119  1  0  0  0
 51 52  1  0  0  0
 51120  1  0  0  0
 51121  1  0  0  0
 52122  1  0  0  0
 52123  1  0  0  0
 53 54  1  0  0  0
 54 55  2  0  0  0
 54124  1  0  0  0
 55 57  1  0  0  0
 55125  1  0  0  0
 56 69  2  0  0  0
 57 58  2  0  0  0
 57126  1  0  0  0
 58127  1  0  0  0
 59 60  1  0  0  0
 59 61  1  0  0  0
 59 62  1  0  0  0
 60128  1  0  0  0
 60129  1  0  0  0
 60130  1  0  0  0
 61131  1  0  0  0
 61132  1  0  0  0
 61133  1  0  0  0
 62134  1  0  0  0
 62135  1  0  0  0
 62136  1  0  0  0
 63 65  1  0  0  0
 63137  1  0  0  0
 63138  1  0  0  0
 63139  1  0  0  0
 64140  1  0  0  0
 65141  1  0  0  0
 68 79  1  0  0  0
 71 72  1  0  0  0
 71 73  2  0  0  0
 71142  1  0  0  0
 72 75  1  0  0  0
 72 80  2  0  0  0
 73 76  1  0  0  0
 73 81  1  0  0  0
 74 78  1  0  0  0
 74143  1  0  0  0
 74144  1  0  0  0
 74145  1  0  0  0
 75 77  1  0  0  0
 75146  1  0  0  0
 75147  1  0  0  0
 76 82  1  0  0  0
 76148  1  0  0  0
 76149  1  0  0  0
 77 79  1  0  0  0
 77150  1  0  0  0
 77151  1  0  0  0
 78 81  1  0  0  0
 78152  1  0  0  0
 78153  1  0  0  0
 79154  1  0  0  0
 79155  1  0  0  0
 80 81  1  0  0  0
 82156  1  0  0  0
M  ISO  4   1 100  68 101  79 101  82 100
M  END
> <chiral flag>
0

> <version>
0

> <s_m_source_file>
/data/baiqing/PycharmProjects/Reinvent-master-3.2/result/LINK_invent/BTK/process_docking_weight1_custom_sum_contain_oxygen_bond_distance_aromatic_linkinvent_7_9_3/rearranged_h_0052.sdf

> <i_m_source_file_index>
15

> <r_mmod_Potential_Energy-OPLS-2005>
25.0434513092041

> <r_mmod_Stretch_Energy-OPLS-2005>
109.379737854004

> <r_mmod_Bend_Energy-OPLS-2005>
171.192138671875

> <r_mmod_Torsional_Energy-OPLS-2005>
224.854736328125

> <r_mmod_Improper_Torsional_Energy-OPLS-2005>
6.01797389984131

> <r_mmod_Van_der_Waal_Energy-OPLS-2005>
116.366073608398

> <r_mmod_Electrostatic_Energy-OPLS-2005>
-462.678192138672

> <r_mmod_Solvation_Energy-OPLS-2005>
-218.426467895508

> <b_mmod_Minimization_Converged-OPLS-2005>
0

> <r_mmod_RMS_Derivative-OPLS-2005>
1.5772500038147

$$$$
15
                    3D
 Structure written by MMmdl.
160168  0  0  1  0            999 V2000
  -30.7823  -14.3891   20.6220 C   0  0  0  0  0  0
  -30.3964  -12.2700   19.4350 C   0  0  0  0  0  0
  -29.4933  -12.4913   18.2073 C   0  0  0  0  0  0
  -28.0116  -12.3599   18.6051 C   0  0  0  0  0  0
  -27.6536  -13.2065   19.8552 C   0  0  2  0  0  0
  -28.6797  -12.9944   20.9839 C   0  0  0  0  0  0
  -25.2545  -13.8165   20.5617 C   0  0  0  0  0  0
  -24.1809  -13.0436   20.9132 C   0  0  0  0  0  0
  -24.6366  -11.6905   20.8689 C   0  0  0  0  0  0
  -23.9044  -10.4290   21.0389 C   0  0  0  0  0  0
  -24.3612   -9.4208   21.9162 C   0  0  0  0  0  0
  -23.6288   -8.2243   22.0752 C   0  0  0  0  0  0
  -22.4262   -8.0284   21.3552 C   0  0  0  0  0  0
  -21.9893   -9.0245   20.4643 C   0  0  0  0  0  0
  -22.7222  -10.2117   20.3043 C   0  0  0  0  0  0
  -21.6851   -6.0736   22.5284 C   0  0  0  0  0  0
  -21.4013   -6.5639   23.8219 C   0  0  0  0  0  0
  -21.3659   -5.6793   24.9181 C   0  0  0  0  0  0
  -21.6041   -4.3056   24.7232 C   0  0  0  0  0  0
  -21.8822   -3.8148   23.4352 C   0  0  0  0  0  0
  -21.9190   -4.6966   22.3407 C   0  0  0  0  0  0
  -22.7840  -13.5219   21.1840 C   0  0  0  0  0  0
  -22.1657   -4.2157   21.0980 F   0  0  0  0  0  0
  -21.5633   -3.4538   25.7743 F   0  0  0  0  0  0
  -30.0248  -13.2697   20.4524 N   0  0  0  0  0  0
  -26.2957  -12.9338   20.3201 N   0  0  0  0  0  0
  -25.9279  -11.6493   20.5660 N   0  0  0  0  0  0
  -22.0493  -12.8209   22.0398 N   0  0  0  0  0  0
  -25.4270  -15.1890   20.4078 N   0  0  0  0  0  0
  -31.8955  -14.4935   20.0918 O   0  0  0  0  0  0
  -21.6634   -6.8877   21.4247 O   0  0  0  0  0  0
  -22.3520  -14.5534   20.6700 O   0  0  0  0  0  0
  -24.6109  -31.8714   23.2143 C   0  0  0  0  0  0
  -25.9022  -32.4836   23.8411 C   0  0  1  0  0  0
  -27.2144  -27.4600   20.0847 C   0  0  0  0  0  0
  -25.5890  -33.8632   24.2339 N   0  0  0  0  0  0
  -23.3940  -30.5011   21.5552 C   0  0  2  0  0  0
  -24.8327  -28.9741   20.1149 C   0  0  0  0  0  0
  -22.7375  -29.4691   22.5000 C   0  0  0  0  0  0
  -18.0264  -28.1365   22.8497 C   0  0  0  0  0  0
  -24.1483  -36.7321   23.2637 C   0  0  0  0  0  0
  -25.9209  -30.8482   21.3605 C   0  0  0  0  0  0
  -25.9944  -29.4860   20.7051 C   0  0  0  0  0  0
  -27.1898  -28.7371   20.6839 C   0  0  0  0  0  0
  -26.0301  -26.9556   19.4966 C   0  0  0  0  0  0
  -24.8431  -27.7069   19.5110 C   0  0  0  0  0  0
  -23.5970  -29.8395   20.1671 C   0  0  0  0  0  0
  -25.4101  -36.3116   24.0340 C   0  0  1  0  0  0
  -20.5852  -28.3650   23.1319 C   0  0  2  0  0  0
  -20.6756  -26.9391   22.5414 C   0  0  0  0  0  0
  -19.5736  -26.6380   21.5206 C   0  0  0  0  0  0
  -18.1914  -26.7913   22.1623 C   0  0  0  0  0  0
  -19.1511  -28.8821   23.2913 C   0  0  0  0  0  0
  -18.9451  -30.1430   23.8922 C   0  0  0  0  0  0
  -17.6457  -30.6585   24.0564 C   0  0  0  0  0  0
  -25.9030  -34.9479   23.5137 C   0  0  0  0  0  0
  -16.5348  -29.9094   23.6320 C   0  0  0  0  0  0
  -16.7256  -28.6504   23.0353 C   0  0  0  0  0  0
  -26.4467  -31.6607   25.0724 C   0  0  0  0  0  0
  -25.3746  -31.3716   26.1489 C   0  0  0  0  0  0
  -27.0299  -30.3052   24.6078 C   0  0  0  0  0  0
  -27.6046  -32.4323   25.7488 C   0  0  0  0  0  0
  -27.5579  -37.1813   24.8462 C   0  0  0  0  0  0
  -21.4107  -29.3039   22.3737 N   0  0  0  0  0  0
  -26.4288  -37.3801   23.9413 N   0  0  0  0  0  0
  -24.6609  -31.0858   22.1023 N   0  0  0  0  0  0
  -23.4173  -28.8205   23.2999 O   0  0  0  0  0  0
  -28.3955  -26.7559   20.0922 O   0  0  0  0  0  0
  -26.5594  -34.8928   22.4700 O   0  0  0  0  0  0
  -23.5316  -32.1445   23.7568 O   0  0  0  0  0  0
  -29.6293  -21.3369   18.8090 C   0  0  0  0  0  0
  -29.9979  -22.4293   21.2528 C   0  0  0  0  0  0
  -29.9793  -20.5455   19.9290 C   0  0  0  0  0  0
  -29.6983  -23.2247   20.1216 C   0  0  0  0  0  0
  -31.1805  -16.1572   23.3454 C   0  0  0  0  0  0
  -30.4141  -19.1074   19.7364 C   0  0  0  0  0  0
  -29.6838  -24.7388   20.2069 C   0  0  0  0  0  0
  -29.7593  -18.0352   20.6345 C   0  0  0  0  0  0
  -29.9521  -15.6426   22.5717 C   0  0  0  0  0  0
  -30.5843  -16.7501   20.4295 C   0  0  0  0  0  0
  -28.3029  -25.3415   19.9520 C   0  0  0  0  0  0
  -30.1574  -21.0870   21.1592 N   0  0  0  0  0  0
  -29.4952  -22.6801   18.8977 N   0  0  0  0  0  0
  -30.1857  -15.5041   21.1219 N   0  0  0  0  0  0
  -31.4479  -12.3163   19.1450 H   0  0  0  0  0  0
  -30.2558  -11.2645   19.8344 H   0  0  0  0  0  0
  -29.7364  -11.7676   17.4283 H   0  0  0  0  0  0
  -29.6799  -13.4781   17.7803 H   0  0  0  0  0  0
  -27.8178  -11.3053   18.8053 H   0  0  0  0  0  0
  -27.3697  -12.6329   17.7669 H   0  0  0  0  0  0
  -27.6999  -14.2529   19.5545 H   0  0  0  0  0  0
  -28.6327  -11.9669   21.3481 H   0  0  0  0  0  0
  -28.3938  -13.6149   21.8260 H   0  0  0  0  0  0
  -25.2772   -9.5682   22.4716 H   0  0  0  0  0  0
  -23.9999   -7.4638   22.7466 H   0  0  0  0  0  0
  -21.0832   -8.8757   19.8947 H   0  0  0  0  0  0
  -22.3685  -10.9649   19.6143 H   0  0  0  0  0  0
  -21.2000   -7.6148   23.9735 H   0  0  0  0  0  0
  -21.1480   -6.0513   25.9086 H   0  0  0  0  0  0
  -22.0600   -2.7613   23.2853 H   0  0  0  0  0  0
  -22.4125  -11.9855   22.4754 H   0  0  0  0  0  0
  -21.1119  -13.1242   22.2637 H   0  0  0  0  0  0
  -24.6621  -15.8461   20.5155 H   0  0  0  0  0  0
  -26.2885  -15.6287   20.1096 H   0  0  0  0  0  0
  -26.7087  -32.5559   23.1177 H   0  0  0  0  0  0
  -25.0029  -33.9798   25.0475 H   0  0  0  0  0  0
  -22.6810  -31.3176   21.4217 H   0  0  0  0  0  0
  -23.3742  -35.9660   23.3311 H   0  0  0  0  0  0
  -24.3576  -36.8927   22.2050 H   0  0  0  0  0  0
  -23.7245  -37.6532   23.6649 H   0  0  0  0  0  0
  -26.0266  -31.6188   20.5947 H   0  0  0  0  0  0
  -26.8114  -30.8980   21.9765 H   0  0  0  0  0  0
  -28.0899  -29.1316   21.1343 H   0  0  0  0  0  0
  -25.9950  -25.9900   19.0149 H   0  0  0  0  0  0
  -23.9465  -27.3075   19.0570 H   0  0  0  0  0  0
  -23.7042  -30.6161   19.4092 H   0  0  0  0  0  0
  -22.7198  -29.2610   19.8715 H   0  0  0  0  0  0
  -25.1280  -36.1982   25.0835 H   0  0  0  0  0  0
  -20.9942  -28.3214   24.1440 H   0  0  0  0  0  0
  -20.5635  -26.2264   23.3599 H   0  0  0  0  0  0
  -21.6631  -26.7429   22.1224 H   0  0  0  0  0  0
  -19.6899  -25.6292   21.1230 H   0  0  0  0  0  0
  -19.6674  -27.3194   20.6735 H   0  0  0  0  0  0
  -17.4181  -26.6653   21.4034 H   0  0  0  0  0  0
  -18.0332  -26.0049   22.9010 H   0  0  0  0  0  0
  -19.7932  -30.7230   24.2308 H   0  0  0  0  0  0
  -17.5026  -31.6267   24.5160 H   0  0  0  0  0  0
  -15.5354  -30.3015   23.7626 H   0  0  0  0  0  0
  -15.8653  -28.0834   22.7062 H   0  0  0  0  0  0
  -24.5880  -30.7109   25.7831 H   0  0  0  0  0  0
  -24.8989  -32.2881   26.4982 H   0  0  0  0  0  0
  -25.8100  -30.8840   27.0217 H   0  0  0  0  0  0
  -26.2837  -29.6817   24.1133 H   0  0  0  0  0  0
  -27.4085  -29.7283   25.4528 H   0  0  0  0  0  0
  -27.8665  -30.4387   23.9212 H   0  0  0  0  0  0
  -27.2653  -33.3590   26.2132 H   0  0  0  0  0  0
  -28.3824  -32.6939   25.0300 H   0  0  0  0  0  0
  -28.0754  -31.8410   26.5355 H   0  0  0  0  0  0
  -28.2599  -38.0106   24.7514 H   0  0  0  0  0  0
  -28.1071  -36.2643   24.6281 H   0  0  0  0  0  0
  -27.2300  -37.1458   25.8864 H   0  0  0  0  0  0
  -20.9236  -29.8802   21.7014 H   0  0  0  0  0  0
  -26.0178  -38.2878   24.1427 H   0  0  0  0  0  0
  -29.5377  -20.9056   17.8235 H   0  0  0  0  0  0
  -30.1616  -22.8738   22.2241 H   0  0  0  0  0  0
  -31.4426  -17.1788   23.0699 H   0  0  0  0  0  0
  -32.0531  -15.5258   23.1734 H   0  0  0  0  0  0
  -30.9851  -16.1523   24.4186 H   0  0  0  0  0  0
  -31.4954  -19.1008   19.8823 H   0  0  0  0  0  0
  -30.2620  -18.8316   18.6919 H   0  0  0  0  0  0
  -30.3926  -25.1348   19.4799 H   0  0  0  0  0  0
  -30.0418  -25.0487   21.1892 H   0  0  0  0  0  0
  -28.7102  -17.8933   20.3699 H   0  0  0  0  0  0
  -29.7956  -18.3510   21.6775 H   0  0  0  0  0  0
  -29.0917  -16.2920   22.7415 H   0  0  0  0  0  0
  -29.6947  -14.6855   23.0213 H   0  0  0  0  0  0
  -31.6242  -16.9603   20.6909 H   0  0  0  0  0  0
  -30.5902  -16.5580   19.3528 H   0  0  0  0  0  0
  -27.5851  -24.9342   20.6672 H   0  0  0  0  0  0
  -27.9700  -25.0773   18.9473 H   0  0  0  0  0  0
  1 25  1  0  0  0
  1 30  2  0  0  0
  1 84  1  0  0  0
  2  3  1  0  0  0
  2 25  1  0  0  0
  2 85  1  0  0  0
  2 86  1  0  0  0
  3  4  1  0  0  0
  3 87  1  0  0  0
  3 88  1  0  0  0
  4  5  1  0  0  0
  4 89  1  0  0  0
  4 90  1  0  0  0
  5  6  1  0  0  0
  5 26  1  0  0  0
  5 91  1  0  0  0
  6 25  1  0  0  0
  6 92  1  0  0  0
  6 93  1  0  0  0
  7  8  2  0  0  0
  7 26  1  0  0  0
  7 29  1  0  0  0
  8  9  1  0  0  0
  8 22  1  0  0  0
  9 10  1  0  0  0
  9 27  2  0  0  0
 10 11  2  0  0  0
 10 15  1  0  0  0
 11 12  1  0  0  0
 11 94  1  0  0  0
 12 13  2  0  0  0
 12 95  1  0  0  0
 13 14  1  0  0  0
 13 31  1  0  0  0
 14 15  2  0  0  0
 14 96  1  0  0  0
 15 97  1  0  0  0
 16 17  2  0  0  0
 16 21  1  0  0  0
 16 31  1  0  0  0
 17 18  1  0  0  0
 17 98  1  0  0  0
 18 19  2  0  0  0
 18 99  1  0  0  0
 19 20  1  0  0  0
 19 24  1  0  0  0
 20 21  2  0  0  0
 20100  1  0  0  0
 21 23  1  0  0  0
 22 28  1  0  0  0
 22 32  2  0  0  0
 26 27  1  0  0  0
 28101  1  0  0  0
 28102  1  0  0  0
 29103  1  0  0  0
 29104  1  0  0  0
 33 34  1  0  0  0
 33 66  1  0  0  0
 33 70  2  0  0  0
 34 36  1  0  0  0
 34 59  1  0  0  0
 34105  1  0  0  0
 35 44  2  0  0  0
 35 45  1  0  0  0
 35 68  1  0  0  0
 36 56  1  0  0  0
 36106  1  0  0  0
 37 39  1  0  0  0
 37 47  1  0  0  0
 37 66  1  0  0  0
 37107  1  0  0  0
 38 43  2  0  0  0
 38 46  1  0  0  0
 38 47  1  0  0  0
 39 64  1  0  0  0
 39 67  2  0  0  0
 40 52  1  0  0  0
 40 53  2  0  0  0
 40 58  1  0  0  0
 41108  1  0  0  0
 41109  1  0  0  0
 41110  1  0  0  0
 41 48  1  0  0  0
 42 43  1  0  0  0
 42 66  1  0  0  0
 42111  1  0  0  0
 42112  1  0  0  0
 43 44  1  0  0  0
 44113  1  0  0  0
 45 46  2  0  0  0
 45114  1  0  0  0
 46115  1  0  0  0
 47116  1  0  0  0
 47117  1  0  0  0
 48 56  1  0  0  0
 48 65  1  0  0  0
 48118  1  0  0  0
 49 50  1  0  0  0
 49 53  1  0  0  0
 49 64  1  0  0  0
 49119  1  0  0  0
 50 51  1  0  0  0
 50120  1  0  0  0
 50121  1  0  0  0
 51 52  1  0  0  0
 51122  1  0  0  0
 51123  1  0  0  0
 52124  1  0  0  0
 52125  1  0  0  0
 53 54  1  0  0  0
 54 55  2  0  0  0
 54126  1  0  0  0
 55 57  1  0  0  0
 55127  1  0  0  0
 56 69  2  0  0  0
 57 58  2  0  0  0
 57128  1  0  0  0
 58129  1  0  0  0
 59 60  1  0  0  0
 59 61  1  0  0  0
 59 62  1  0  0  0
 60130  1  0  0  0
 60131  1  0  0  0
 60132  1  0  0  0
 61133  1  0  0  0
 61134  1  0  0  0
 61135  1  0  0  0
 62136  1  0  0  0
 62137  1  0  0  0
 62138  1  0  0  0
 63 65  1  0  0  0
 63139  1  0  0  0
 63140  1  0  0  0
 63141  1  0  0  0
 64142  1  0  0  0
 65143  1  0  0  0
 68 81  1  0  0  0
 71 73  2  0  0  0
 71 83  1  0  0  0
 71144  1  0  0  0
 72 74  1  0  0  0
 72 82  2  0  0  0
 72145  1  0  0  0
 73 76  1  0  0  0
 73 82  1  0  0  0
 74 77  1  0  0  0
 74 83  2  0  0  0
 75 79  1  0  0  0
 75146  1  0  0  0
 75147  1  0  0  0
 75148  1  0  0  0
 76 78  1  0  0  0
 76149  1  0  0  0
 76150  1  0  0  0
 77 81  1  0  0  0
 77151  1  0  0  0
 77152  1  0  0  0
 78 80  1  0  0  0
 78153  1  0  0  0
 78154  1  0  0  0
 79 84  1  0  0  0
 79155  1  0  0  0
 79156  1  0  0  0
 80 84  1  0  0  0
 80157  1  0  0  0
 80158  1  0  0  0
 81159  1  0  0  0
 81160  1  0  0  0
M  ISO  4   1 100  68 101  81 101  84 100
M  END
> <chiral flag>
0

> <version>
0

> <s_m_source_file>
/data/baiqing/PycharmProjects/Reinvent-master-3.2/result/LINK_invent/BTK/process_docking_weight1_custom_sum_contain_oxygen_bond_distance_aromatic_linkinvent_7_9_3/rearranged_h_0052.sdf

> <i_m_source_file_index>
16

> <r_mmod_Potential_Energy-OPLS-2005>
214.634185791016

> <r_mmod_Stretch_Energy-OPLS-2005>
36.1599617004395

> <r_mmod_Bend_Energy-OPLS-2005>
114.837890625

> <r_mmod_Torsional_Energy-OPLS-2005>
270.345977783203

> <r_mmod_Improper_Torsional_Energy-OPLS-2005>
11.5905723571777

> <r_mmod_Van_der_Waal_Energy-OPLS-2005>
177.415390014648

> <r_mmod_Electrostatic_Energy-OPLS-2005>
-209.242202758789

> <r_mmod_Solvation_Energy-OPLS-2005>
-200.443450927734

> <b_mmod_Minimization_Converged-OPLS-2005>
0

> <r_mmod_RMS_Derivative-OPLS-2005>
1.8653359413147

$$$$
16
                    3D
 Structure written by MMmdl.
161169  0  0  1  0            999 V2000
  -29.5552  -15.5476   20.2297 C   0  0  0  0  0  0
  -30.3036  -13.0964   19.5001 C   0  0  0  0  0  0
  -29.4752  -12.5874   18.2907 C   0  0  0  0  0  0
  -28.0461  -12.1853   18.7237 C   0  0  0  0  0  0
  -27.4884  -13.1926   19.7564 C   0  0  2  0  0  0
  -28.4444  -13.3797   20.9305 C   0  0  0  0  0  0
  -25.1840  -13.7963   20.5674 C   0  0  0  0  0  0
  -24.1265  -13.0255   20.9257 C   0  0  0  0  0  0
  -24.5928  -11.6741   20.8836 C   0  0  0  0  0  0
  -23.8729  -10.4178   21.0500 C   0  0  0  0  0  0
  -24.3417   -9.4118   21.9215 C   0  0  0  0  0  0
  -23.6177   -8.2127   22.0761 C   0  0  0  0  0  0
  -22.4156   -8.0149   21.3565 C   0  0  0  0  0  0
  -21.9722   -9.0074   20.4651 C   0  0  0  0  0  0
  -22.6970  -10.1984   20.3076 C   0  0  0  0  0  0
  -21.6804   -6.0648   22.5299 C   0  0  0  0  0  0
  -21.3965   -6.5586   23.8223 C   0  0  0  0  0  0
  -21.3645   -5.6749   24.9194 C   0  0  0  0  0  0
  -21.6054   -4.3023   24.7253 C   0  0  0  0  0  0
  -21.8838   -3.8100   23.4393 C   0  0  0  0  0  0
  -21.9187   -4.6892   22.3435 C   0  0  0  0  0  0
  -22.7405  -13.5145   21.2018 C   0  0  0  0  0  0
  -22.1665   -4.2084   21.1010 F   0  0  0  0  0  0
  -21.5638   -3.4520   25.7779 F   0  0  0  0  0  0
  -29.4925  -14.1293   20.2659 N   0  0  0  0  0  0
  -26.1920  -12.8996   20.2754 N   0  0  0  0  0  0
  -25.8707  -11.6209   20.5595 N   0  0  0  0  0  0
  -22.0081  -12.8136   22.0547 N   0  0  0  0  0  0
  -25.3569  -15.1715   20.4455 N   0  0  0  0  0  0
  -30.7814  -15.8261   20.1614 O   0  0  0  0  0  0
  -21.6577   -6.8727   21.4244 O   0  0  0  0  0  0
  -22.3182  -14.5500   20.6856 O   0  0  0  0  0  0
  -24.7631  -31.8720   22.7110 C   0  0  0  0  0  0
  -25.9724  -32.4556   23.6326 C   0  0  1  0  0  0
  -26.2843  -28.1019   21.5783 C   0  0  0  0  0  0
  -25.5849  -33.8106   24.0711 N   0  0  0  0  0  0
  -23.9876  -29.6286   20.9245 C   0  0  2  0  0  0
  -25.4304  -29.1034   19.4380 C   0  0  0  0  0  0
  -23.4303  -27.7711   21.7738 C   0  0  0  0  0  0
  -18.1521  -28.1742   22.6999 C   0  0  0  0  0  0
  -24.1430  -36.7097   23.2724 C   0  0  0  0  0  0
  -26.1243  -31.0872   20.8506 C   0  0  0  0  0  0
  -26.4306  -29.7488   20.2299 C   0  0  0  0  0  0
  -27.2356  -28.9317   21.0064 C   0  0  0  0  0  0
  -25.9606  -27.1316   20.5250 C   0  0  0  0  0  0
  -25.4113  -27.6974   19.3742 C   0  0  0  0  0  0
  -24.1200  -29.7106   19.4629 C   0  0  0  0  0  0
  -25.4132  -36.2798   24.0215 C   0  0  1  0  0  0
  -20.8003  -27.8807   23.3552 C   0  0  2  0  0  0
  -20.2502  -26.4912   23.3608 C   0  0  0  0  0  0
  -19.2350  -26.0112   22.3006 C   0  0  0  0  0  0
  -18.1936  -26.9394   21.8361 C   0  0  0  0  0  0
  -19.3897  -28.7575   23.2005 C   0  0  0  0  0  0
  -19.1700  -30.0222   23.8516 C   0  0  0  0  0  0
  -17.8680  -30.5940   24.0471 C   0  0  0  0  0  0
  -25.9250  -34.9442   23.4430 C   0  0  0  0  0  0
  -16.7043  -29.8966   23.6492 C   0  0  0  0  0  0
  -16.8521  -28.7066   22.9301 C   0  0  0  0  0  0
  -26.4167  -31.6577   24.9493 C   0  0  0  0  0  0
  -25.2926  -31.3912   25.9876 C   0  0  0  0  0  0
  -27.0753  -30.3060   24.5985 C   0  0  0  0  0  0
  -27.5295  -32.4678   25.6870 C   0  0  0  0  0  0
  -27.5618  -37.1522   24.8364 C   0  0  0  0  0  0
  -22.2265  -27.5025   22.6597 N   0  0  0  0  0  0
  -26.4097  -37.3733   23.9682 N   0  0  0  0  0  0
  -24.8761  -30.9582   21.5877 N   0  0  0  0  0  0
  -24.0163  -27.0359   22.5154 O   0  0  0  0  0  0
  -25.4000  -28.8605   22.6791 O   0  0  0  0  0  0
  -26.6238  -34.9368   22.4231 O   0  0  0  0  0  0
  -23.6694  -32.3176   23.1017 O   0  0  0  0  0  0
  -21.8340  -27.4721   19.0111 C   0  0  0  0  0  0
  -22.3716  -25.3947   19.8287 C   0  0  0  0  0  0
  -23.5611  -21.8217   18.3020 C   0  0  0  0  0  0
  -23.0002  -23.6024   20.0994 C   0  0  0  0  0  0
  -26.1932  -19.4448   19.7577 C   0  0  0  0  0  0
  -21.6556  -29.4523   21.4737 C   0  0  0  0  0  0
  -27.4001  -18.0771   20.4881 C   0  0  0  0  0  0
  -24.9596  -20.9211   20.2819 C   0  0  0  0  0  0
  -23.4178  -29.6191   23.1671 C   0  0  0  0  0  0
  -22.4465  -26.2408   18.7040 N   0  0  0  0  0  0
  -21.4721  -26.2703   20.5960 N   0  0  0  0  0  0
  -21.4137  -27.8238   20.2892 N   0  0  0  0  0  0
  -28.2848  -16.5080   20.1239 N   0  0  0  0  0  0
  -24.1697  -22.3567   19.5502 N   0  3  1  0  0  0
  -31.2323  -13.5516   19.1454 H   0  0  0  0  0  0
  -30.6059  -12.2928   20.1561 H   0  0  0  0  0  0
  -29.9885  -11.7596   17.8028 H   0  0  0  0  0  0
  -29.4039  -13.3893   17.5507 H   0  0  0  0  0  0
  -28.0996  -11.2006   19.1675 H   0  0  0  0  0  0
  -27.3875  -12.0932   17.8600 H   0  0  0  0  0  0
  -27.3465  -14.1167   19.1903 H   0  0  0  0  0  0
  -28.7754  -12.4313   21.3481 H   0  0  0  0  0  0
  -28.0003  -13.9792   21.7332 H   0  0  0  0  0  0
  -25.2558   -9.5670   22.4771 H   0  0  0  0  0  0
  -23.9943   -7.4510   22.7468 H   0  0  0  0  0  0
  -21.0660   -8.8557   19.8928 H   0  0  0  0  0  0
  -22.3421  -10.9528   19.6199 H   0  0  0  0  0  0
  -21.1921   -7.6090   23.9703 H   0  0  0  0  0  0
  -21.1443   -6.0488   25.9094 H   0  0  0  0  0  0
  -22.0631   -2.7559   23.2923 H   0  0  0  0  0  0
  -22.3700  -11.9777   22.4883 H   0  0  0  0  0  0
  -21.0731  -13.1209   22.2906 H   0  0  0  0  0  0
  -24.5500  -15.7580   20.6340 H   0  0  0  0  0  0
  -26.2186  -15.6620   20.5938 H   0  0  0  0  0  0
  -26.8750  -32.5668   23.0500 H   0  0  0  0  0  0
  -24.9441  -33.8732   24.8488 H   0  0  0  0  0  0
  -23.4124  -30.5452   20.9372 H   0  0  0  0  0  0
  -23.3954  -35.9149   23.2758 H   0  0  0  0  0  0
  -24.3545  -36.9507   22.2309 H   0  0  0  0  0  0
  -23.6869  -37.5822   23.7343 H   0  0  0  0  0  0
  -25.9898  -31.8288   20.0593 H   0  0  0  0  0  0
  -26.9859  -31.4330   21.4169 H   0  0  0  0  0  0
  -27.8747  -29.4786   21.6830 H   0  0  0  0  0  0
  -25.6322  -26.1320   20.7838 H   0  0  0  0  0  0
  -24.7676  -27.1354   18.7190 H   0  0  0  0  0  0
  -24.1570  -30.7295   19.0553 H   0  0  0  0  0  0
  -23.4273  -29.1917   18.8458 H   0  0  0  0  0  0
  -25.1374  -36.1127   25.0677 H   0  0  0  0  0  0
  -21.0908  -28.1355   24.3684 H   0  0  0  0  0  0
  -19.7625  -26.5063   24.3484 H   0  0  0  0  0  0
  -21.0077  -25.7222   23.5152 H   0  0  0  0  0  0
  -18.5742  -25.3742   22.9167 H   0  0  0  0  0  0
  -19.5132  -25.2031   21.6173 H   0  0  0  0  0  0
  -18.3846  -27.2538   20.8133 H   0  0  0  0  0  0
  -17.2475  -26.3666   21.8139 H   0  0  0  0  0  0
  -20.0382  -30.5485   24.2424 H   0  0  0  0  0  0
  -17.7946  -31.5748   24.5020 H   0  0  0  0  0  0
  -15.7312  -30.3201   23.7954 H   0  0  0  0  0  0
  -16.0066  -28.1978   22.4984 H   0  0  0  0  0  0
  -24.6810  -30.5314   25.7140 H   0  0  0  0  0  0
  -24.6163  -32.2411   26.0785 H   0  0  0  0  0  0
  -25.6898  -31.1897   26.9855 H   0  0  0  0  0  0
  -26.4140  -29.4581   24.7761 H   0  0  0  0  0  0
  -27.9712  -30.1033   25.1908 H   0  0  0  0  0  0
  -27.3849  -30.2789   23.5598 H   0  0  0  0  0  0
  -27.1642  -33.4134   26.0868 H   0  0  0  0  0  0
  -28.3569  -32.6990   25.0168 H   0  0  0  0  0  0
  -27.9501  -31.9282   26.5377 H   0  0  0  0  0  0
  -28.2060  -38.0322   24.8265 H   0  0  0  0  0  0
  -28.1646  -36.3038   24.5073 H   0  0  0  0  0  0
  -27.2576  -36.9749   25.8694 H   0  0  0  0  0  0
  -22.2995  -26.5190   22.8199 H   0  0  0  0  0  0
  -25.9805  -38.2544   24.2320 H   0  0  0  0  0  0
  -21.7469  -28.2497   18.2745 H   0  0  0  0  0  0
  -22.7530  -22.4818   17.9658 H   0  0  0  0  0  0
  -23.1144  -20.8385   18.4892 H   0  0  0  0  0  0
  -24.2745  -21.7447   17.4797 H   0  0  0  0  0  0
  -22.0918  -22.9961   20.0725 H   0  0  0  0  0  0
  -23.1878  -23.5283   21.1578 H   0  0  0  0  0  0
  -25.4296  -18.8019   19.3005 H   0  0  0  0  0  0
  -26.7540  -19.8663   18.9161 H   0  0  0  0  0  0
  -21.6019  -30.2340   20.6998 H   0  0  0  0  0  0
  -20.7383  -29.9053   21.8053 H   0  0  0  0  0  0
  -26.6972  -17.6619   21.2100 H   0  0  0  0  0  0
  -28.1142  -18.6014   21.1375 H   0  0  0  0  0  0
  -25.2103  -21.2238   21.3062 H   0  0  0  0  0  0
  -24.0542  -20.3254   20.4456 H   0  0  0  0  0  0
  -23.2259  -28.9778   24.0377 H   0  0  0  0  0  0
  -23.2847  -30.3524   23.9527 H   0  0  0  0  0  0
  -27.5705  -15.8732   19.7879 H   0  0  0  0  0  0
  -24.9409  -22.9542   19.2904 H   0  0  0  0  0  0
  1 25  1  0  0  0
  1 30  2  0  0  0
  1 83  1  0  0  0
  2  3  1  0  0  0
  2 25  1  0  0  0
  2 85  1  0  0  0
  2 86  1  0  0  0
  3  4  1  0  0  0
  3 87  1  0  0  0
  3 88  1  0  0  0
  4  5  1  0  0  0
  4 89  1  0  0  0
  4 90  1  0  0  0
  5  6  1  0  0  0
  5 26  1  0  0  0
  5 91  1  0  0  0
  6 25  1  0  0  0
  6 92  1  0  0  0
  6 93  1  0  0  0
  7  8  2  0  0  0
  7 26  1  0  0  0
  7 29  1  0  0  0
  8  9  1  0  0  0
  8 22  1  0  0  0
  9 10  1  0  0  0
  9 27  2  0  0  0
 10 11  2  0  0  0
 10 15  1  0  0  0
 11 12  1  0  0  0
 11 94  1  0  0  0
 12 13  2  0  0  0
 12 95  1  0  0  0
 13 14  1  0  0  0
 13 31  1  0  0  0
 14 15  2  0  0  0
 14 96  1  0  0  0
 15 97  1  0  0  0
 16 17  2  0  0  0
 16 21  1  0  0  0
 16 31  1  0  0  0
 17 18  1  0  0  0
 17 98  1  0  0  0
 18 19  2  0  0  0
 18 99  1  0  0  0
 19 20  1  0  0  0
 19 24  1  0  0  0
 20 21  2  0  0  0
 20100  1  0  0  0
 21 23  1  0  0  0
 22 28  1  0  0  0
 22 32  2  0  0  0
 26 27  1  0  0  0
 28101  1  0  0  0
 28102  1  0  0  0
 29103  1  0  0  0
 29104  1  0  0  0
 33 34  1  0  0  0
 33 66  1  0  0  0
 33 70  2  0  0  0
 34 36  1  0  0  0
 34 59  1  0  0  0
 34105  1  0  0  0
 35 44  2  0  0  0
 35 45  1  0  0  0
 35 68  1  0  0  0
 36 56  1  0  0  0
 36106  1  0  0  0
 37 39  1  0  0  0
 37 47  1  0  0  0
 37 66  1  0  0  0
 37107  1  0  0  0
 38 43  2  0  0  0
 38 46  1  0  0  0
 38 47  1  0  0  0
 39 64  1  0  0  0
 39 67  2  0  0  0
 40 52  1  0  0  0
 40 53  2  0  0  0
 40 58  1  0  0  0
 41108  1  0  0  0
 41109  1  0  0  0
 41110  1  0  0  0
 41 48  1  0  0  0
 42 43  1  0  0  0
 42 66  1  0  0  0
 42111  1  0  0  0
 42112  1  0  0  0
 43 44  1  0  0  0
 44113  1  0  0  0
 45 46  2  0  0  0
 45114  1  0  0  0
 46115  1  0  0  0
 47116  1  0  0  0
 47117  1  0  0  0
 48 56  1  0  0  0
 48 65  1  0  0  0
 48118  1  0  0  0
 49 50  1  0  0  0
 49 53  1  0  0  0
 49 64  1  0  0  0
 49119  1  0  0  0
 50 51  1  0  0  0
 50120  1  0  0  0
 50121  1  0  0  0
 51 52  1  0  0  0
 51122  1  0  0  0
 51123  1  0  0  0
 52124  1  0  0  0
 52125  1  0  0  0
 53 54  1  0  0  0
 54 55  2  0  0  0
 54126  1  0  0  0
 55 57  1  0  0  0
 55127  1  0  0  0
 56 69  2  0  0  0
 57 58  2  0  0  0
 57128  1  0  0  0
 58129  1  0  0  0
 59 60  1  0  0  0
 59 61  1  0  0  0
 59 62  1  0  0  0
 60130  1  0  0  0
 60131  1  0  0  0
 60132  1  0  0  0
 61133  1  0  0  0
 61134  1  0  0  0
 61135  1  0  0  0
 62136  1  0  0  0
 62137  1  0  0  0
 62138  1  0  0  0
 63 65  1  0  0  0
 63139  1  0  0  0
 63140  1  0  0  0
 63141  1  0  0  0
 64142  1  0  0  0
 65143  1  0  0  0
 68 79  1  0  0  0
 71 80  2  0  0  0
 71 82  1  0  0  0
 71144  1  0  0  0
 72 74  1  0  0  0
 72 80  1  0  0  0
 72 81  2  0  0  0
 73145  1  0  0  0
 73146  1  0  0  0
 73147  1  0  0  0
 73 84  1  0  0  0
 74 84  1  0  0  0
 74148  1  0  0  0
 74149  1  0  0  0
 75 77  1  0  0  0
 75 78  1  0  0  0
 75150  1  0  0  0
 75151  1  0  0  0
 76 79  1  0  0  0
 76 82  1  0  0  0
 76152  1  0  0  0
 76153  1  0  0  0
 77 83  1  0  0  0
 77154  1  0  0  0
 77155  1  0  0  0
 78 84  1  0  0  0
 78156  1  0  0  0
 78157  1  0  0  0
 79158  1  0  0  0
 79159  1  0  0  0
 81 82  1  0  0  0
 83160  1  0  0  0
 84161  1  0  0  0
M  CHG  1  84   1
M  ISO  4   1 100  68 101  79 101  83 100
M  END
> <chiral flag>
0

> <version>
0

> <s_m_source_file>
/data/baiqing/PycharmProjects/Reinvent-master-3.2/result/LINK_invent/BTK/process_docking_weight1_custom_sum_contain_oxygen_bond_distance_aromatic_linkinvent_7_9_3/rearranged_h_0052.sdf

> <i_m_source_file_index>
17

> <r_mmod_Potential_Energy-OPLS-2005>
13932.21484375

> <r_mmod_Stretch_Energy-OPLS-2005>
4696.0068359375

> <r_mmod_Bend_Energy-OPLS-2005>
1966.79089355469

> <r_mmod_Torsional_Energy-OPLS-2005>
769.686401367188

> <r_mmod_Improper_Torsional_Energy-OPLS-2005>
102.064117431641

> <r_mmod_Van_der_Waal_Energy-OPLS-2005>
1799.46179199219

> <r_mmod_Electrostatic_Energy-OPLS-2005>
-291.589172363281

> <r_mmod_Solvation_Energy-OPLS-2005>
-470.483978271484

> <b_mmod_Minimization_Converged-OPLS-2005>
0

> <r_mmod_RMS_Derivative-OPLS-2005>
41.9144134521484

$$$$
17
                    3D
 Structure written by MMmdl.
174182  0  0  1  0            999 V2000
  -30.7319  -14.4121   20.5201 C   0  0  0  0  0  0
  -30.4147  -12.2476   19.4110 C   0  0  0  0  0  0
  -29.4811  -12.4202   18.1932 C   0  0  0  0  0  0
  -27.9991  -12.3451   18.6105 C   0  0  0  0  0  0
  -27.6594  -13.1981   19.8635 C   0  0  2  0  0  0
  -28.7078  -12.9906   20.9810 C   0  0  0  0  0  0
  -25.2544  -13.8100   20.5664 C   0  0  0  0  0  0
  -24.1831  -13.0402   20.9156 C   0  0  0  0  0  0
  -24.6414  -11.6882   20.8732 C   0  0  0  0  0  0
  -23.9102  -10.4292   21.0403 C   0  0  0  0  0  0
  -24.3637   -9.4204   21.9184 C   0  0  0  0  0  0
  -23.6302   -8.2258   22.0767 C   0  0  0  0  0  0
  -22.4296   -8.0302   21.3539 C   0  0  0  0  0  0
  -21.9914   -9.0287   20.4644 C   0  0  0  0  0  0
  -22.7271  -10.2158   20.3048 C   0  0  0  0  0  0
  -21.6877   -6.0777   22.5289 C   0  0  0  0  0  0
  -21.4021   -6.5677   23.8226 C   0  0  0  0  0  0
  -21.3636   -5.6815   24.9173 C   0  0  0  0  0  0
  -21.6033   -4.3080   24.7215 C   0  0  0  0  0  0
  -21.8829   -3.8185   23.4339 C   0  0  0  0  0  0
  -21.9192   -4.7004   22.3402 C   0  0  0  0  0  0
  -22.7858  -13.5192   21.1819 C   0  0  0  0  0  0
  -22.1660   -4.2197   21.0977 F   0  0  0  0  0  0
  -21.5601   -3.4543   25.7718 F   0  0  0  0  0  0
  -30.0358  -13.2551   20.4096 N   0  0  0  0  0  0
  -26.3017  -12.9310   20.3359 N   0  0  0  0  0  0
  -25.9344  -11.6485   20.5800 N   0  0  0  0  0  0
  -22.0577  -12.8190   22.0409 N   0  0  0  0  0  0
  -25.4150  -15.1784   20.4094 N   0  0  0  0  0  0
  -31.9199  -14.5283   20.2027 O   0  0  0  0  0  0
  -21.6660   -6.8908   21.4244 O   0  0  0  0  0  0
  -22.3517  -14.5516   20.6700 O   0  0  0  0  0  0
  -24.6126  -31.8786   23.2217 C   0  0  0  0  0  0
  -25.9043  -32.4881   23.8464 C   0  0  1  0  0  0
  -27.2157  -27.4769   20.0830 C   0  0  0  0  0  0
  -25.5936  -33.8670   24.2401 N   0  0  0  0  0  0
  -23.3937  -30.5138   21.5614 C   0  0  2  0  0  0
  -24.8353  -29.0049   20.1184 C   0  0  0  0  0  0
  -22.7383  -29.4753   22.4992 C   0  0  0  0  0  0
  -18.0282  -28.1390   22.8503 C   0  0  0  0  0  0
  -24.1460  -36.7324   23.2613 C   0  0  0  0  0  0
  -25.9186  -30.8573   21.3703 C   0  0  0  0  0  0
  -25.9936  -29.4896   20.7338 C   0  0  0  0  0  0
  -27.1826  -28.7224   20.7442 C   0  0  0  0  0  0
  -26.0615  -27.0894   19.3549 C   0  0  0  0  0  0
  -24.8592  -27.7921   19.4303 C   0  0  0  0  0  0
  -23.5954  -29.8605   20.1731 C   0  0  0  0  0  0
  -25.4090  -36.3153   24.0336 C   0  0  1  0  0  0
  -20.5873  -28.3687   23.1288 C   0  0  2  0  0  0
  -20.6783  -26.9428   22.5402 C   0  0  0  0  0  0
  -19.5748  -26.6399   21.5204 C   0  0  0  0  0  0
  -18.1915  -26.7947   22.1616 C   0  0  0  0  0  0
  -19.1542  -28.8851   23.2901 C   0  0  0  0  0  0
  -18.9461  -30.1455   23.8917 C   0  0  0  0  0  0
  -17.6472  -30.6598   24.0572 C   0  0  0  0  0  0
  -25.9026  -34.9518   23.5166 C   0  0  0  0  0  0
  -16.5368  -29.9104   23.6325 C   0  0  0  0  0  0
  -16.7278  -28.6516   23.0353 C   0  0  0  0  0  0
  -26.4490  -31.6598   25.0753 C   0  0  0  0  0  0
  -25.3740  -31.3635   26.1472 C   0  0  0  0  0  0
  -27.0293  -30.3072   24.5993 C   0  0  0  0  0  0
  -27.6131  -32.4264   25.7457 C   0  0  0  0  0  0
  -27.5553  -37.1793   24.8467 C   0  0  0  0  0  0
  -21.4124  -29.3082   22.3700 N   0  0  0  0  0  0
  -26.4272  -37.3843   23.9432 N   0  0  0  0  0  0
  -24.6605  -31.0933   22.1113 N   0  0  0  0  0  0
  -23.4194  -28.8276   23.2982 O   0  0  0  0  0  0
  -28.3747  -26.7204   20.1010 O   0  0  0  0  0  0
  -26.5513  -34.8957   22.4687 O   0  0  0  0  0  0
  -23.5331  -32.1512   23.7628 O   0  0  0  0  0  0
  -27.1914  -22.3435   18.8298 C   0  0  0  0  0  0
  -26.9746  -22.3289   21.0016 C   0  0  0  0  0  0
  -26.7513  -21.1170   19.2390 C   0  0  0  0  0  0
  -29.8313  -18.6635   19.4428 C   0  0  0  0  0  0
  -27.6635  -17.3148   19.7651 C   0  0  0  0  0  0
  -29.9408  -16.3065   21.7826 C   0  0  0  0  0  0
  -26.3927  -17.6570   16.4883 C   0  0  0  0  0  0
  -26.4092  -19.9702   18.3534 C   0  0  0  0  0  0
  -27.2790  -24.5533   19.8942 C   0  0  0  0  0  0
  -29.8693  -16.1693   19.2055 C   0  0  0  0  0  0
  -27.5520  -19.7210   17.3503 C   0  0  0  0  0  0
  -28.7486  -17.4815   17.4117 C   0  0  0  0  0  0
  -28.3017  -25.3905   20.6665 C   0  0  0  0  0  0
  -28.9900  -17.4357   18.9758 C   0  0  0  0  0  0
  -26.6640  -21.0856   20.6343 N   0  0  0  0  0  0
  -27.2459  -23.1304   19.9628 N   0  0  0  0  0  0
  -29.9586  -15.5183   20.5400 N   0  0  0  0  0  0
  -27.6688  -18.3412   16.8301 N   0  3  1  0  0  0
  -31.4582  -12.3238   19.1020 H   0  0  0  0  0  0
  -30.3017  -11.2474   19.8343 H   0  0  0  0  0  0
  -29.6851  -11.6407   17.4583 H   0  0  0  0  0  0
  -29.6854  -13.3598   17.6822 H   0  0  0  0  0  0
  -27.7688  -11.2959   18.8000 H   0  0  0  0  0  0
  -27.3625  -12.6348   17.7733 H   0  0  0  0  0  0
  -27.6942  -14.2404   19.5550 H   0  0  0  0  0  0
  -28.6696  -11.9686   21.3567 H   0  0  0  0  0  0
  -28.5024  -13.6372   21.8350 H   0  0  0  0  0  0
  -25.2794   -9.5685   22.4740 H   0  0  0  0  0  0
  -24.0039   -7.4649   22.7468 H   0  0  0  0  0  0
  -21.0871   -8.8807   19.8936 H   0  0  0  0  0  0
  -22.3759  -10.9695   19.6150 H   0  0  0  0  0  0
  -21.2064   -7.6191   23.9739 H   0  0  0  0  0  0
  -21.1405   -6.0540   25.9063 H   0  0  0  0  0  0
  -22.0628   -2.7647   23.2830 H   0  0  0  0  0  0
  -22.4246  -11.9793   22.4662 H   0  0  0  0  0  0
  -21.1243  -13.1187   22.2792 H   0  0  0  0  0  0
  -24.6608  -15.8402   20.5497 H   0  0  0  0  0  0
  -26.3005  -15.6200   20.1999 H   0  0  0  0  0  0
  -26.7113  -32.5632   23.1225 H   0  0  0  0  0  0
  -25.0268  -33.9886   25.0656 H   0  0  0  0  0  0
  -22.6844  -31.3322   21.4266 H   0  0  0  0  0  0
  -23.3745  -35.9633   23.3318 H   0  0  0  0  0  0
  -24.3517  -36.8895   22.2011 H   0  0  0  0  0  0
  -23.7188  -37.6539   23.6603 H   0  0  0  0  0  0
  -26.0033  -31.6130   20.5898 H   0  0  0  0  0  0
  -26.8189  -30.9297   21.9633 H   0  0  0  0  0  0
  -28.0683  -29.0817   21.2486 H   0  0  0  0  0  0
  -26.0390  -26.2584   18.6724 H   0  0  0  0  0  0
  -23.9910  -27.4401   18.8917 H   0  0  0  0  0  0
  -23.6902  -30.6355   19.4109 H   0  0  0  0  0  0
  -22.7236  -29.2737   19.8803 H   0  0  0  0  0  0
  -25.1235  -36.2035   25.0822 H   0  0  0  0  0  0
  -21.0000  -28.3252   24.1392 H   0  0  0  0  0  0
  -20.5686  -26.2295   23.3599 H   0  0  0  0  0  0
  -21.6638  -26.7470   22.1175 H   0  0  0  0  0  0
  -19.6944  -25.6307   21.1231 H   0  0  0  0  0  0
  -19.6691  -27.3214   20.6752 H   0  0  0  0  0  0
  -17.4200  -26.6713   21.4023 H   0  0  0  0  0  0
  -18.0330  -26.0056   22.8984 H   0  0  0  0  0  0
  -19.7949  -30.7263   24.2287 H   0  0  0  0  0  0
  -17.5036  -31.6277   24.5169 H   0  0  0  0  0  0
  -15.5382  -30.3019   23.7635 H   0  0  0  0  0  0
  -15.8666  -28.0850   22.7057 H   0  0  0  0  0  0
  -24.6070  -30.6811   25.7774 H   0  0  0  0  0  0
  -24.8732  -32.2730   26.4821 H   0  0  0  0  0  0
  -25.8097  -30.8918   27.0277 H   0  0  0  0  0  0
  -26.2800  -29.6869   24.1065 H   0  0  0  0  0  0
  -27.4158  -29.7284   25.4374 H   0  0  0  0  0  0
  -27.8589  -30.4444   23.9056 H   0  0  0  0  0  0
  -27.2894  -33.3643   26.1966 H   0  0  0  0  0  0
  -28.3947  -32.6643   25.0232 H   0  0  0  0  0  0
  -28.0759  -31.8365   26.5374 H   0  0  0  0  0  0
  -28.2604  -38.0060   24.7536 H   0  0  0  0  0  0
  -28.1016  -36.2603   24.6296 H   0  0  0  0  0  0
  -27.2243  -37.1434   25.8856 H   0  0  0  0  0  0
  -20.9275  -29.8813   21.6926 H   0  0  0  0  0  0
  -26.0179  -38.2919   24.1503 H   0  0  0  0  0  0
  -27.3533  -22.7350   17.8324 H   0  0  0  0  0  0
  -26.8896  -22.6893   22.0200 H   0  0  0  0  0  0
  -30.6404  -18.3932   20.1194 H   0  0  0  0  0  0
  -29.2456  -19.4254   19.9596 H   0  0  0  0  0  0
  -30.3385  -19.1556   18.6106 H   0  0  0  0  0  0
  -27.4299  -18.2191   20.3291 H   0  0  0  0  0  0
  -27.6399  -16.4971   20.4709 H   0  0  0  0  0  0
  -26.8222  -17.0936   19.1275 H   0  0  0  0  0  0
  -29.0137  -16.8468   21.9510 H   0  0  0  0  0  0
  -30.7519  -17.0307   21.8051 H   0  0  0  0  0  0
  -30.0563  -15.6604   22.6554 H   0  0  0  0  0  0
  -25.6727  -18.3678   16.0806 H   0  0  0  0  0  0
  -25.9039  -17.1557   17.3188 H   0  0  0  0  0  0
  -26.5654  -16.8990   15.7243 H   0  0  0  0  0  0
  -25.5050  -20.2084   17.7917 H   0  0  0  0  0  0
  -26.1203  -19.1115   18.9406 H   0  0  0  0  0  0
  -27.4230  -24.7854   18.8396 H   0  0  0  0  0  0
  -26.2738  -24.8293   20.2104 H   0  0  0  0  0  0
  -30.8698  -16.3707   18.8180 H   0  0  0  0  0  0
  -29.4813  -15.3879   18.5543 H   0  0  0  0  0  0
  -28.5087  -20.0523   17.7450 H   0  0  0  0  0  0
  -27.3775  -20.3765   16.4969 H   0  0  0  0  0  0
  -28.5624  -16.4826   17.0194 H   0  0  0  0  0  0
  -29.6853  -17.7727   16.9364 H   0  0  0  0  0  0
  -29.2893  -24.9335   20.5935 H   0  0  0  0  0  0
  -28.0553  -25.4406   21.7271 H   0  0  0  0  0  0
  -28.0374  -18.5145   15.9058 H   0  0  0  0  0  0
  1 25  1  0  0  0
  1 30  2  0  0  0
  1 87  1  0  0  0
  2  3  1  0  0  0
  2 25  1  0  0  0
  2 89  1  0  0  0
  2 90  1  0  0  0
  3  4  1  0  0  0
  3 91  1  0  0  0
  3 92  1  0  0  0
  4  5  1  0  0  0
  4 93  1  0  0  0
  4 94  1  0  0  0
  5  6  1  0  0  0
  5 26  1  0  0  0
  5 95  1  0  0  0
  6 25  1  0  0  0
  6 96  1  0  0  0
  6 97  1  0  0  0
  7  8  2  0  0  0
  7 26  1  0  0  0
  7 29  1  0  0  0
  8  9  1  0  0  0
  8 22  1  0  0  0
  9 10  1  0  0  0
  9 27  2  0  0  0
 10 11  2  0  0  0
 10 15  1  0  0  0
 11 12  1  0  0  0
 11 98  1  0  0  0
 12 13  2  0  0  0
 12 99  1  0  0  0
 13 14  1  0  0  0
 13 31  1  0  0  0
 14 15  2  0  0  0
 14100  1  0  0  0
 15101  1  0  0  0
 16 17  2  0  0  0
 16 21  1  0  0  0
 16 31  1  0  0  0
 17 18  1  0  0  0
 17102  1  0  0  0
 18 19  2  0  0  0
 18103  1  0  0  0
 19 20  1  0  0  0
 19 24  1  0  0  0
 20 21  2  0  0  0
 20104  1  0  0  0
 21 23  1  0  0  0
 22 28  1  0  0  0
 22 32  2  0  0  0
 26 27  1  0  0  0
 28105  1  0  0  0
 28106  1  0  0  0
 29107  1  0  0  0
 29108  1  0  0  0
 33 34  1  0  0  0
 33 66  1  0  0  0
 33 70  2  0  0  0
 34 36  1  0  0  0
 34 59  1  0  0  0
 34109  1  0  0  0
 35 44  2  0  0  0
 35 45  1  0  0  0
 35 68  1  0  0  0
 36 56  1  0  0  0
 36110  1  0  0  0
 37 39  1  0  0  0
 37 47  1  0  0  0
 37 66  1  0  0  0
 37111  1  0  0  0
 38 43  2  0  0  0
 38 46  1  0  0  0
 38 47  1  0  0  0
 39 64  1  0  0  0
 39 67  2  0  0  0
 40 52  1  0  0  0
 40 53  2  0  0  0
 40 58  1  0  0  0
 41112  1  0  0  0
 41113  1  0  0  0
 41114  1  0  0  0
 41 48  1  0  0  0
 42 43  1  0  0  0
 42 66  1  0  0  0
 42115  1  0  0  0
 42116  1  0  0  0
 43 44  1  0  0  0
 44117  1  0  0  0
 45 46  2  0  0  0
 45118  1  0  0  0
 46119  1  0  0  0
 47120  1  0  0  0
 47121  1  0  0  0
 48 56  1  0  0  0
 48 65  1  0  0  0
 48122  1  0  0  0
 49 50  1  0  0  0
 49 53  1  0  0  0
 49 64  1  0  0  0
 49123  1  0  0  0
 50 51  1  0  0  0
 50124  1  0  0  0
 50125  1  0  0  0
 51 52  1  0  0  0
 51126  1  0  0  0
 51127  1  0  0  0
 52128  1  0  0  0
 52129  1  0  0  0
 53 54  1  0  0  0
 54 55  2  0  0  0
 54130  1  0  0  0
 55 57  1  0  0  0
 55131  1  0  0  0
 56 69  2  0  0  0
 57 58  2  0  0  0
 57132  1  0  0  0
 58133  1  0  0  0
 59 60  1  0  0  0
 59 61  1  0  0  0
 59 62  1  0  0  0
 60134  1  0  0  0
 60135  1  0  0  0
 60136  1  0  0  0
 61137  1  0  0  0
 61138  1  0  0  0
 61139  1  0  0  0
 62140  1  0  0  0
 62141  1  0  0  0
 62142  1  0  0  0
 63 65  1  0  0  0
 63143  1  0  0  0
 63144  1  0  0  0
 63145  1  0  0  0
 64146  1  0  0  0
 65147  1  0  0  0
 68 83  1  0  0  0
 71 73  2  0  0  0
 71 86  1  0  0  0
 71148  1  0  0  0
 72 85  2  0  0  0
 72 86  1  0  0  0
 72149  1  0  0  0
 73 78  1  0  0  0
 73 85  1  0  0  0
 74150  1  0  0  0
 74151  1  0  0  0
 74152  1  0  0  0
 74 84  1  0  0  0
 75 84  1  0  0  0
 75153  1  0  0  0
 75154  1  0  0  0
 75155  1  0  0  0
 76 87  1  0  0  0
 76156  1  0  0  0
 76157  1  0  0  0
 76158  1  0  0  0
 77159  1  0  0  0
 77160  1  0  0  0
 77161  1  0  0  0
 77 88  1  0  0  0
 78 81  1  0  0  0
 78162  1  0  0  0
 78163  1  0  0  0
 79 83  1  0  0  0
 79 86  1  0  0  0
 79164  1  0  0  0
 79165  1  0  0  0
 80 84  1  0  0  0
 80 87  1  0  0  0
 80166  1  0  0  0
 80167  1  0  0  0
 81 88  1  0  0  0
 81168  1  0  0  0
 81169  1  0  0  0
 82 84  1  0  0  0
 82 88  1  0  0  0
 82170  1  0  0  0
 82171  1  0  0  0
 83172  1  0  0  0
 83173  1  0  0  0
 88174  1  0  0  0
M  CHG  1  88   1
M  ISO  4   1 100  68 101  83 101  87 100
M  END
> <chiral flag>
0

> <version>
0

> <s_m_source_file>
/data/baiqing/PycharmProjects/Reinvent-master-3.2/result/LINK_invent/BTK/process_docking_weight1_custom_sum_contain_oxygen_bond_distance_aromatic_linkinvent_7_9_3/rearranged_h_0052.sdf

> <i_m_source_file_index>
18

> <r_mmod_Potential_Energy-OPLS-2005>
218.886520385742

> <r_mmod_Stretch_Energy-OPLS-2005>
41.6678314208984

> <r_mmod_Bend_Energy-OPLS-2005>
181.766342163086

> <r_mmod_Torsional_Energy-OPLS-2005>
421.942413330078

> <r_mmod_Improper_Torsional_Energy-OPLS-2005>
18.9298858642578

> <r_mmod_Van_der_Waal_Energy-OPLS-2005>
186.950073242188

> <r_mmod_Electrostatic_Energy-OPLS-2005>
-210.408248901367

> <r_mmod_Solvation_Energy-OPLS-2005>
-445.805450439453

> <b_mmod_Minimization_Converged-OPLS-2005>
0

> <r_mmod_RMS_Derivative-OPLS-2005>
5.88483476638794

$$$$
18
                    3D
 Structure written by MMmdl.
162170  0  0  1  0            999 V2000
  -30.6585  -14.5633   20.6076 C   0  0  0  0  0  0
  -30.4291  -12.3845   19.4164 C   0  0  0  0  0  0
  -29.4907  -12.5239   18.1963 C   0  0  0  0  0  0
  -28.0135  -12.3491   18.6079 C   0  0  0  0  0  0
  -27.6546  -13.1762   19.8697 C   0  0  2  0  0  0
  -28.7055  -12.9146   20.9764 C   0  0  0  0  0  0
  -25.2603  -13.8046   20.5796 C   0  0  0  0  0  0
  -24.1796  -13.0395   20.9213 C   0  0  0  0  0  0
  -24.6291  -11.6836   20.8732 C   0  0  0  0  0  0
  -23.8920  -10.4243   21.0362 C   0  0  0  0  0  0
  -24.3477   -9.4203   21.9158 C   0  0  0  0  0  0
  -23.6180   -8.2241   22.0786 C   0  0  0  0  0  0
  -22.4176   -8.0210   21.3554 C   0  0  0  0  0  0
  -21.9759   -9.0203   20.4667 C   0  0  0  0  0  0
  -22.7098  -10.2076   20.3016 C   0  0  0  0  0  0
  -21.6825   -6.0608   22.5221 C   0  0  0  0  0  0
  -21.4015   -6.5559   23.8151 C   0  0  0  0  0  0
  -21.3681   -5.6749   24.9136 C   0  0  0  0  0  0
  -21.6077   -4.3013   24.7233 C   0  0  0  0  0  0
  -21.8829   -3.8042   23.4366 C   0  0  0  0  0  0
  -21.9192   -4.6846   22.3408 C   0  0  0  0  0  0
  -22.7797  -13.5258   21.1787 C   0  0  0  0  0  0
  -22.1647   -4.2017   21.0978 F   0  0  0  0  0  0
  -21.5734   -3.4531   25.7775 F   0  0  0  0  0  0
  -29.9927  -13.3650   20.4393 N   0  0  0  0  0  0
  -26.2964  -12.9147   20.3319 N   0  0  0  0  0  0
  -25.9182  -11.6332   20.5636 N   0  0  0  0  0  0
  -22.0384  -12.8303   22.0330 N   0  0  0  0  0  0
  -25.4396  -15.1751   20.4438 N   0  0  0  0  0  0
  -31.8161  -14.6402   20.1771 O   0  0  0  0  0  0
  -21.6620   -6.8759   21.4171 O   0  0  0  0  0  0
  -22.3568  -14.5595   20.6667 O   0  0  0  0  0  0
  -24.6201  -31.8647   23.2079 C   0  0  0  0  0  0
  -25.9083  -32.4806   23.8375 C   0  0  1  0  0  0
  -27.2073  -27.3776   20.1250 C   0  0  0  0  0  0
  -25.5927  -33.8606   24.2321 N   0  0  0  0  0  0
  -23.4092  -30.4898   21.5493 C   0  0  2  0  0  0
  -24.8505  -28.9453   20.1155 C   0  0  0  0  0  0
  -22.7439  -29.4670   22.4984 C   0  0  0  0  0  0
  -18.0282  -28.1378   22.8505 C   0  0  0  0  0  0
  -24.1468  -36.7283   23.2640 C   0  0  0  0  0  0
  -25.9437  -30.8135   21.3655 C   0  0  0  0  0  0
  -26.0143  -29.4442   20.7126 C   0  0  0  0  0  0
  -27.2037  -28.6701   20.7081 C   0  0  0  0  0  0
  -26.0325  -26.9020   19.5166 C   0  0  0  0  0  0
  -24.8591  -27.6800   19.5036 C   0  0  0  0  0  0
  -23.6189  -29.8246   20.1624 C   0  0  0  0  0  0
  -25.4099  -36.3101   24.0351 C   0  0  1  0  0  0
  -20.5877  -28.3673   23.1304 C   0  0  2  0  0  0
  -20.6764  -26.9408   22.5424 C   0  0  0  0  0  0
  -19.5735  -26.6391   21.5209 C   0  0  0  0  0  0
  -18.1907  -26.7930   22.1631 C   0  0  0  0  0  0
  -19.1534  -28.8845   23.2894 C   0  0  0  0  0  0
  -18.9469  -30.1452   23.8899 C   0  0  0  0  0  0
  -17.6460  -30.6577   24.0583 C   0  0  0  0  0  0
  -25.9042  -34.9465   23.5139 C   0  0  0  0  0  0
  -16.5352  -29.9081   23.6343 C   0  0  0  0  0  0
  -16.7264  -28.6508   23.0353 C   0  0  0  0  0  0
  -26.4484  -31.6584   25.0721 C   0  0  0  0  0  0
  -25.3746  -31.3698   26.1481 C   0  0  0  0  0  0
  -27.0310  -30.3032   24.6113 C   0  0  0  0  0  0
  -27.6062  -32.4287   25.7470 C   0  0  0  0  0  0
  -27.5579  -37.1791   24.8475 C   0  0  0  0  0  0
  -21.4159  -29.3036   22.3706 N   0  0  0  0  0  0
  -26.4268  -37.3800   23.9438 N   0  0  0  0  0  0
  -24.6765  -31.0699   22.0997 N   0  0  0  0  0  0
  -23.4186  -28.8226   23.3056 O   0  0  0  0  0  0
  -28.3375  -26.5828   20.1220 O   0  0  0  0  0  0
  -26.5600  -34.8928   22.4697 O   0  0  0  0  0  0
  -23.5387  -32.1428   23.7456 O   0  0  0  0  0  0
  -30.2310  -18.9137   19.2216 C   0  0  0  0  0  0
  -29.1815  -19.1884   21.1203 C   0  0  0  0  0  0
  -30.0453  -18.3098   20.4988 C   0  0  0  0  0  0
  -27.5817  -15.5629   24.0567 C   0  0  0  0  0  0
  -30.7600  -17.0326   20.9942 C   0  0  0  0  0  0
  -28.9173  -15.7370   23.3142 C   0  0  0  0  0  0
  -28.6237  -22.7560   20.6304 C   0  0  0  0  0  0
  -27.7889  -24.0332   20.2500 C   0  0  0  0  0  0
  -27.9589  -21.3667   20.3519 C   0  0  0  0  0  0
  -28.7433  -15.8768   21.7874 C   0  0  0  0  0  0
  -28.2819  -25.3677   20.9159 C   0  0  0  0  0  0
  -29.5441  -20.0371   19.0647 N   0  0  0  0  0  0
  -28.8898  -20.2269   20.2342 N   0  0  0  0  0  0
  -30.0176  -15.7244   21.0388 N   0  0  0  0  0  0
  -31.4590  -12.5263   19.0883 H   0  0  0  0  0  0
  -30.3947  -11.3678   19.8159 H   0  0  0  0  0  0
  -29.7526  -11.8148   17.4127 H   0  0  0  0  0  0
  -29.6179  -13.5117   17.7524 H   0  0  0  0  0  0
  -27.8361  -11.2904   18.7964 H   0  0  0  0  0  0
  -27.3631  -12.6249   17.7784 H   0  0  0  0  0  0
  -27.7029  -14.2152   19.5506 H   0  0  0  0  0  0
  -28.7344  -11.8403   21.1737 H   0  0  0  0  0  0
  -28.4692  -13.3179   21.9567 H   0  0  0  0  0  0
  -25.2657   -9.5729   22.4674 H   0  0  0  0  0  0
  -23.9935   -7.4667   22.7558 H   0  0  0  0  0  0
  -21.0690   -8.8705   19.8983 H   0  0  0  0  0  0
  -22.3594  -10.9599   19.6096 H   0  0  0  0  0  0
  -21.1950   -7.6051   23.9599 H   0  0  0  0  0  0
  -21.1526   -6.0485   25.9035 H   0  0  0  0  0  0
  -22.0564   -2.7465   23.2933 H   0  0  0  0  0  0
  -22.3964  -12.0047   22.4835 H   0  0  0  0  0  0
  -21.1008  -13.1373   22.2504 H   0  0  0  0  0  0
  -24.7112  -15.8347   20.6911 H   0  0  0  0  0  0
  -26.3260  -15.6134   20.2313 H   0  0  0  0  0  0
  -26.7164  -32.5496   23.1127 H   0  0  0  0  0  0
  -25.0097  -33.9738   25.0488 H   0  0  0  0  0  0
  -22.7035  -31.3112   21.4125 H   0  0  0  0  0  0
  -23.3734  -35.9608   23.3319 H   0  0  0  0  0  0
  -24.3564  -36.8869   22.2052 H   0  0  0  0  0  0
  -23.7190  -37.6489   23.6625 H   0  0  0  0  0  0
  -26.0640  -31.5738   20.5921 H   0  0  0  0  0  0
  -26.8301  -30.8683   21.9865 H   0  0  0  0  0  0
  -28.1059  -29.0485   21.1673 H   0  0  0  0  0  0
  -26.0200  -25.9250   19.0554 H   0  0  0  0  0  0
  -23.9683  -27.2930   19.0296 H   0  0  0  0  0  0
  -23.7399  -30.6021   19.4072 H   0  0  0  0  0  0
  -22.7375  -29.2549   19.8611 H   0  0  0  0  0  0
  -25.1252  -36.1963   25.0835 H   0  0  0  0  0  0
  -20.9978  -28.3230   24.1421 H   0  0  0  0  0  0
  -20.5648  -26.2271   23.3613 H   0  0  0  0  0  0
  -21.6629  -26.7431   22.1228 H   0  0  0  0  0  0
  -19.6886  -25.6297   21.1228 H   0  0  0  0  0  0
  -19.6660  -27.3215   20.6746 H   0  0  0  0  0  0
  -17.4187  -26.6694   21.4023 H   0  0  0  0  0  0
  -18.0309  -26.0056   22.9014 H   0  0  0  0  0  0
  -19.7929  -30.7277   24.2262 H   0  0  0  0  0  0
  -17.5012  -31.6267   24.5181 H   0  0  0  0  0  0
  -15.5349  -30.2989   23.7664 H   0  0  0  0  0  0
  -15.8663  -28.0828   22.7066 H   0  0  0  0  0  0
  -24.5926  -30.7028   25.7832 H   0  0  0  0  0  0
  -24.8937  -32.2856   26.4936 H   0  0  0  0  0  0
  -25.8132  -30.8880   27.0235 H   0  0  0  0  0  0
  -26.2862  -29.6789   24.1185 H   0  0  0  0  0  0
  -27.4096  -29.7281   25.4566 H   0  0  0  0  0  0
  -27.8682  -30.4349   23.9256 H   0  0  0  0  0  0
  -27.2717  -33.3590   26.2070 H   0  0  0  0  0  0
  -28.3866  -32.6841   25.0281 H   0  0  0  0  0  0
  -28.0745  -31.8390   26.5367 H   0  0  0  0  0  0
  -28.2604  -38.0082   24.7564 H   0  0  0  0  0  0
  -28.1064  -36.2633   24.6235 H   0  0  0  0  0  0
  -27.2324  -37.1385   25.8881 H   0  0  0  0  0  0
  -20.9318  -29.8753   21.6923 H   0  0  0  0  0  0
  -26.0162  -38.2869   24.1463 H   0  0  0  0  0  0
  -30.8552  -18.5681   18.4080 H   0  0  0  0  0  0
  -28.7447  -19.1596   22.1112 H   0  0  0  0  0  0
  -27.7280  -15.5294   25.1372 H   0  0  0  0  0  0
  -27.0815  -14.6331   23.7734 H   0  0  0  0  0  0
  -26.8915  -16.3819   23.8575 H   0  0  0  0  0  0
  -31.1649  -17.1895   21.9936 H   0  0  0  0  0  0
  -31.6596  -16.9476   20.3827 H   0  0  0  0  0  0
  -29.5736  -14.8997   23.5517 H   0  0  0  0  0  0
  -29.4171  -16.6303   23.6958 H   0  0  0  0  0  0
  -28.8859  -22.7913   21.6889 H   0  0  0  0  0  0
  -29.5711  -22.8075   20.0952 H   0  0  0  0  0  0
  -26.7431  -23.8737   20.5271 H   0  0  0  0  0  0
  -27.7829  -24.1321   19.1632 H   0  0  0  0  0  0
  -27.3915  -21.4126   19.4205 H   0  0  0  0  0  0
  -27.2273  -21.1407   21.1285 H   0  0  0  0  0  0
  -28.2812  -16.8411   21.5922 H   0  0  0  0  0  0
  -27.9596  -15.2275   21.4354 H   0  0  0  0  0  0
  -29.2941  -25.2094   21.2861 H   0  0  0  0  0  0
  -27.6941  -25.5474   21.8183 H   0  0  0  0  0  0
  1 25  1  0  0  0
  1 30  2  0  0  0
  1 84  1  0  0  0
  2  3  1  0  0  0
  2 25  1  0  0  0
  2 85  1  0  0  0
  2 86  1  0  0  0
  3  4  1  0  0  0
  3 87  1  0  0  0
  3 88  1  0  0  0
  4  5  1  0  0  0
  4 89  1  0  0  0
  4 90  1  0  0  0
  5  6  1  0  0  0
  5 26  1  0  0  0
  5 91  1  0  0  0
  6 25  1  0  0  0
  6 92  1  0  0  0
  6 93  1  0  0  0
  7  8  2  0  0  0
  7 26  1  0  0  0
  7 29  1  0  0  0
  8  9  1  0  0  0
  8 22  1  0  0  0
  9 10  1  0  0  0
  9 27  2  0  0  0
 10 11  2  0  0  0
 10 15  1  0  0  0
 11 12  1  0  0  0
 11 94  1  0  0  0
 12 13  2  0  0  0
 12 95  1  0  0  0
 13 14  1  0  0  0
 13 31  1  0  0  0
 14 15  2  0  0  0
 14 96  1  0  0  0
 15 97  1  0  0  0
 16 17  2  0  0  0
 16 21  1  0  0  0
 16 31  1  0  0  0
 17 18  1  0  0  0
 17 98  1  0  0  0
 18 19  2  0  0  0
 18 99  1  0  0  0
 19 20  1  0  0  0
 19 24  1  0  0  0
 20 21  2  0  0  0
 20100  1  0  0  0
 21 23  1  0  0  0
 22 28  1  0  0  0
 22 32  2  0  0  0
 26 27  1  0  0  0
 28101  1  0  0  0
 28102  1  0  0  0
 29103  1  0  0  0
 29104  1  0  0  0
 33 34  1  0  0  0
 33 66  1  0  0  0
 33 70  2  0  0  0
 34 36  1  0  0  0
 34 59  1  0  0  0
 34105  1  0  0  0
 35 44  2  0  0  0
 35 45  1  0  0  0
 35 68  1  0  0  0
 36 56  1  0  0  0
 36106  1  0  0  0
 37 39  1  0  0  0
 37 47  1  0  0  0
 37 66  1  0  0  0
 37107  1  0  0  0
 38 43  2  0  0  0
 38 46  1  0  0  0
 38 47  1  0  0  0
 39 64  1  0  0  0
 39 67  2  0  0  0
 40 52  1  0  0  0
 40 53  2  0  0  0
 40 58  1  0  0  0
 41108  1  0  0  0
 41109  1  0  0  0
 41110  1  0  0  0
 41 48  1  0  0  0
 42 43  1  0  0  0
 42 66  1  0  0  0
 42111  1  0  0  0
 42112  1  0  0  0
 43 44  1  0  0  0
 44113  1  0  0  0
 45 46  2  0  0  0
 45114  1  0  0  0
 46115  1  0  0  0
 47116  1  0  0  0
 47117  1  0  0  0
 48 56  1  0  0  0
 48 65  1  0  0  0
 48118  1  0  0  0
 49 50  1  0  0  0
 49 53  1  0  0  0
 49 64  1  0  0  0
 49119  1  0  0  0
 50 51  1  0  0  0
 50120  1  0  0  0
 50121  1  0  0  0
 51 52  1  0  0  0
 51122  1  0  0  0
 51123  1  0  0  0
 52124  1  0  0  0
 52125  1  0  0  0
 53 54  1  0  0  0
 54 55  2  0  0  0
 54126  1  0  0  0
 55 57  1  0  0  0
 55127  1  0  0  0
 56 69  2  0  0  0
 57 58  2  0  0  0
 57128  1  0  0  0
 58129  1  0  0  0
 59 60  1  0  0  0
 59 61  1  0  0  0
 59 62  1  0  0  0
 60130  1  0  0  0
 60131  1  0  0  0
 60132  1  0  0  0
 61133  1  0  0  0
 61134  1  0  0  0
 61135  1  0  0  0
 62136  1  0  0  0
 62137  1  0  0  0
 62138  1  0  0  0
 63 65  1  0  0  0
 63139  1  0  0  0
 63140  1  0  0  0
 63141  1  0  0  0
 64142  1  0  0  0
 65143  1  0  0  0
 68 81  1  0  0  0
 71 73  1  0  0  0
 71 82  2  0  0  0
 71144  1  0  0  0
 72 73  2  0  0  0
 72 83  1  0  0  0
 72145  1  0  0  0
 73 75  1  0  0  0
 74 76  1  0  0  0
 74146  1  0  0  0
 74147  1  0  0  0
 74148  1  0  0  0
 75 84  1  0  0  0
 75149  1  0  0  0
 75150  1  0  0  0
 76 80  1  0  0  0
 76151  1  0  0  0
 76152  1  0  0  0
 77 78  1  0  0  0
 77 79  1  0  0  0
 77153  1  0  0  0
 77154  1  0  0  0
 78 81  1  0  0  0
 78155  1  0  0  0
 78156  1  0  0  0
 79 83  1  0  0  0
 79157  1  0  0  0
 79158  1  0  0  0
 80 84  1  0  0  0
 80159  1  0  0  0
 80160  1  0  0  0
 81161  1  0  0  0
 81162  1  0  0  0
 82 83  1  0  0  0
M  ISO  4   1 100  68 101  81 101  84 100
M  END
> <chiral flag>
0

> <version>
0

> <s_m_source_file>
/data/baiqing/PycharmProjects/Reinvent-master-3.2/result/LINK_invent/BTK/process_docking_weight1_custom_sum_contain_oxygen_bond_distance_aromatic_linkinvent_7_9_3/rearranged_h_0052.sdf

> <i_m_source_file_index>
19

> <r_mmod_Potential_Energy-OPLS-2005>
195.723556518555

> <r_mmod_Stretch_Energy-OPLS-2005>
61.6143417358398

> <r_mmod_Bend_Energy-OPLS-2005>
148.512664794922

> <r_mmod_Torsional_Energy-OPLS-2005>
292.644653320312

> <r_mmod_Improper_Torsional_Energy-OPLS-2005>
5.50136184692383

> <r_mmod_Van_der_Waal_Energy-OPLS-2005>
137.642120361328

> <r_mmod_Electrostatic_Energy-OPLS-2005>
-272.732482910156

> <r_mmod_Solvation_Energy-OPLS-2005>
-205.306533813477

> <b_mmod_Minimization_Converged-OPLS-2005>
0

> <r_mmod_RMS_Derivative-OPLS-2005>
6.80416011810303

$$$$
19
                    3D
 Structure written by MMmdl.
157165  0  0  1  0            999 V2000
  -30.5902  -14.9994   20.3234 C   0  0  0  0  0  0
  -30.4335  -12.6132   19.4901 C   0  0  0  0  0  0
  -29.5153  -12.4960   18.2532 C   0  0  0  0  0  0
  -28.0592  -12.2456   18.6880 C   0  0  0  0  0  0
  -27.6091  -13.2104   19.8108 C   0  0  2  0  0  0
  -28.6626  -13.3735   20.9291 C   0  0  0  0  0  0
  -25.2438  -13.8067   20.5743 C   0  0  0  0  0  0
  -24.1741  -13.0353   20.9282 C   0  0  0  0  0  0
  -24.6330  -11.6831   20.8817 C   0  0  0  0  0  0
  -23.9015  -10.4239   21.0455 C   0  0  0  0  0  0
  -24.3583   -9.4157   21.9217 C   0  0  0  0  0  0
  -23.6266   -8.2194   22.0767 C   0  0  0  0  0  0
  -22.4250   -8.0248   21.3548 C   0  0  0  0  0  0
  -21.9881   -9.0222   20.4653 C   0  0  0  0  0  0
  -22.7205  -10.2101   20.3081 C   0  0  0  0  0  0
  -21.6835   -6.0714   22.5277 C   0  0  0  0  0  0
  -21.4000   -6.5628   23.8204 C   0  0  0  0  0  0
  -21.3656   -5.6786   24.9170 C   0  0  0  0  0  0
  -21.6049   -4.3051   24.7227 C   0  0  0  0  0  0
  -21.8823   -3.8137   23.4350 C   0  0  0  0  0  0
  -21.9189   -4.6946   22.3402 C   0  0  0  0  0  0
  -22.7776  -13.5181   21.1902 C   0  0  0  0  0  0
  -22.1659   -4.2133   21.0980 F   0  0  0  0  0  0
  -21.5636   -3.4538   25.7744 F   0  0  0  0  0  0
  -29.9399  -13.7585   20.3091 N   0  0  0  0  0  0
  -26.2804  -12.9214   20.3238 N   0  0  0  0  0  0
  -25.9243  -11.6396   20.5790 N   0  0  0  0  0  0
  -22.0394  -12.8204   22.0452 N   0  0  0  0  0  0
  -25.4078  -15.1791   20.4120 N   0  0  0  0  0  0
  -31.8221  -14.9188   20.3028 O   0  0  0  0  0  0
  -21.6614   -6.8851   21.4241 O   0  0  0  0  0  0
  -22.3495  -14.5487   20.6718 O   0  0  0  0  0  0
  -24.6433  -31.8446   23.1885 C   0  0  0  0  0  0
  -25.9200  -32.4696   23.8278 C   0  0  1  0  0  0
  -27.2200  -27.1405   20.1549 C   0  0  0  0  0  0
  -25.5949  -33.8500   24.2196 N   0  0  0  0  0  0
  -23.4468  -30.4634   21.5346 C   0  0  2  0  0  0
  -24.8965  -28.8899   20.1139 C   0  0  0  0  0  0
  -22.7563  -29.4542   22.4863 C   0  0  0  0  0  0
  -18.0304  -28.1385   22.8483 C   0  0  0  0  0  0
  -24.1489  -36.7260   23.2645 C   0  0  0  0  0  0
  -26.0022  -30.7202   21.3867 C   0  0  0  0  0  0
  -26.0741  -29.3310   20.7306 C   0  0  0  0  0  0
  -27.2370  -28.4738   20.7316 C   0  0  0  0  0  0
  -26.0157  -26.7999   19.4996 C   0  0  0  0  0  0
  -24.8799  -27.6374   19.4835 C   0  0  0  0  0  0
  -23.6731  -29.7920   20.1543 C   0  0  0  0  0  0
  -25.4122  -36.3036   24.0318 C   0  0  1  0  0  0
  -20.5916  -28.3709   23.1240 C   0  0  2  0  0  0
  -20.6787  -26.9411   22.5404 C   0  0  0  0  0  0
  -19.5760  -26.6372   21.5211 C   0  0  0  0  0  0
  -18.1942  -26.7924   22.1622 C   0  0  0  0  0  0
  -19.1560  -28.8867   23.2852 C   0  0  0  0  0  0
  -18.9478  -30.1465   23.8877 C   0  0  0  0  0  0
  -17.6473  -30.6586   24.0557 C   0  0  0  0  0  0
  -25.9070  -34.9408   23.5067 C   0  0  0  0  0  0
  -16.5366  -29.9077   23.6334 C   0  0  0  0  0  0
  -16.7290  -28.6496   23.0360 C   0  0  0  0  0  0
  -26.4521  -31.6565   25.0721 C   0  0  0  0  0  0
  -25.3707  -31.3754   26.1419 C   0  0  0  0  0  0
  -27.0391  -30.2964   24.6302 C   0  0  0  0  0  0
  -27.6050  -32.4334   25.7508 C   0  0  0  0  0  0
  -27.5573  -37.1787   24.8466 C   0  0  0  0  0  0
  -21.4255  -29.3041   22.3615 N   0  0  0  0  0  0
  -26.4287  -37.3748   23.9406 N   0  0  0  0  0  0
  -24.7174  -31.0304   22.0916 N   0  0  0  0  0  0
  -23.4214  -28.8085   23.3000 O   0  0  0  0  0  0
  -28.2899  -26.1741   20.1949 O   0  0  0  0  0  0
  -26.5658  -34.8907   22.4647 O   0  0  0  0  0  0
  -23.5554  -32.1309   23.7111 O   0  0  0  0  0  0
  -30.0002  -20.6928   20.4696 C   0  0  0  0  0  0
  -29.0149  -21.7896   20.3162 C   0  0  0  0  0  0
  -29.3949  -19.4140   20.5475 C   0  0  0  0  0  0
  -28.6009  -16.4010   19.2567 C   0  0  0  0  0  0
  -30.8959  -17.0008   18.7535 C   0  0  0  0  0  0
  -26.8684  -18.9764   20.5378 C   0  0  0  0  0  0
  -29.1792  -23.4211   20.1045 C   0  0  0  0  0  0
  -29.9198  -17.8837   20.8996 C   0  0  0  0  0  0
  -28.0411  -24.6373   20.3231 C   0  0  0  0  0  0
  -29.9746  -16.5273   19.9091 C   0  0  0  0  0  0
  -27.8422  -21.1639   20.2544 N   0  0  0  0  0  0
  -28.0530  -19.8067   20.4375 N   0  0  0  0  0  0
  -31.4653  -12.7562   19.1656 H   0  0  0  0  0  0
  -30.4270  -11.6900   20.0721 H   0  0  0  0  0  0
  -29.8548  -11.6873   17.6049 H   0  0  0  0  0  0
  -29.5756  -13.4106   17.6614 H   0  0  0  0  0  0
  -27.9937  -11.2164   19.0424 H   0  0  0  0  0  0
  -27.3891  -12.3157   17.8304 H   0  0  0  0  0  0
  -27.4919  -14.1445   19.2902 H   0  0  0  0  0  0
  -28.7718  -12.4508   21.5002 H   0  0  0  0  0  0
  -28.3494  -14.1439   21.6353 H   0  0  0  0  0  0
  -25.2724   -9.5637   22.4795 H   0  0  0  0  0  0
  -23.9974   -7.4577   22.7480 H   0  0  0  0  0  0
  -21.0814   -8.8744   19.8951 H   0  0  0  0  0  0
  -22.3674  -10.9650   19.6197 H   0  0  0  0  0  0
  -21.1980   -7.6132   23.9706 H   0  0  0  0  0  0
  -21.1480   -6.0514   25.9073 H   0  0  0  0  0  0
  -22.0608   -2.7599   23.2857 H   0  0  0  0  0  0
  -22.3993  -11.9871   22.4862 H   0  0  0  0  0  0
  -21.1014  -13.1257   22.2632 H   0  0  0  0  0  0
  -24.6359  -15.8280   20.5163 H   0  0  0  0  0  0
  -26.2468  -15.6126   20.0529 H   0  0  0  0  0  0
  -26.7266  -32.5308   23.1010 H   0  0  0  0  0  0
  -25.0069  -33.9613   25.0327 H   0  0  0  0  0  0
  -22.7499  -31.2895   21.3797 H   0  0  0  0  0  0
  -23.3754  -35.9586   23.3298 H   0  0  0  0  0  0
  -24.3576  -36.8901   22.2060 H   0  0  0  0  0  0
  -23.7234  -37.6452   23.6686 H   0  0  0  0  0  0
  -26.1559  -31.4734   20.6131 H   0  0  0  0  0  0
  -26.8736  -30.7716   22.0278 H   0  0  0  0  0  0
  -28.1366  -28.8102   21.2278 H   0  0  0  0  0  0
  -25.9191  -25.8526   18.9931 H   0  0  0  0  0  0
  -23.9825  -27.2960   18.9861 H   0  0  0  0  0  0
  -23.8099  -30.5660   19.3977 H   0  0  0  0  0  0
  -22.7882  -29.2335   19.8443 H   0  0  0  0  0  0
  -25.1306  -36.1873   25.0810 H   0  0  0  0  0  0
  -21.0010  -28.3291   24.1360 H   0  0  0  0  0  0
  -20.5671  -26.2318   23.3618 H   0  0  0  0  0  0
  -21.6654  -26.7405   22.1208 H   0  0  0  0  0  0
  -19.6919  -25.6277   21.1254 H   0  0  0  0  0  0
  -19.6698  -27.3171   20.6733 H   0  0  0  0  0  0
  -17.4206  -26.6665   21.4028 H   0  0  0  0  0  0
  -18.0342  -26.0070   22.9023 H   0  0  0  0  0  0
  -19.7954  -30.7281   24.2239 H   0  0  0  0  0  0
  -17.5029  -31.6266   24.5153 H   0  0  0  0  0  0
  -15.5366  -30.2974   23.7669 H   0  0  0  0  0  0
  -15.8688  -28.0804   22.7095 H   0  0  0  0  0  0
  -24.5895  -30.7088   25.7744 H   0  0  0  0  0  0
  -24.8885  -32.2934   26.4789 H   0  0  0  0  0  0
  -25.7995  -30.8969   27.0234 H   0  0  0  0  0  0
  -26.3014  -29.6685   24.1296 H   0  0  0  0  0  0
  -27.3989  -29.7265   25.4878 H   0  0  0  0  0  0
  -27.8923  -30.4203   23.9631 H   0  0  0  0  0  0
  -27.2642  -33.3655   26.2029 H   0  0  0  0  0  0
  -28.3894  -32.6860   25.0359 H   0  0  0  0  0  0
  -28.0682  -31.8497   26.5475 H   0  0  0  0  0  0
  -28.2586  -38.0089   24.7511 H   0  0  0  0  0  0
  -28.1074  -36.2617   24.6298 H   0  0  0  0  0  0
  -27.2291  -37.1442   25.8870 H   0  0  0  0  0  0
  -20.9460  -29.8773   21.6814 H   0  0  0  0  0  0
  -26.0157  -38.2817   24.1410 H   0  0  0  0  0  0
  -31.0682  -20.8444   20.5430 H   0  0  0  0  0  0
  -28.2907  -17.3365   18.7927 H   0  0  0  0  0  0
  -27.8546  -16.1444   20.0019 H   0  0  0  0  0  0
  -28.6158  -15.6684   18.4509 H   0  0  0  0  0  0
  -30.5100  -17.8945   18.2615 H   0  0  0  0  0  0
  -31.0091  -16.2359   17.9827 H   0  0  0  0  0  0
  -31.8963  -17.2473   19.1133 H   0  0  0  0  0  0
  -26.5332  -18.6843   19.5424 H   0  0  0  0  0  0
  -26.0643  -19.5244   21.0296 H   0  0  0  0  0  0
  -27.0760  -18.0857   21.1291 H   0  0  0  0  0  0
  -29.5476  -23.5582   19.0876 H   0  0  0  0  0  0
  -30.0262  -23.7179   20.7223 H   0  0  0  0  0  0
  -30.9293  -17.9963   21.2960 H   0  0  0  0  0  0
  -29.3532  -17.5700   21.7763 H   0  0  0  0  0  0
  -27.6330  -24.5015   21.3245 H   0  0  0  0  0  0
  -27.2268  -24.3663   19.6562 H   0  0  0  0  0  0
  1 25  1  0  0  0
  1 30  2  0  0  0
  1 80  1  0  0  0
  2  3  1  0  0  0
  2 25  1  0  0  0
  2 83  1  0  0  0
  2 84  1  0  0  0
  3  4  1  0  0  0
  3 85  1  0  0  0
  3 86  1  0  0  0
  4  5  1  0  0  0
  4 87  1  0  0  0
  4 88  1  0  0  0
  5  6  1  0  0  0
  5 26  1  0  0  0
  5 89  1  0  0  0
  6 25  1  0  0  0
  6 90  1  0  0  0
  6 91  1  0  0  0
  7  8  2  0  0  0
  7 26  1  0  0  0
  7 29  1  0  0  0
  8  9  1  0  0  0
  8 22  1  0  0  0
  9 10  1  0  0  0
  9 27  2  0  0  0
 10 11  2  0  0  0
 10 15  1  0  0  0
 11 12  1  0  0  0
 11 92  1  0  0  0
 12 13  2  0  0  0
 12 93  1  0  0  0
 13 14  1  0  0  0
 13 31  1  0  0  0
 14 15  2  0  0  0
 14 94  1  0  0  0
 15 95  1  0  0  0
 16 17  2  0  0  0
 16 21  1  0  0  0
 16 31  1  0  0  0
 17 18  1  0  0  0
 17 96  1  0  0  0
 18 19  2  0  0  0
 18 97  1  0  0  0
 19 20  1  0  0  0
 19 24  1  0  0  0
 20 21  2  0  0  0
 20 98  1  0  0  0
 21 23  1  0  0  0
 22 28  1  0  0  0
 22 32  2  0  0  0
 26 27  1  0  0  0
 28 99  1  0  0  0
 28100  1  0  0  0
 29101  1  0  0  0
 29102  1  0  0  0
 33 34  1  0  0  0
 33 66  1  0  0  0
 33 70  2  0  0  0
 34 36  1  0  0  0
 34 59  1  0  0  0
 34103  1  0  0  0
 35 44  2  0  0  0
 35 45  1  0  0  0
 35 68  1  0  0  0
 36 56  1  0  0  0
 36104  1  0  0  0
 37 39  1  0  0  0
 37 47  1  0  0  0
 37 66  1  0  0  0
 37105  1  0  0  0
 38 43  2  0  0  0
 38 46  1  0  0  0
 38 47  1  0  0  0
 39 64  1  0  0  0
 39 67  2  0  0  0
 40 52  1  0  0  0
 40 53  2  0  0  0
 40 58  1  0  0  0
 41106  1  0  0  0
 41107  1  0  0  0
 41108  1  0  0  0
 41 48  1  0  0  0
 42 43  1  0  0  0
 42 66  1  0  0  0
 42109  1  0  0  0
 42110  1  0  0  0
 43 44  1  0  0  0
 44111  1  0  0  0
 45 46  2  0  0  0
 45112  1  0  0  0
 46113  1  0  0  0
 47114  1  0  0  0
 47115  1  0  0  0
 48 56  1  0  0  0
 48 65  1  0  0  0
 48116  1  0  0  0
 49 50  1  0  0  0
 49 53  1  0  0  0
 49 64  1  0  0  0
 49117  1  0  0  0
 50 51  1  0  0  0
 50118  1  0  0  0
 50119  1  0  0  0
 51 52  1  0  0  0
 51120  1  0  0  0
 51121  1  0  0  0
 52122  1  0  0  0
 52123  1  0  0  0
 53 54  1  0  0  0
 54 55  2  0  0  0
 54124  1  0  0  0
 55 57  1  0  0  0
 55125  1  0  0  0
 56 69  2  0  0  0
 57 58  2  0  0  0
 57126  1  0  0  0
 58127  1  0  0  0
 59 60  1  0  0  0
 59 61  1  0  0  0
 59 62  1  0  0  0
 60128  1  0  0  0
 60129  1  0  0  0
 60130  1  0  0  0
 61131  1  0  0  0
 61132  1  0  0  0
 61133  1  0  0  0
 62134  1  0  0  0
 62135  1  0  0  0
 62136  1  0  0  0
 63 65  1  0  0  0
 63137  1  0  0  0
 63138  1  0  0  0
 63139  1  0  0  0
 64140  1  0  0  0
 65141  1  0  0  0
 68 79  1  0  0  0
 71 72  1  0  0  0
 71 73  2  0  0  0
 71142  1  0  0  0
 72 77  1  0  0  0
 72 81  2  0  0  0
 73 78  1  0  0  0
 73 82  1  0  0  0
 74143  1  0  0  0
 74144  1  0  0  0
 74145  1  0  0  0
 74 80  1  0  0  0
 75 80  1  0  0  0
 75146  1  0  0  0
 75147  1  0  0  0
 75148  1  0  0  0
 76 82  1  0  0  0
 76149  1  0  0  0
 76150  1  0  0  0
 76151  1  0  0  0
 77 79  1  0  0  0
 77152  1  0  0  0
 77153  1  0  0  0
 78 80  1  0  0  0
 78154  1  0  0  0
 78155  1  0  0  0
 79156  1  0  0  0
 79157  1  0  0  0
 81 82  1  0  0  0
M  ISO  4   1 100  68 101  79 101  80 100
M  END
> <chiral flag>
0

> <version>
0

> <s_m_source_file>
/data/baiqing/PycharmProjects/Reinvent-master-3.2/result/LINK_invent/BTK/process_docking_weight1_custom_sum_contain_oxygen_bond_distance_aromatic_linkinvent_7_9_3/rearranged_h_0052.sdf

> <i_m_source_file_index>
20

> <r_mmod_Potential_Energy-OPLS-2005>
591.22900390625

> <r_mmod_Stretch_Energy-OPLS-2005>
267.087127685547

> <r_mmod_Bend_Energy-OPLS-2005>
284.72900390625

> <r_mmod_Torsional_Energy-OPLS-2005>
233.703430175781

> <r_mmod_Improper_Torsional_Energy-OPLS-2005>
12.9077205657959

> <r_mmod_Van_der_Waal_Energy-OPLS-2005>
117.159408569336

> <r_mmod_Electrostatic_Energy-OPLS-2005>
-338.075775146484

> <r_mmod_Solvation_Energy-OPLS-2005>
-204.579360961914

> <b_mmod_Minimization_Converged-OPLS-2005>
0

> <r_mmod_RMS_Derivative-OPLS-2005>
0.894211828708649

$$$$
20
                    3D
 Structure written by MMmdl.
160168  0  0  1  0            999 V2000
  -30.6681  -14.8005   20.3903 C   0  0  0  0  0  0
  -30.4140  -12.4789   19.4902 C   0  0  0  0  0  0
  -29.5152  -12.4365   18.2246 C   0  0  0  0  0  0
  -28.0238  -12.7531   18.5070 C   0  0  0  0  0  0
  -27.7131  -12.7713   20.0086 C   0  0  2  0  0  0
  -28.6912  -13.3998   20.9996 C   0  0  0  0  0  0
  -25.3115  -13.7559   20.5566 C   0  0  0  0  0  0
  -24.1882  -13.0395   20.9090 C   0  0  0  0  0  0
  -24.5784  -11.6704   20.8891 C   0  0  0  0  0  0
  -23.8490  -10.4229   21.0648 C   0  0  0  0  0  0
  -24.3258   -9.4173   21.9350 C   0  0  0  0  0  0
  -23.6119   -8.2118   22.0794 C   0  0  0  0  0  0
  -22.4121   -8.0151   21.3562 C   0  0  0  0  0  0
  -21.9637   -9.0102   20.4692 C   0  0  0  0  0  0
  -22.6785  -10.2064   20.3189 C   0  0  0  0  0  0
  -21.6786   -6.0651   22.5281 C   0  0  0  0  0  0
  -21.3963   -6.5589   23.8201 C   0  0  0  0  0  0
  -21.3639   -5.6751   24.9162 C   0  0  0  0  0  0
  -21.6048   -4.3020   24.7229 C   0  0  0  0  0  0
  -21.8840   -3.8099   23.4357 C   0  0  0  0  0  0
  -21.9177   -4.6896   22.3405 C   0  0  0  0  0  0
  -22.8023  -13.5553   21.1737 C   0  0  0  0  0  0
  -22.1685   -4.2091   21.0979 F   0  0  0  0  0  0
  -21.5642   -3.4526   25.7759 F   0  0  0  0  0  0
  -29.9854  -13.6118   20.3449 N   0  0  0  0  0  0
  -26.3084  -12.7916   20.3798 N   0  0  0  0  0  0
  -25.8438  -11.5553   20.6007 N   0  0  0  0  0  0
  -22.0508  -12.8656   22.0271 N   0  0  0  0  0  0
  -25.5544  -15.1138   20.3806 N   0  0  0  0  0  0
  -31.8921  -14.8193   20.2526 O   0  0  0  0  0  0
  -21.6558   -6.8730   21.4213 O   0  0  0  0  0  0
  -22.3899  -14.5907   20.6555 O   0  0  0  0  0  0
  -24.6293  -31.8569   23.2001 C   0  0  0  0  0  0
  -25.9124  -32.4762   23.8351 C   0  0  1  0  0  0
  -27.2218  -27.2832   20.1492 C   0  0  0  0  0  0
  -25.5939  -33.8566   24.2277 N   0  0  0  0  0  0
  -23.4272  -30.4778   21.5447 C   0  0  2  0  0  0
  -24.8787  -28.9307   20.1100 C   0  0  0  0  0  0
  -22.7496  -29.4599   22.4936 C   0  0  0  0  0  0
  -18.0292  -28.1387   22.8484 C   0  0  0  0  0  0
  -24.1498  -36.7267   23.2641 C   0  0  0  0  0  0
  -25.9706  -30.7790   21.3770 C   0  0  0  0  0  0
  -26.0476  -29.4036   20.7205 C   0  0  0  0  0  0
  -27.2280  -28.5944   20.7239 C   0  0  0  0  0  0
  -26.0367  -26.8760   19.4992 C   0  0  0  0  0  0
  -24.8767  -27.6747   19.4837 C   0  0  0  0  0  0
  -23.6457  -29.8123   20.1596 C   0  0  0  0  0  0
  -25.4123  -36.3068   24.0332 C   0  0  1  0  0  0
  -20.5893  -28.3692   23.1273 C   0  0  2  0  0  0
  -20.6775  -26.9413   22.5408 C   0  0  0  0  0  0
  -19.5754  -26.6384   21.5212 C   0  0  0  0  0  0
  -18.1937  -26.7930   22.1625 C   0  0  0  0  0  0
  -19.1546  -28.8859   23.2875 C   0  0  0  0  0  0
  -18.9468  -30.1459   23.8892 C   0  0  0  0  0  0
  -17.6467  -30.6590   24.0556 C   0  0  0  0  0  0
  -25.9059  -34.9438   23.5106 C   0  0  0  0  0  0
  -16.5357  -29.9085   23.6325 C   0  0  0  0  0  0
  -16.7277  -28.6499   23.0351 C   0  0  0  0  0  0
  -26.4503  -31.6577   25.0723 C   0  0  0  0  0  0
  -25.3734  -31.3709   26.1449 C   0  0  0  0  0  0
  -27.0340  -30.2997   24.6170 C   0  0  0  0  0  0
  -27.6060  -32.4307   25.7491 C   0  0  0  0  0  0
  -27.5581  -37.1795   24.8471 C   0  0  0  0  0  0
  -21.4204  -29.3040   22.3669 N   0  0  0  0  0  0
  -26.4300  -37.3761   23.9407 N   0  0  0  0  0  0
  -24.6950  -31.0541   22.0985 N   0  0  0  0  0  0
  -23.4187  -28.8147   23.3044 O   0  0  0  0  0  0
  -28.2946  -26.3704   20.2024 O   0  0  0  0  0  0
  -26.5622  -34.8907   22.4670 O   0  0  0  0  0  0
  -23.5437  -32.1398   23.7288 O   0  0  0  0  0  0
  -29.6547  -23.3847   19.5686 C   0  0  0  0  0  0
  -28.7568  -23.7287   20.5528 C   0  0  0  0  0  0
  -29.3549  -21.4869   20.7549 C   0  0  0  0  0  0
  -26.3895  -21.7122   22.1094 C   0  0  0  0  0  0
  -29.4520  -16.2155   18.8689 C   0  0  0  0  0  0
  -28.0000  -25.0688   20.8812 C   0  0  0  0  0  0
  -29.5811  -20.0246   21.3104 C   0  0  0  0  0  0
  -29.7004  -18.7274   20.3639 C   0  0  0  0  0  0
  -27.7542  -22.3260   22.4559 C   0  0  0  0  0  0
  -30.0787  -17.2839   21.0219 C   0  0  0  0  0  0
  -28.6042  -22.5178   21.2672 N   0  0  0  0  0  0
  -29.9951  -22.0517   19.7226 N   0  3  0  0  0  0
  -29.9319  -15.9778   20.2353 N   0  0  0  0  0  0
  -31.4659  -12.5503   19.2064 H   0  0  0  0  0  0
  -30.3225  -11.5498   20.0558 H   0  0  0  0  0  0
  -29.5958  -11.4444   17.7790 H   0  0  0  0  0  0
  -29.8945  -13.1278   17.4703 H   0  0  0  0  0  0
  -27.3811  -12.0384   17.9910 H   0  0  0  0  0  0
  -27.7648  -13.7237   18.0851 H   0  0  0  0  0  0
  -28.0101  -11.7348   20.1957 H   0  0  0  0  0  0
  -28.8212  -12.7722   21.8842 H   0  0  0  0  0  0
  -28.2795  -14.3388   21.3698 H   0  0  0  0  0  0
  -25.2394   -9.5733   22.4922 H   0  0  0  0  0  0
  -23.9953   -7.4483   22.7434 H   0  0  0  0  0  0
  -21.0614   -8.8533   19.8950 H   0  0  0  0  0  0
  -22.3226  -10.9632   19.6341 H   0  0  0  0  0  0
  -21.1957   -7.6093   23.9697 H   0  0  0  0  0  0
  -21.1440   -6.0476   25.9059 H   0  0  0  0  0  0
  -22.0650   -2.7575   23.2863 H   0  0  0  0  0  0
  -22.3946  -12.0255   22.4678 H   0  0  0  0  0  0
  -21.1191  -13.1891   22.2456 H   0  0  0  0  0  0
  -24.8286  -15.8153   20.4556 H   0  0  0  0  0  0
  -26.4494  -15.4877   20.0869 H   0  0  0  0  0  0
  -26.7191  -32.5410   23.1093 H   0  0  0  0  0  0
  -25.0086  -33.9715   25.0423 H   0  0  0  0  0  0
  -22.7226  -31.2994   21.3980 H   0  0  0  0  0  0
  -23.3765  -35.9598   23.3313 H   0  0  0  0  0  0
  -24.3585  -36.8868   22.2050 H   0  0  0  0  0  0
  -23.7249  -37.6471   23.6656 H   0  0  0  0  0  0
  -26.1030  -31.5410   20.6074 H   0  0  0  0  0  0
  -26.8506  -30.8289   22.0069 H   0  0  0  0  0  0
  -28.1239  -28.9511   21.2121 H   0  0  0  0  0  0
  -25.9921  -25.9080   19.0221 H   0  0  0  0  0  0
  -23.9841  -27.3077   18.9962 H   0  0  0  0  0  0
  -23.7679  -30.5893   19.4047 H   0  0  0  0  0  0
  -22.7655  -29.2423   19.8545 H   0  0  0  0  0  0
  -25.1301  -36.1925   25.0824 H   0  0  0  0  0  0
  -20.9990  -28.3280   24.1391 H   0  0  0  0  0  0
  -20.5670  -26.2312   23.3621 H   0  0  0  0  0  0
  -21.6646  -26.7437   22.1207 H   0  0  0  0  0  0
  -19.6922  -25.6293   21.1246 H   0  0  0  0  0  0
  -19.6686  -27.3195   20.6743 H   0  0  0  0  0  0
  -17.4203  -26.6674   21.4030 H   0  0  0  0  0  0
  -18.0332  -26.0080   22.9025 H   0  0  0  0  0  0
  -19.7943  -30.7275   24.2265 H   0  0  0  0  0  0
  -17.5015  -31.6267   24.5163 H   0  0  0  0  0  0
  -15.5354  -30.2981   23.7649 H   0  0  0  0  0  0
  -15.8679  -28.0807   22.7074 H   0  0  0  0  0  0
  -24.5928  -30.7035   25.7776 H   0  0  0  0  0  0
  -24.8913  -32.2874   26.4859 H   0  0  0  0  0  0
  -25.8070  -30.8901   27.0232 H   0  0  0  0  0  0
  -26.2921  -29.6756   24.1174 H   0  0  0  0  0  0
  -27.4025  -29.7231   25.4663 H   0  0  0  0  0  0
  -27.8793  -30.4270   23.9406 H   0  0  0  0  0  0
  -27.2674  -33.3610   26.2064 H   0  0  0  0  0  0
  -28.3877  -32.6861   25.0325 H   0  0  0  0  0  0
  -28.0730  -31.8439   26.5413 H   0  0  0  0  0  0
  -28.2606  -38.0081   24.7497 H   0  0  0  0  0  0
  -28.1076  -36.2608   24.6337 H   0  0  0  0  0  0
  -27.2296  -37.1484   25.8876 H   0  0  0  0  0  0
  -20.9415  -29.8739   21.6839 H   0  0  0  0  0  0
  -26.0177  -38.2837   24.1401 H   0  0  0  0  0  0
  -30.0823  -23.9916   18.7822 H   0  0  0  0  0  0
  -25.7907  -21.5793   23.0111 H   0  0  0  0  0  0
  -26.4933  -20.7320   21.6421 H   0  0  0  0  0  0
  -25.8259  -22.3502   21.4269 H   0  0  0  0  0  0
  -28.4829  -16.7133   18.8591 H   0  0  0  0  0  0
  -29.3311  -15.2992   18.2962 H   0  0  0  0  0  0
  -30.1713  -16.8178   18.3117 H   0  0  0  0  0  0
  -28.1591  -25.2703   21.9414 H   0  0  0  0  0  0
  -26.9383  -24.8343   20.8062 H   0  0  0  0  0  0
  -28.7662  -19.8386   22.0083 H   0  0  0  0  0  0
  -30.4767  -20.1011   21.9283 H   0  0  0  0  0  0
  -30.4319  -18.9385   19.5820 H   0  0  0  0  0  0
  -28.7398  -18.6550   19.8575 H   0  0  0  0  0  0
  -28.2902  -21.7017   23.1725 H   0  0  0  0  0  0
  -27.6194  -23.2854   22.9531 H   0  0  0  0  0  0
  -31.1001  -17.3387   21.4043 H   0  0  0  0  0  0
  -29.4499  -17.1559   21.9055 H   0  0  0  0  0  0
  -30.6746  -21.5704   19.1461 H   0  0  0  0  0  0
  1 25  1  0  0  0
  1 30  2  0  0  0
  1 83  1  0  0  0
  2  3  1  0  0  0
  2 25  1  0  0  0
  2 84  1  0  0  0
  2 85  1  0  0  0
  3  4  1  0  0  0
  3 86  1  0  0  0
  3 87  1  0  0  0
  4  5  1  0  0  0
  4 88  1  0  0  0
  4 89  1  0  0  0
  5  6  1  0  0  0
  5 26  1  0  0  0
  5 90  1  0  0  0
  6 25  1  0  0  0
  6 91  1  0  0  0
  6 92  1  0  0  0
  7  8  2  0  0  0
  7 26  1  0  0  0
  7 29  1  0  0  0
  8  9  1  0  0  0
  8 22  1  0  0  0
  9 10  1  0  0  0
  9 27  2  0  0  0
 10 11  2  0  0  0
 10 15  1  0  0  0
 11 12  1  0  0  0
 11 93  1  0  0  0
 12 13  2  0  0  0
 12 94  1  0  0  0
 13 14  1  0  0  0
 13 31  1  0  0  0
 14 15  2  0  0  0
 14 95  1  0  0  0
 15 96  1  0  0  0
 16 17  2  0  0  0
 16 21  1  0  0  0
 16 31  1  0  0  0
 17 18  1  0  0  0
 17 97  1  0  0  0
 18 19  2  0  0  0
 18 98  1  0  0  0
 19 20  1  0  0  0
 19 24  1  0  0  0
 20 21  2  0  0  0
 20 99  1  0  0  0
 21 23  1  0  0  0
 22 28  1  0  0  0
 22 32  2  0  0  0
 26 27  1  0  0  0
 28100  1  0  0  0
 28101  1  0  0  0
 29102  1  0  0  0
 29103  1  0  0  0
 33 34  1  0  0  0
 33 66  1  0  0  0
 33 70  2  0  0  0
 34 36  1  0  0  0
 34 59  1  0  0  0
 34104  1  0  0  0
 35 44  2  0  0  0
 35 45  1  0  0  0
 35 68  1  0  0  0
 36 56  1  0  0  0
 36105  1  0  0  0
 37 39  1  0  0  0
 37 47  1  0  0  0
 37 66  1  0  0  0
 37106  1  0  0  0
 38 43  2  0  0  0
 38 46  1  0  0  0
 38 47  1  0  0  0
 39 64  1  0  0  0
 39 67  2  0  0  0
 40 52  1  0  0  0
 40 53  2  0  0  0
 40 58  1  0  0  0
 41107  1  0  0  0
 41108  1  0  0  0
 41109  1  0  0  0
 41 48  1  0  0  0
 42 43  1  0  0  0
 42 66  1  0  0  0
 42110  1  0  0  0
 42111  1  0  0  0
 43 44  1  0  0  0
 44112  1  0  0  0
 45 46  2  0  0  0
 45113  1  0  0  0
 46114  1  0  0  0
 47115  1  0  0  0
 47116  1  0  0  0
 48 56  1  0  0  0
 48 65  1  0  0  0
 48117  1  0  0  0
 49 50  1  0  0  0
 49 53  1  0  0  0
 49 64  1  0  0  0
 49118  1  0  0  0
 50 51  1  0  0  0
 50119  1  0  0  0
 50120  1  0  0  0
 51 52  1  0  0  0
 51121  1  0  0  0
 51122  1  0  0  0
 52123  1  0  0  0
 52124  1  0  0  0
 53 54  1  0  0  0
 54 55  2  0  0  0
 54125  1  0  0  0
 55 57  1  0  0  0
 55126  1  0  0  0
 56 69  2  0  0  0
 57 58  2  0  0  0
 57127  1  0  0  0
 58128  1  0  0  0
 59 60  1  0  0  0
 59 61  1  0  0  0
 59 62  1  0  0  0
 60129  1  0  0  0
 60130  1  0  0  0
 60131  1  0  0  0
 61132  1  0  0  0
 61133  1  0  0  0
 61134  1  0  0  0
 62135  1  0  0  0
 62136  1  0  0  0
 62137  1  0  0  0
 63 65  1  0  0  0
 63138  1  0  0  0
 63139  1  0  0  0
 63140  1  0  0  0
 64141  1  0  0  0
 65142  1  0  0  0
 68 76  1  0  0  0
 71 72  2  0  0  0
 71 82  1  0  0  0
 71143  1  0  0  0
 72 76  1  0  0  0
 72 81  1  0  0  0
 73 77  1  0  0  0
 73 81  1  0  0  0
 73 82  2  0  0  0
 74 79  1  0  0  0
 74144  1  0  0  0
 74145  1  0  0  0
 74146  1  0  0  0
 75 83  1  0  0  0
 75147  1  0  0  0
 75148  1  0  0  0
 75149  1  0  0  0
 76150  1  0  0  0
 76151  1  0  0  0
 77 78  1  0  0  0
 77152  1  0  0  0
 77153  1  0  0  0
 78 80  1  0  0  0
 78154  1  0  0  0
 78155  1  0  0  0
 79 81  1  0  0  0
 79156  1  0  0  0
 79157  1  0  0  0
 80 83  1  0  0  0
 80158  1  0  0  0
 80159  1  0  0  0
 82160  1  0  0  0
M  CHG  1  82   1
M  ISO  4   1 100  68 101  76 101  83 100
M  END
> <chiral flag>
0

> <version>
0

> <s_m_source_file>
/data/baiqing/PycharmProjects/Reinvent-master-3.2/result/LINK_invent/BTK/process_docking_weight1_custom_sum_contain_oxygen_bond_distance_aromatic_linkinvent_7_9_3/rearranged_h_0052.sdf

> <i_m_source_file_index>
21

> <r_mmod_Potential_Energy-OPLS-2005>
423.862579345703

> <r_mmod_Stretch_Energy-OPLS-2005>
113.966598510742

> <r_mmod_Bend_Energy-OPLS-2005>
194.905563354492

> <r_mmod_Torsional_Energy-OPLS-2005>
371.267425537109

> <r_mmod_Improper_Torsional_Energy-OPLS-2005>
10.9991073608398

> <r_mmod_Van_der_Waal_Energy-OPLS-2005>
127.459854125977

> <r_mmod_Electrostatic_Energy-OPLS-2005>
-152.990875244141

> <r_mmod_Solvation_Energy-OPLS-2005>
-404.005859375

> <b_mmod_Minimization_Converged-OPLS-2005>
0

> <r_mmod_RMS_Derivative-OPLS-2005>
2.90382504463196

$$$$
21
                    3D
 Structure written by MMmdl.
163171  0  0  1  0            999 V2000
  -30.7452  -14.4829   20.7056 C   0  0  0  0  0  0
  -30.4227  -12.3621   19.4339 C   0  0  0  0  0  0
  -29.4993  -12.5444   18.2121 C   0  0  0  0  0  0
  -28.0175  -12.3804   18.6041 C   0  0  0  0  0  0
  -27.6552  -13.2020   19.8641 C   0  0  2  0  0  0
  -28.6904  -12.9661   20.9908 C   0  0  0  0  0  0
  -25.2481  -13.8114   20.5555 C   0  0  0  0  0  0
  -24.1790  -13.0394   20.9231 C   0  0  0  0  0  0
  -24.6368  -11.6880   20.8747 C   0  0  0  0  0  0
  -23.9039  -10.4265   21.0430 C   0  0  0  0  0  0
  -24.3591   -9.4194   21.9208 C   0  0  0  0  0  0
  -23.6267   -8.2216   22.0769 C   0  0  0  0  0  0
  -22.4246   -8.0255   21.3560 C   0  0  0  0  0  0
  -21.9870   -9.0230   20.4667 C   0  0  0  0  0  0
  -22.7202  -10.2106   20.3083 C   0  0  0  0  0  0
  -21.6837   -6.0708   22.5277 C   0  0  0  0  0  0
  -21.3996   -6.5614   23.8206 C   0  0  0  0  0  0
  -21.3665   -5.6768   24.9175 C   0  0  0  0  0  0
  -21.6057   -4.3027   24.7219 C   0  0  0  0  0  0
  -21.8817   -3.8110   23.4345 C   0  0  0  0  0  0
  -21.9183   -4.6933   22.3405 C   0  0  0  0  0  0
  -22.7808  -13.5199   21.1879 C   0  0  0  0  0  0
  -22.1630   -4.2104   21.0984 F   0  0  0  0  0  0
  -21.5673   -3.4523   25.7754 F   0  0  0  0  0  0
  -30.0254  -13.3298   20.4877 N   0  0  0  0  0  0
  -26.2940  -12.9293   20.3217 N   0  0  0  0  0  0
  -25.9279  -11.6466   20.5681 N   0  0  0  0  0  0
  -22.0412  -12.8219   22.0431 N   0  0  0  0  0  0
  -25.3983  -15.1808   20.3718 N   0  0  0  0  0  0
  -31.7366  -14.6906   19.9967 O   0  0  0  0  0  0
  -21.6630   -6.8847   21.4228 O   0  0  0  0  0  0
  -22.3495  -14.5476   20.6687 O   0  0  0  0  0  0
  -24.6196  -31.8632   23.1993 C   0  0  0  0  0  0
  -25.9062  -32.4811   23.8300 C   0  0  1  0  0  0
  -27.2334  -27.3760   20.0995 C   0  0  0  0  0  0
  -25.5893  -33.8607   24.2273 N   0  0  0  0  0  0
  -23.4116  -30.4790   21.5468 C   0  0  2  0  0  0
  -24.8560  -28.9374   20.1083 C   0  0  0  0  0  0
  -22.7446  -29.4603   22.5011 C   0  0  0  0  0  0
  -18.0270  -28.1395   22.8464 C   0  0  0  0  0  0
  -24.1494  -36.7299   23.2635 C   0  0  0  0  0  0
  -25.9413  -30.8088   21.3588 C   0  0  0  0  0  0
  -26.0154  -29.4346   20.7146 C   0  0  0  0  0  0
  -27.2009  -28.6568   20.7139 C   0  0  0  0  0  0
  -26.0518  -26.9062   19.4823 C   0  0  0  0  0  0
  -24.8727  -27.6791   19.4823 C   0  0  0  0  0  0
  -23.6183  -29.8045   20.1627 C   0  0  0  0  0  0
  -25.4118  -36.3117   24.0335 C   0  0  1  0  0  0
  -20.5853  -28.3645   23.1330 C   0  0  2  0  0  0
  -20.6734  -26.9403   22.5373 C   0  0  0  0  0  0
  -19.5722  -26.6436   21.5147 C   0  0  0  0  0  0
  -18.1902  -26.7951   22.1581 C   0  0  0  0  0  0
  -19.1513  -28.8841   23.2905 C   0  0  0  0  0  0
  -18.9453  -30.1437   23.8925 C   0  0  0  0  0  0
  -17.6455  -30.6570   24.0595 C   0  0  0  0  0  0
  -25.9040  -34.9487   23.5120 C   0  0  0  0  0  0
  -16.5346  -29.9084   23.6331 C   0  0  0  0  0  0
  -16.7263  -28.6520   23.0316 C   0  0  0  0  0  0
  -26.4468  -31.6577   25.0626 C   0  0  0  0  0  0
  -25.3687  -31.3653   26.1314 C   0  0  0  0  0  0
  -27.0279  -30.3033   24.5968 C   0  0  0  0  0  0
  -27.6083  -32.4240   25.7374 C   0  0  0  0  0  0
  -27.5594  -37.1807   24.8478 C   0  0  0  0  0  0
  -21.4165  -29.3020   22.3771 N   0  0  0  0  0  0
  -26.4322  -37.3791   23.9403 N   0  0  0  0  0  0
  -24.6767  -31.0658   22.0951 N   0  0  0  0  0  0
  -23.4183  -28.8156   23.3095 O   0  0  0  0  0  0
  -28.4042  -26.6291   20.1568 O   0  0  0  0  0  0
  -26.5624  -34.8948   22.4696 O   0  0  0  0  0  0
  -23.5371  -32.1432   23.7332 O   0  0  0  0  0  0
  -29.5832  -23.1007   19.8760 C   0  0  0  0  0  0
  -27.8992  -22.2989   20.9606 C   0  0  0  0  0  0
  -28.6129  -24.0862   19.9501 C   0  0  0  0  0  0
  -29.8581  -15.0895   23.1454 C   0  0  0  0  0  0
  -31.8543  -16.1306   22.2410 C   0  0  0  0  0  0
  -28.1569  -16.6179   21.3743 C   0  0  0  0  0  0
  -28.6290  -25.4797   19.3007 C   0  0  0  0  0  0
  -29.1325  -19.3387   20.8896 C   0  0  0  0  0  0
  -29.8904  -20.7007   20.7246 C   0  0  0  0  0  0
  -30.0826  -18.1647   21.3556 C   0  0  0  0  0  0
  -30.4439  -15.6131   21.7911 C   0  0  0  0  0  0
  -27.5297  -23.5492   20.6533 N   0  0  0  0  0  0
  -29.1178  -21.9468   20.5199 N   0  0  0  0  0  0
  -29.6170  -16.7362   21.1545 N   0  3  1  0  0  0
  -31.4655  -12.4662   19.1258 H   0  0  0  0  0  0
  -30.3478  -11.3416   19.8132 H   0  0  0  0  0  0
  -29.7635  -11.8332   17.4311 H   0  0  0  0  0  0
  -29.6591  -13.5358   17.7866 H   0  0  0  0  0  0
  -27.8311  -11.3211   18.7803 H   0  0  0  0  0  0
  -27.3740  -12.6677   17.7704 H   0  0  0  0  0  0
  -27.6974  -14.2468   19.5625 H   0  0  0  0  0  0
  -28.6887  -11.9122   21.2678 H   0  0  0  0  0  0
  -28.3854  -13.4753   21.8910 H   0  0  0  0  0  0
  -25.2739   -9.5659   22.4772 H   0  0  0  0  0  0
  -23.9988   -7.4592   22.7471 H   0  0  0  0  0  0
  -21.0810   -8.8740   19.8956 H   0  0  0  0  0  0
  -22.3662  -10.9647   19.6177 H   0  0  0  0  0  0
  -21.1956   -7.6108   23.9703 H   0  0  0  0  0  0
  -21.1509   -6.0499   25.9093 H   0  0  0  0  0  0
  -22.0600   -2.7566   23.2863 H   0  0  0  0  0  0
  -22.3984  -11.9933   22.4933 H   0  0  0  0  0  0
  -21.0993  -13.1219   22.2530 H   0  0  0  0  0  0
  -24.5574  -15.7483   20.4192 H   0  0  0  0  0  0
  -26.0444  -15.5254   19.6737 H   0  0  0  0  0  0
  -26.7133  -32.5513   23.1050 H   0  0  0  0  0  0
  -25.0034  -33.9740   25.0414 H   0  0  0  0  0  0
  -22.7045  -31.2959   21.4029 H   0  0  0  0  0  0
  -23.3761  -35.9625   23.3321 H   0  0  0  0  0  0
  -24.3588  -36.8878   22.2046 H   0  0  0  0  0  0
  -23.7220  -37.6507   23.6624 H   0  0  0  0  0  0
  -26.0447  -31.5613   20.5739 H   0  0  0  0  0  0
  -26.8355  -30.8801   21.9670 H   0  0  0  0  0  0
  -28.0944  -29.0321   21.1931 H   0  0  0  0  0  0
  -26.0051  -25.9335   19.0169 H   0  0  0  0  0  0
  -23.9817  -27.2959   19.0011 H   0  0  0  0  0  0
  -23.7229  -30.5749   19.3973 H   0  0  0  0  0  0
  -22.7422  -29.2212   19.8744 H   0  0  0  0  0  0
  -25.1298  -36.1996   25.0828 H   0  0  0  0  0  0
  -20.9933  -28.3157   24.1454 H   0  0  0  0  0  0
  -20.5639  -26.2227   23.3517 H   0  0  0  0  0  0
  -21.6607  -26.7471   22.1129 H   0  0  0  0  0  0
  -19.6881  -25.6365   21.1135 H   0  0  0  0  0  0
  -19.6674  -27.3263   20.6702 H   0  0  0  0  0  0
  -17.4165  -26.6711   21.3980 H   0  0  0  0  0  0
  -18.0317  -26.0081   22.8958 H   0  0  0  0  0  0
  -19.7916  -30.7247   24.2321 H   0  0  0  0  0  0
  -17.5012  -31.6227   24.5263 H   0  0  0  0  0  0
  -15.5342  -30.3007   23.7670 H   0  0  0  0  0  0
  -15.8650  -28.0862   22.7005 H   0  0  0  0  0  0
  -24.5934  -30.6952   25.7569 H   0  0  0  0  0  0
  -24.8761  -32.2791   26.4675 H   0  0  0  0  0  0
  -25.7965  -30.8852   27.0121 H   0  0  0  0  0  0
  -26.2811  -29.6793   24.1047 H   0  0  0  0  0  0
  -27.4126  -29.7241   25.4365 H   0  0  0  0  0  0
  -27.8603  -30.4360   23.9042 H   0  0  0  0  0  0
  -27.2808  -33.3585   26.1926 H   0  0  0  0  0  0
  -28.3900  -32.6695   25.0171 H   0  0  0  0  0  0
  -28.0744  -31.8339   26.5277 H   0  0  0  0  0  0
  -28.2642  -38.0078   24.7531 H   0  0  0  0  0  0
  -28.1076  -36.2622   24.6335 H   0  0  0  0  0  0
  -27.2317  -37.1487   25.8884 H   0  0  0  0  0  0
  -20.9358  -29.8755   21.6984 H   0  0  0  0  0  0
  -26.0225  -38.2883   24.1365 H   0  0  0  0  0  0
  -30.5624  -23.1283   19.4111 H   0  0  0  0  0  0
  -27.2703  -21.6274   21.5273 H   0  0  0  0  0  0
  -30.1170  -15.7451   23.9780 H   0  0  0  0  0  0
  -30.2682  -14.1099   23.3988 H   0  0  0  0  0  0
  -28.7768  -15.0091   23.2110 H   0  0  0  0  0  0
  -31.8112  -16.8537   23.0540 H   0  0  0  0  0  0
  -32.4255  -16.5942   21.4361 H   0  0  0  0  0  0
  -32.4614  -15.3057   22.6190 H   0  0  0  0  0  0
  -27.5905  -17.1781   20.6327 H   0  0  0  0  0  0
  -27.8822  -16.9870   22.3631 H   0  0  0  0  0  0
  -27.8230  -15.5906   21.3058 H   0  0  0  0  0  0
  -28.0054  -25.4953   18.4084 H   0  0  0  0  0  0
  -29.6312  -25.6421   18.9035 H   0  0  0  0  0  0
  -28.6503  -19.0960   19.9430 H   0  0  0  0  0  0
  -28.3349  -19.4516   21.6265 H   0  0  0  0  0  0
  -30.5592  -20.5972   19.8696 H   0  0  0  0  0  0
  -30.5276  -20.8648   21.5930 H   0  0  0  0  0  0
  -30.2803  -18.3244   22.4158 H   0  0  0  0  0  0
  -31.0360  -18.2781   20.8416 H   0  0  0  0  0  0
  -29.7528  -16.5673   20.1657 H   0  0  0  0  0  0
  1 25  1  0  0  0
  1 30  2  0  0  0
  1 81  1  0  0  0
  2  3  1  0  0  0
  2 25  1  0  0  0
  2 85  1  0  0  0
  2 86  1  0  0  0
  3  4  1  0  0  0
  3 87  1  0  0  0
  3 88  1  0  0  0
  4  5  1  0  0  0
  4 89  1  0  0  0
  4 90  1  0  0  0
  5  6  1  0  0  0
  5 26  1  0  0  0
  5 91  1  0  0  0
  6 25  1  0  0  0
  6 92  1  0  0  0
  6 93  1  0  0  0
  7  8  2  0  0  0
  7 26  1  0  0  0
  7 29  1  0  0  0
  8  9  1  0  0  0
  8 22  1  0  0  0
  9 10  1  0  0  0
  9 27  2  0  0  0
 10 11  2  0  0  0
 10 15  1  0  0  0
 11 12  1  0  0  0
 11 94  1  0  0  0
 12 13  2  0  0  0
 12 95  1  0  0  0
 13 14  1  0  0  0
 13 31  1  0  0  0
 14 15  2  0  0  0
 14 96  1  0  0  0
 15 97  1  0  0  0
 16 17  2  0  0  0
 16 21  1  0  0  0
 16 31  1  0  0  0
 17 18  1  0  0  0
 17 98  1  0  0  0
 18 19  2  0  0  0
 18 99  1  0  0  0
 19 20  1  0  0  0
 19 24  1  0  0  0
 20 21  2  0  0  0
 20100  1  0  0  0
 21 23  1  0  0  0
 22 28  1  0  0  0
 22 32  2  0  0  0
 26 27  1  0  0  0
 28101  1  0  0  0
 28102  1  0  0  0
 29103  1  0  0  0
 29104  1  0  0  0
 33 34  1  0  0  0
 33 66  1  0  0  0
 33 70  2  0  0  0
 34 36  1  0  0  0
 34 59  1  0  0  0
 34105  1  0  0  0
 35 44  2  0  0  0
 35 45  1  0  0  0
 35 68  1  0  0  0
 36 56  1  0  0  0
 36106  1  0  0  0
 37 39  1  0  0  0
 37 47  1  0  0  0
 37 66  1  0  0  0
 37107  1  0  0  0
 38 43  2  0  0  0
 38 46  1  0  0  0
 38 47  1  0  0  0
 39 64  1  0  0  0
 39 67  2  0  0  0
 40 52  1  0  0  0
 40 53  2  0  0  0
 40 58  1  0  0  0
 41108  1  0  0  0
 41109  1  0  0  0
 41110  1  0  0  0
 41 48  1  0  0  0
 42 43  1  0  0  0
 42 66  1  0  0  0
 42111  1  0  0  0
 42112  1  0  0  0
 43 44  1  0  0  0
 44113  1  0  0  0
 45 46  2  0  0  0
 45114  1  0  0  0
 46115  1  0  0  0
 47116  1  0  0  0
 47117  1  0  0  0
 48 56  1  0  0  0
 48 65  1  0  0  0
 48118  1  0  0  0
 49 50  1  0  0  0
 49 53  1  0  0  0
 49 64  1  0  0  0
 49119  1  0  0  0
 50 51  1  0  0  0
 50120  1  0  0  0
 50121  1  0  0  0
 51 52  1  0  0  0
 51122  1  0  0  0
 51123  1  0  0  0
 52124  1  0  0  0
 52125  1  0  0  0
 53 54  1  0  0  0
 54 55  2  0  0  0
 54126  1  0  0  0
 55 57  1  0  0  0
 55127  1  0  0  0
 56 69  2  0  0  0
 57 58  2  0  0  0
 57128  1  0  0  0
 58129  1  0  0  0
 59 60  1  0  0  0
 59 61  1  0  0  0
 59 62  1  0  0  0
 60130  1  0  0  0
 60131  1  0  0  0
 60132  1  0  0  0
 61133  1  0  0  0
 61134  1  0  0  0
 61135  1  0  0  0
 62136  1  0  0  0
 62137  1  0  0  0
 62138  1  0  0  0
 63 65  1  0  0  0
 63139  1  0  0  0
 63140  1  0  0  0
 63141  1  0  0  0
 64142  1  0  0  0
 65143  1  0  0  0
 68 77  1  0  0  0
 71 73  2  0  0  0
 71 83  1  0  0  0
 71144  1  0  0  0
 72 82  2  0  0  0
 72 83  1  0  0  0
 72145  1  0  0  0
 73 77  1  0  0  0
 73 82  1  0  0  0
 74146  1  0  0  0
 74147  1  0  0  0
 74148  1  0  0  0
 74 81  1  0  0  0
 75 81  1  0  0  0
 75149  1  0  0  0
 75150  1  0  0  0
 75151  1  0  0  0
 76152  1  0  0  0
 76153  1  0  0  0
 76154  1  0  0  0
 76 84  1  0  0  0
 77155  1  0  0  0
 77156  1  0  0  0
 78 79  1  0  0  0
 78 80  1  0  0  0
 78157  1  0  0  0
 78158  1  0  0  0
 79 83  1  0  0  0
 79159  1  0  0  0
 79160  1  0  0  0
 80 84  1  0  0  0
 80161  1  0  0  0
 80162  1  0  0  0
 81 84  1  0  0  0
 84163  1  0  0  0
M  CHG  1  84   1
M  ISO  4   1 100  68 101  77 101  81 100
M  END
> <chiral flag>
0

> <version>
0

> <s_m_source_file>
/data/baiqing/PycharmProjects/Reinvent-master-3.2/result/LINK_invent/BTK/process_docking_weight1_custom_sum_contain_oxygen_bond_distance_aromatic_linkinvent_7_9_3/rearranged_h_0052.sdf

> <i_m_source_file_index>
22

> <r_mmod_Potential_Energy-OPLS-2005>
-0.854016900062561

> <r_mmod_Stretch_Energy-OPLS-2005>
67.2559585571289

> <r_mmod_Bend_Energy-OPLS-2005>
165.673858642578

> <r_mmod_Torsional_Energy-OPLS-2005>
226.197875976562

> <r_mmod_Improper_Torsional_Energy-OPLS-2005>
5.58949041366577

> <r_mmod_Van_der_Waal_Energy-OPLS-2005>
150.964950561523

> <r_mmod_Electrostatic_Energy-OPLS-2005>
-188.069931030273

> <r_mmod_Solvation_Energy-OPLS-2005>
-448.453918457031

> <b_mmod_Minimization_Converged-OPLS-2005>
0

> <r_mmod_RMS_Derivative-OPLS-2005>
4.07291412353516

$$$$
22
                    3D
 Structure written by MMmdl.
153161  0  0  1  0            999 V2000
  -30.6431  -14.6639   20.5042 C   0  0  0  0  0  0
  -30.4311  -12.4134   19.4468 C   0  0  0  0  0  0
  -29.4993  -12.4966   18.2173 C   0  0  0  0  0  0
  -28.0248  -12.3337   18.6342 C   0  0  0  0  0  0
  -27.6482  -13.2166   19.8515 C   0  0  2  0  0  0
  -28.6913  -13.0726   20.9764 C   0  0  0  0  0  0
  -25.2554  -13.8168   20.5665 C   0  0  0  0  0  0
  -24.1813  -13.0430   20.9167 C   0  0  0  0  0  0
  -24.6384  -11.6906   20.8733 C   0  0  0  0  0  0
  -23.9049  -10.4288   21.0399 C   0  0  0  0  0  0
  -24.3606   -9.4206   21.9189 C   0  0  0  0  0  0
  -23.6288   -8.2249   22.0753 C   0  0  0  0  0  0
  -22.4270   -8.0282   21.3539 C   0  0  0  0  0  0
  -21.9899   -9.0243   20.4641 C   0  0  0  0  0  0
  -22.7225  -10.2128   20.3049 C   0  0  0  0  0  0
  -21.6845   -6.0735   22.5282 C   0  0  0  0  0  0
  -21.4012   -6.5640   23.8215 C   0  0  0  0  0  0
  -21.3649   -5.6788   24.9178 C   0  0  0  0  0  0
  -21.6040   -4.3056   24.7226 C   0  0  0  0  0  0
  -21.8819   -3.8146   23.4352 C   0  0  0  0  0  0
  -21.9194   -4.6962   22.3413 C   0  0  0  0  0  0
  -22.7849  -13.5240   21.1869 C   0  0  0  0  0  0
  -22.1665   -4.2151   21.0990 F   0  0  0  0  0  0
  -21.5622   -3.4546   25.7742 F   0  0  0  0  0  0
  -29.9987  -13.4482   20.4151 N   0  0  0  0  0  0
  -26.2961  -12.9342   20.3273 N   0  0  0  0  0  0
  -25.9310  -11.6499   20.5740 N   0  0  0  0  0  0
  -22.0486  -12.8207   22.0406 N   0  0  0  0  0  0
  -25.4302  -15.1876   20.4061 N   0  0  0  0  0  0
  -31.7935  -14.7758   20.0664 O   0  0  0  0  0  0
  -21.6630   -6.8878   21.4247 O   0  0  0  0  0  0
  -22.3538  -14.5551   20.6728 O   0  0  0  0  0  0
  -24.6232  -31.8607   23.2014 C   0  0  0  0  0  0
  -25.9068  -32.4793   23.8328 C   0  0  1  0  0  0
  -27.2283  -27.3436   20.1080 C   0  0  0  0  0  0
  -25.5885  -33.8595   24.2278 N   0  0  0  0  0  0
  -23.4171  -30.4831   21.5439 C   0  0  2  0  0  0
  -24.8644  -28.9349   20.1154 C   0  0  0  0  0  0
  -22.7471  -29.4620   22.4924 C   0  0  0  0  0  0
  -18.0279  -28.1382   22.8478 C   0  0  0  0  0  0
  -24.1474  -36.7299   23.2638 C   0  0  0  0  0  0
  -25.9554  -30.7990   21.3664 C   0  0  0  0  0  0
  -26.0313  -29.4252   20.7157 C   0  0  0  0  0  0
  -27.2208  -28.6388   20.7037 C   0  0  0  0  0  0
  -26.0421  -26.8911   19.4970 C   0  0  0  0  0  0
  -24.8690  -27.6713   19.4990 C   0  0  0  0  0  0
  -23.6314  -29.8154   20.1599 C   0  0  0  0  0  0
  -25.4097  -36.3112   24.0346 C   0  0  1  0  0  0
  -20.5886  -28.3671   23.1291 C   0  0  2  0  0  0
  -20.6769  -26.9384   22.5428 C   0  0  0  0  0  0
  -19.5752  -26.6373   21.5221 C   0  0  0  0  0  0
  -18.1918  -26.7927   22.1606 C   0  0  0  0  0  0
  -19.1539  -28.8843   23.2877 C   0  0  0  0  0  0
  -18.9469  -30.1435   23.8894 C   0  0  0  0  0  0
  -17.6468  -30.6573   24.0550 C   0  0  0  0  0  0
  -25.9049  -34.9477   23.5129 C   0  0  0  0  0  0
  -16.5360  -29.9064   23.6338 C   0  0  0  0  0  0
  -16.7270  -28.6489   23.0347 C   0  0  0  0  0  0
  -26.4475  -31.6591   25.0683 C   0  0  0  0  0  0
  -25.3708  -31.3694   26.1417 C   0  0  0  0  0  0
  -27.0325  -30.3047   24.6070 C   0  0  0  0  0  0
  -27.6067  -32.4306   25.7411 C   0  0  0  0  0  0
  -27.5596  -37.1762   24.8450 C   0  0  0  0  0  0
  -21.4186  -29.3024   22.3683 N   0  0  0  0  0  0
  -26.4279  -37.3810   23.9440 N   0  0  0  0  0  0
  -24.6846  -31.0626   22.0960 N   0  0  0  0  0  0
  -23.4207  -28.8169   23.3007 O   0  0  0  0  0  0
  -28.3416  -26.5028   20.0849 O   0  0  0  0  0  0
  -26.5632  -34.8928   22.4702 O   0  0  0  0  0  0
  -23.5399  -32.1383   23.7363 O   0  0  0  0  0  0
  -30.1683  -22.2829   19.7650 C   0  0  0  0  0  0
  -29.2352  -21.2305   19.9727 C   0  0  0  0  0  0
  -28.6001  -23.8623   20.3988 C   0  0  0  0  0  0
  -29.3671  -15.9882   22.1368 C   0  0  0  0  0  0
  -29.5397  -19.7442   19.5399 C   0  0  0  0  0  0
  -28.2549  -25.3042   20.9381 C   0  0  0  0  0  0
  -29.4643  -18.5067   20.5455 C   0  0  0  0  0  0
  -30.0337  -17.1037   19.9930 C   0  0  0  0  0  0
  -29.8525  -23.5958   19.9855 N   0  0  0  0  0  0
  -27.9778  -21.5839   20.3610 N   0  0  0  0  0  0
  -27.6721  -22.8890   20.5841 N   0  0  0  0  0  0
  -29.9033  -15.8071   20.7851 N   0  0  0  0  0  0
  -31.4689  -12.5341   19.1317 H   0  0  0  0  0  0
  -30.3794  -11.4221   19.8997 H   0  0  0  0  0  0
  -29.7639  -11.7261   17.4913 H   0  0  0  0  0  0
  -29.6360  -13.4529   17.7107 H   0  0  0  0  0  0
  -27.8746  -11.2827   18.8869 H   0  0  0  0  0  0
  -27.3642  -12.5385   17.7922 H   0  0  0  0  0  0
  -27.6674  -14.2504   19.5072 H   0  0  0  0  0  0
  -28.7185  -12.0446   21.3382 H   0  0  0  0  0  0
  -28.3998  -13.6640   21.8368 H   0  0  0  0  0  0
  -25.2750   -9.5687   22.4768 H   0  0  0  0  0  0
  -23.9980   -7.4643   22.7473 H   0  0  0  0  0  0
  -21.0837   -8.8769   19.8955 H   0  0  0  0  0  0
  -22.3690  -10.9663   19.6160 H   0  0  0  0  0  0
  -21.2003   -7.6151   23.9721 H   0  0  0  0  0  0
  -21.1465   -6.0522   25.9076 H   0  0  0  0  0  0
  -22.0605   -2.7606   23.2855 H   0  0  0  0  0  0
  -22.4091  -11.9850   22.4764 H   0  0  0  0  0  0
  -21.1124  -13.1261   22.2641 H   0  0  0  0  0  0
  -24.6680  -15.8495   20.5036 H   0  0  0  0  0  0
  -26.2965  -15.6195   20.1074 H   0  0  0  0  0  0
  -26.7103  -32.5482   23.1046 H   0  0  0  0  0  0
  -25.0000  -33.9748   25.0406 H   0  0  0  0  0  0
  -22.7097  -31.3021   21.3980 H   0  0  0  0  0  0
  -23.3774  -35.9587   23.3268 H   0  0  0  0  0  0
  -24.3579  -36.8984   22.2064 H   0  0  0  0  0  0
  -23.7183  -37.6464   23.6695 H   0  0  0  0  0  0
  -26.0713  -31.5583   20.5921 H   0  0  0  0  0  0
  -26.8426  -30.8594   21.9840 H   0  0  0  0  0  0
  -28.1224  -29.0114   21.1680 H   0  0  0  0  0  0
  -26.0264  -25.9218   19.0188 H   0  0  0  0  0  0
  -23.9719  -27.2938   19.0263 H   0  0  0  0  0  0
  -23.7459  -30.5941   19.4041 H   0  0  0  0  0  0
  -22.7527  -29.2442   19.8566 H   0  0  0  0  0  0
  -25.1256  -36.1966   25.0836 H   0  0  0  0  0  0
  -20.9962  -28.3255   24.1417 H   0  0  0  0  0  0
  -20.5689  -26.2262   23.3626 H   0  0  0  0  0  0
  -21.6631  -26.7417   22.1202 H   0  0  0  0  0  0
  -19.6921  -25.6290   21.1238 H   0  0  0  0  0  0
  -19.6724  -27.3195   20.6761 H   0  0  0  0  0  0
  -17.4203  -26.6712   21.3981 H   0  0  0  0  0  0
  -18.0262  -26.0052   22.8982 H   0  0  0  0  0  0
  -19.7949  -30.7238   24.2274 H   0  0  0  0  0  0
  -17.5019  -31.6253   24.5142 H   0  0  0  0  0  0
  -15.5351  -30.2941   23.7680 H   0  0  0  0  0  0
  -15.8676  -28.0794   22.7070 H   0  0  0  0  0  0
  -24.5974  -30.6942   25.7743 H   0  0  0  0  0  0
  -24.8747  -32.2808   26.4753 H   0  0  0  0  0  0
  -25.8023  -30.8972   27.0244 H   0  0  0  0  0  0
  -26.2866  -29.6757   24.1198 H   0  0  0  0  0  0
  -27.4222  -29.7355   25.4506 H   0  0  0  0  0  0
  -27.8629  -30.4414   23.9140 H   0  0  0  0  0  0
  -27.2776  -33.3661   26.1945 H   0  0  0  0  0  0
  -28.3866  -32.6786   25.0195 H   0  0  0  0  0  0
  -28.0722  -31.8424   26.5343 H   0  0  0  0  0  0
  -28.2547  -38.0117   24.7595 H   0  0  0  0  0  0
  -28.1154  -36.2664   24.6127 H   0  0  0  0  0  0
  -27.2327  -37.1240   25.8848 H   0  0  0  0  0  0
  -20.9363  -29.8736   21.6887 H   0  0  0  0  0  0
  -26.0180  -38.2880   24.1505 H   0  0  0  0  0  0
  -31.1607  -22.0761   19.3907 H   0  0  0  0  0  0
  -28.2795  -16.0574   22.1022 H   0  0  0  0  0  0
  -29.7593  -16.8864   22.6105 H   0  0  0  0  0  0
  -29.6359  -15.1694   22.8063 H   0  0  0  0  0  0
  -30.5462  -19.7501   19.1214 H   0  0  0  0  0  0
  -28.8902  -19.5306   18.6901 H   0  0  0  0  0  0
  -28.9562  -25.4828   21.7526 H   0  0  0  0  0  0
  -27.2796  -25.2608   21.4257 H   0  0  0  0  0  0
  -28.4255  -18.3832   20.8533 H   0  0  0  0  0  0
  -30.0164  -18.7833   21.4433 H   0  0  0  0  0  0
  -31.0910  -17.2521   19.7665 H   0  0  0  0  0  0
  -29.5598  -16.9157   19.0278 H   0  0  0  0  0  0
  1 25  1  0  0  0
  1 30  2  0  0  0
  1 82  1  0  0  0
  2  3  1  0  0  0
  2 25  1  0  0  0
  2 83  1  0  0  0
  2 84  1  0  0  0
  3  4  1  0  0  0
  3 85  1  0  0  0
  3 86  1  0  0  0
  4  5  1  0  0  0
  4 87  1  0  0  0
  4 88  1  0  0  0
  5  6  1  0  0  0
  5 26  1  0  0  0
  5 89  1  0  0  0
  6 25  1  0  0  0
  6 90  1  0  0  0
  6 91  1  0  0  0
  7  8  2  0  0  0
  7 26  1  0  0  0
  7 29  1  0  0  0
  8  9  1  0  0  0
  8 22  1  0  0  0
  9 10  1  0  0  0
  9 27  2  0  0  0
 10 11  2  0  0  0
 10 15  1  0  0  0
 11 12  1  0  0  0
 11 92  1  0  0  0
 12 13  2  0  0  0
 12 93  1  0  0  0
 13 14  1  0  0  0
 13 31  1  0  0  0
 14 15  2  0  0  0
 14 94  1  0  0  0
 15 95  1  0  0  0
 16 17  2  0  0  0
 16 21  1  0  0  0
 16 31  1  0  0  0
 17 18  1  0  0  0
 17 96  1  0  0  0
 18 19  2  0  0  0
 18 97  1  0  0  0
 19 20  1  0  0  0
 19 24  1  0  0  0
 20 21  2  0  0  0
 20 98  1  0  0  0
 21 23  1  0  0  0
 22 28  1  0  0  0
 22 32  2  0  0  0
 26 27  1  0  0  0
 28 99  1  0  0  0
 28100  1  0  0  0
 29101  1  0  0  0
 29102  1  0  0  0
 33 34  1  0  0  0
 33 66  1  0  0  0
 33 70  2  0  0  0
 34 36  1  0  0  0
 34 59  1  0  0  0
 34103  1  0  0  0
 35 44  2  0  0  0
 35 45  1  0  0  0
 35 68  1  0  0  0
 36 56  1  0  0  0
 36104  1  0  0  0
 37 39  1  0  0  0
 37 47  1  0  0  0
 37 66  1  0  0  0
 37105  1  0  0  0
 38 43  2  0  0  0
 38 46  1  0  0  0
 38 47  1  0  0  0
 39 64  1  0  0  0
 39 67  2  0  0  0
 40 52  1  0  0  0
 40 53  2  0  0  0
 40 58  1  0  0  0
 41106  1  0  0  0
 41107  1  0  0  0
 41108  1  0  0  0
 41 48  1  0  0  0
 42 43  1  0  0  0
 42 66  1  0  0  0
 42109  1  0  0  0
 42110  1  0  0  0
 43 44  1  0  0  0
 44111  1  0  0  0
 45 46  2  0  0  0
 45112  1  0  0  0
 46113  1  0  0  0
 47114  1  0  0  0
 47115  1  0  0  0
 48 56  1  0  0  0
 48 65  1  0  0  0
 48116  1  0  0  0
 49 50  1  0  0  0
 49 53  1  0  0  0
 49 64  1  0  0  0
 49117  1  0  0  0
 50 51  1  0  0  0
 50118  1  0  0  0
 50119  1  0  0  0
 51 52  1  0  0  0
 51120  1  0  0  0
 51121  1  0  0  0
 52122  1  0  0  0
 52123  1  0  0  0
 53 54  1  0  0  0
 54 55  2  0  0  0
 54124  1  0  0  0
 55 57  1  0  0  0
 55125  1  0  0  0
 56 69  2  0  0  0
 57 58  2  0  0  0
 57126  1  0  0  0
 58127  1  0  0  0
 59 60  1  0  0  0
 59 61  1  0  0  0
 59 62  1  0  0  0
 60128  1  0  0  0
 60129  1  0  0  0
 60130  1  0  0  0
 61131  1  0  0  0
 61132  1  0  0  0
 61133  1  0  0  0
 62134  1  0  0  0
 62135  1  0  0  0
 62136  1  0  0  0
 63 65  1  0  0  0
 63137  1  0  0  0
 63138  1  0  0  0
 63139  1  0  0  0
 64140  1  0  0  0
 65141  1  0  0  0
 68 76  1  0  0  0
 71 72  2  0  0  0
 71 79  1  0  0  0
 71142  1  0  0  0
 72 75  1  0  0  0
 72 80  1  0  0  0
 73 76  1  0  0  0
 73 79  2  0  0  0
 73 81  1  0  0  0
 74 82  1  0  0  0
 74143  1  0  0  0
 74144  1  0  0  0
 74145  1  0  0  0
 75 77  1  0  0  0
 75146  1  0  0  0
 75147  1  0  0  0
 76148  1  0  0  0
 76149  1  0  0  0
 77 78  1  0  0  0
 77150  1  0  0  0
 77151  1  0  0  0
 78 82  1  0  0  0
 78152  1  0  0  0
 78153  1  0  0  0
 80 81  2  0  0  0
M  ISO  4   1 100  68 101  76 101  82 100
M  END
> <chiral flag>
0

> <version>
0

> <s_m_source_file>
/data/baiqing/PycharmProjects/Reinvent-master-3.2/result/LINK_invent/BTK/process_docking_weight1_custom_sum_contain_oxygen_bond_distance_aromatic_linkinvent_7_9_3/rearranged_h_0052.sdf

> <i_m_source_file_index>
23

> <r_mmod_Potential_Energy-OPLS-2005>
272.078125

> <r_mmod_Stretch_Energy-OPLS-2005>
92.5159072875977

> <r_mmod_Bend_Energy-OPLS-2005>
152.758270263672

> <r_mmod_Torsional_Energy-OPLS-2005>
297.31005859375

> <r_mmod_Improper_Torsional_Energy-OPLS-2005>
11.2064189910889

> <r_mmod_Van_der_Waal_Energy-OPLS-2005>
152.227325439453

> <r_mmod_Electrostatic_Energy-OPLS-2005>
-255.92024230957

> <r_mmod_Solvation_Energy-OPLS-2005>
-223.535354614258

> <b_mmod_Minimization_Converged-OPLS-2005>
0

> <r_mmod_RMS_Derivative-OPLS-2005>
3.22869682312012

$$$$
23
                    3D
 Structure written by MMmdl.
159167  0  0  1  0            999 V2000
  -30.7807  -14.3672   20.7200 C   0  0  0  0  0  0
  -30.4229  -12.3080   19.4044 C   0  0  0  0  0  0
  -29.4988  -12.5481   18.1945 C   0  0  0  0  0  0
  -28.0194  -12.3965   18.5932 C   0  0  0  0  0  0
  -27.6678  -13.2054   19.8679 C   0  0  2  0  0  0
  -28.6924  -12.9535   20.9899 C   0  0  0  0  0  0
  -25.2603  -13.8163   20.5556 C   0  0  0  0  0  0
  -24.1837  -13.0462   20.9105 C   0  0  0  0  0  0
  -24.6393  -11.6930   20.8687 C   0  0  0  0  0  0
  -23.9047  -10.4328   21.0406 C   0  0  0  0  0  0
  -24.3612   -9.4240   21.9180 C   0  0  0  0  0  0
  -23.6263   -8.2288   22.0793 C   0  0  0  0  0  0
  -22.4239   -8.0320   21.3592 C   0  0  0  0  0  0
  -21.9870   -9.0276   20.4676 C   0  0  0  0  0  0
  -22.7218  -10.2144   20.3056 C   0  0  0  0  0  0
  -21.6851   -6.0735   22.5293 C   0  0  0  0  0  0
  -21.4025   -6.5657   23.8223 C   0  0  0  0  0  0
  -21.3647   -5.6808   24.9186 C   0  0  0  0  0  0
  -21.6021   -4.3065   24.7240 C   0  0  0  0  0  0
  -21.8808   -3.8157   23.4362 C   0  0  0  0  0  0
  -21.9189   -4.6962   22.3411 C   0  0  0  0  0  0
  -22.7860  -13.5306   21.1715 C   0  0  0  0  0  0
  -22.1641   -4.2147   21.0975 F   0  0  0  0  0  0
  -21.5617   -3.4555   25.7754 F   0  0  0  0  0  0
  -30.0510  -13.2409   20.4797 N   0  0  0  0  0  0
  -26.3031  -12.9311   20.3251 N   0  0  0  0  0  0
  -25.9306  -11.6472   20.5669 N   0  0  0  0  0  0
  -22.0443  -12.8385   22.0301 N   0  0  0  0  0  0
  -25.4246  -15.1865   20.3902 N   0  0  0  0  0  0
  -31.7514  -14.6882   20.0237 O   0  0  0  0  0  0
  -21.6618   -6.8900   21.4272 O   0  0  0  0  0  0
  -22.3584  -14.5584   20.6496 O   0  0  0  0  0  0
  -24.6046  -31.8659   23.2115 C   0  0  0  0  0  0
  -25.8942  -32.4821   23.8412 C   0  0  1  0  0  0
  -27.2688  -27.4596   20.1335 C   0  0  0  0  0  0
  -25.5802  -33.8602   24.2353 N   0  0  0  0  0  0
  -23.4008  -30.4835   21.5411 C   0  0  2  0  0  0
  -24.8598  -28.9385   20.1234 C   0  0  0  0  0  0
  -22.7363  -29.4678   22.4961 C   0  0  0  0  0  0
  -18.0260  -28.1382   22.8473 C   0  0  0  0  0  0
  -24.1470  -36.7323   23.2636 C   0  0  0  0  0  0
  -25.9174  -30.8435   21.3578 C   0  0  0  0  0  0
  -26.0036  -29.4674   20.7323 C   0  0  0  0  0  0
  -27.1972  -28.7257   20.7489 C   0  0  0  0  0  0
  -26.1047  -26.9305   19.5224 C   0  0  0  0  0  0
  -24.9015  -27.6664   19.5210 C   0  0  0  0  0  0
  -23.6193  -29.7996   20.1580 C   0  0  0  0  0  0
  -25.4095  -36.3102   24.0338 C   0  0  1  0  0  0
  -20.5840  -28.3686   23.1322 C   0  0  2  0  0  0
  -20.6799  -26.9439   22.5386 C   0  0  0  0  0  0
  -19.5755  -26.6378   21.5218 C   0  0  0  0  0  0
  -18.1926  -26.7947   22.1571 C   0  0  0  0  0  0
  -19.1482  -28.8849   23.2899 C   0  0  0  0  0  0
  -18.9369  -30.1445   23.8929 C   0  0  0  0  0  0
  -17.6367  -30.6563   24.0588 C   0  0  0  0  0  0
  -25.9007  -34.9456   23.5160 C   0  0  0  0  0  0
  -16.5283  -29.9084   23.6276 C   0  0  0  0  0  0
  -16.7240  -28.6505   23.0301 C   0  0  0  0  0  0
  -26.4435  -31.6573   25.0703 C   0  0  0  0  0  0
  -25.3798  -31.3647   26.1532 C   0  0  0  0  0  0
  -27.0248  -30.3037   24.6000 C   0  0  0  0  0  0
  -27.6020  -32.4289   25.7461 C   0  0  0  0  0  0
  -27.5583  -37.1809   24.8468 C   0  0  0  0  0  0
  -21.4096  -29.3044   22.3701 N   0  0  0  0  0  0
  -26.4284  -37.3787   23.9415 N   0  0  0  0  0  0
  -24.6588  -31.0792   22.0989 N   0  0  0  0  0  0
  -23.4094  -28.8250   23.3055 O   0  0  0  0  0  0
  -28.4947  -26.8297   20.1766 O   0  0  0  0  0  0
  -26.5568  -34.8897   22.4720 O   0  0  0  0  0  0
  -23.5244  -32.1387   23.7510 O   0  0  0  0  0  0
  -29.7530  -20.6331   20.5749 C   0  0  0  0  0  0
  -27.9669  -19.4097   20.9089 C   0  0  0  0  0  0
  -28.3506  -20.7188   20.8153 C   0  0  0  0  0  0
  -30.2625  -14.7220   23.0983 C   0  0  0  0  0  0
  -27.5086  -21.9644   20.9719 C   0  0  0  0  0  0
  -27.9036  -23.0935   19.9985 C   0  0  0  0  0  0
  -28.1686  -24.4385   20.6981 C   0  0  0  0  0  0
  -29.1801  -17.1747   20.7629 C   0  0  0  0  0  0
  -30.3880  -16.6466   21.5696 C   0  0  0  0  0  0
  -28.6660  -25.5011   19.6996 C   0  0  0  0  0  0
  -30.1883  -19.3828   20.5174 N   0  0  0  0  0  0
  -29.0910  -18.6264   20.7524 N   0  0  0  0  0  0
  -30.3287  -15.1814   21.7053 N   0  0  0  0  0  0
  -31.4692  -12.4149   19.1082 H   0  0  0  0  0  0
  -30.3183  -11.2794   19.7545 H   0  0  0  0  0  0
  -29.7472  -11.8551   17.3890 H   0  0  0  0  0  0
  -29.6702  -13.5531   17.7960 H   0  0  0  0  0  0
  -27.8235  -11.3364   18.7585 H   0  0  0  0  0  0
  -27.3744  -12.7082   17.7682 H   0  0  0  0  0  0
  -27.7259  -14.2617   19.6054 H   0  0  0  0  0  0
  -28.6455  -11.9182   21.3292 H   0  0  0  0  0  0
  -28.3841  -13.5461   21.8497 H   0  0  0  0  0  0
  -25.2777   -9.5695   22.4737 H   0  0  0  0  0  0
  -23.9933   -7.4715   22.7561 H   0  0  0  0  0  0
  -21.0780   -8.8821   19.9017 H   0  0  0  0  0  0
  -22.3687  -10.9676   19.6161 H   0  0  0  0  0  0
  -21.2022   -7.6155   23.9733 H   0  0  0  0  0  0
  -21.1459   -6.0528   25.9082 H   0  0  0  0  0  0
  -22.0569   -2.7608   23.2867 H   0  0  0  0  0  0
  -22.4011  -12.0127   22.4862 H   0  0  0  0  0  0
  -21.1071  -13.1567   22.2358 H   0  0  0  0  0  0
  -24.6332  -15.8194   20.4584 H   0  0  0  0  0  0
  -26.2484  -15.6315   20.0099 H   0  0  0  0  0  0
  -26.7049  -32.5609   23.1200 H   0  0  0  0  0  0
  -24.9974  -33.9758   25.0527 H   0  0  0  0  0  0
  -22.6890  -31.2992   21.3888 H   0  0  0  0  0  0
  -23.3704  -35.9679   23.3311 H   0  0  0  0  0  0
  -24.3598  -36.8918   22.2056 H   0  0  0  0  0  0
  -23.7235  -37.6539   23.6652 H   0  0  0  0  0  0
  -25.9972  -31.5942   20.5724 H   0  0  0  0  0  0
  -26.8132  -30.9294   21.9599 H   0  0  0  0  0  0
  -28.0747  -29.1163   21.2457 H   0  0  0  0  0  0
  -26.1161  -25.9589   19.0528 H   0  0  0  0  0  0
  -24.0163  -27.2565   19.0505 H   0  0  0  0  0  0
  -23.7369  -30.5647   19.3869 H   0  0  0  0  0  0
  -22.7495  -29.2074   19.8661 H   0  0  0  0  0  0
  -25.1260  -36.1992   25.0830 H   0  0  0  0  0  0
  -20.9915  -28.3303   24.1440 H   0  0  0  0  0  0
  -20.5821  -26.2295   23.3562 H   0  0  0  0  0  0
  -21.6670  -26.7586   22.1083 H   0  0  0  0  0  0
  -19.6911  -25.6300   21.1260 H   0  0  0  0  0  0
  -19.6709  -27.3215   20.6762 H   0  0  0  0  0  0
  -17.4214  -26.6737   21.3954 H   0  0  0  0  0  0
  -18.0269  -26.0048   22.8919 H   0  0  0  0  0  0
  -19.7832  -30.7284   24.2330 H   0  0  0  0  0  0
  -17.4895  -31.6243   24.5187 H   0  0  0  0  0  0
  -15.5274  -30.2985   23.7561 H   0  0  0  0  0  0
  -15.8658  -28.0852   22.6954 H   0  0  0  0  0  0
  -24.5962  -30.6951   25.7972 H   0  0  0  0  0  0
  -24.8991  -32.2781   26.5040 H   0  0  0  0  0  0
  -25.8236  -30.8859   27.0264 H   0  0  0  0  0  0
  -26.2760  -29.6829   24.1070 H   0  0  0  0  0  0
  -27.4087  -29.7204   25.4371 H   0  0  0  0  0  0
  -27.8556  -30.4381   23.9072 H   0  0  0  0  0  0
  -27.2621  -33.3553   26.2096 H   0  0  0  0  0  0
  -28.3799  -32.6890   25.0278 H   0  0  0  0  0  0
  -28.0728  -31.8399   26.5336 H   0  0  0  0  0  0
  -28.2587  -38.0115   24.7490 H   0  0  0  0  0  0
  -28.1073  -36.2631   24.6307 H   0  0  0  0  0  0
  -27.2303  -37.1491   25.8871 H   0  0  0  0  0  0
  -20.9293  -29.8608   21.6763 H   0  0  0  0  0  0
  -26.0168  -38.2852   24.1449 H   0  0  0  0  0  0
  -30.4558  -21.4436   20.4464 H   0  0  0  0  0  0
  -27.0005  -18.9632   21.1016 H   0  0  0  0  0  0
  -31.0662  -15.1653   23.6836 H   0  0  0  0  0  0
  -29.3090  -15.0102   23.5396 H   0  0  0  0  0  0
  -30.3614  -13.6378   23.1913 H   0  0  0  0  0  0
  -27.5877  -22.3291   21.9968 H   0  0  0  0  0  0
  -26.4488  -21.7357   20.8384 H   0  0  0  0  0  0
  -28.7968  -22.8303   19.4290 H   0  0  0  0  0  0
  -27.1101  -23.2159   19.2573 H   0  0  0  0  0  0
  -28.9116  -24.3099   21.4922 H   0  0  0  0  0  0
  -27.2549  -24.7706   21.1951 H   0  0  0  0  0  0
  -28.2583  -16.7899   21.2027 H   0  0  0  0  0  0
  -29.1935  -16.8227   19.7294 H   0  0  0  0  0  0
  -30.3838  -17.1225   22.5525 H   0  0  0  0  0  0
  -31.3355  -16.9485   21.1126 H   0  0  0  0  0  0
  -28.2079  -25.3858   18.7204 H   0  0  0  0  0  0
  -29.7405  -25.3591   19.5473 H   0  0  0  0  0  0
  1 25  1  0  0  0
  1 30  2  0  0  0
  1 83  1  0  0  0
  2  3  1  0  0  0
  2 25  1  0  0  0
  2 84  1  0  0  0
  2 85  1  0  0  0
  3  4  1  0  0  0
  3 86  1  0  0  0
  3 87  1  0  0  0
  4  5  1  0  0  0
  4 88  1  0  0  0
  4 89  1  0  0  0
  5  6  1  0  0  0
  5 26  1  0  0  0
  5 90  1  0  0  0
  6 25  1  0  0  0
  6 91  1  0  0  0
  6 92  1  0  0  0
  7  8  2  0  0  0
  7 26  1  0  0  0
  7 29  1  0  0  0
  8  9  1  0  0  0
  8 22  1  0  0  0
  9 10  1  0  0  0
  9 27  2  0  0  0
 10 11  2  0  0  0
 10 15  1  0  0  0
 11 12  1  0  0  0
 11 93  1  0  0  0
 12 13  2  0  0  0
 12 94  1  0  0  0
 13 14  1  0  0  0
 13 31  1  0  0  0
 14 15  2  0  0  0
 14 95  1  0  0  0
 15 96  1  0  0  0
 16 17  2  0  0  0
 16 21  1  0  0  0
 16 31  1  0  0  0
 17 18  1  0  0  0
 17 97  1  0  0  0
 18 19  2  0  0  0
 18 98  1  0  0  0
 19 20  1  0  0  0
 19 24  1  0  0  0
 20 21  2  0  0  0
 20 99  1  0  0  0
 21 23  1  0  0  0
 22 28  1  0  0  0
 22 32  2  0  0  0
 26 27  1  0  0  0
 28100  1  0  0  0
 28101  1  0  0  0
 29102  1  0  0  0
 29103  1  0  0  0
 33 34  1  0  0  0
 33 66  1  0  0  0
 33 70  2  0  0  0
 34 36  1  0  0  0
 34 59  1  0  0  0
 34104  1  0  0  0
 35 44  2  0  0  0
 35 45  1  0  0  0
 35 68  1  0  0  0
 36 56  1  0  0  0
 36105  1  0  0  0
 37 39  1  0  0  0
 37 47  1  0  0  0
 37 66  1  0  0  0
 37106  1  0  0  0
 38 43  2  0  0  0
 38 46  1  0  0  0
 38 47  1  0  0  0
 39 64  1  0  0  0
 39 67  2  0  0  0
 40 52  1  0  0  0
 40 53  2  0  0  0
 40 58  1  0  0  0
 41107  1  0  0  0
 41108  1  0  0  0
 41109  1  0  0  0
 41 48  1  0  0  0
 42 43  1  0  0  0
 42 66  1  0  0  0
 42110  1  0  0  0
 42111  1  0  0  0
 43 44  1  0  0  0
 44112  1  0  0  0
 45 46  2  0  0  0
 45113  1  0  0  0
 46114  1  0  0  0
 47115  1  0  0  0
 47116  1  0  0  0
 48 56  1  0  0  0
 48 65  1  0  0  0
 48117  1  0  0  0
 49 50  1  0  0  0
 49 53  1  0  0  0
 49 64  1  0  0  0
 49118  1  0  0  0
 50 51  1  0  0  0
 50119  1  0  0  0
 50120  1  0  0  0
 51 52  1  0  0  0
 51121  1  0  0  0
 51122  1  0  0  0
 52123  1  0  0  0
 52124  1  0  0  0
 53 54  1  0  0  0
 54 55  2  0  0  0
 54125  1  0  0  0
 55 57  1  0  0  0
 55126  1  0  0  0
 56 69  2  0  0  0
 57 58  2  0  0  0
 57127  1  0  0  0
 58128  1  0  0  0
 59 60  1  0  0  0
 59 61  1  0  0  0
 59 62  1  0  0  0
 60129  1  0  0  0
 60130  1  0  0  0
 60131  1  0  0  0
 61132  1  0  0  0
 61133  1  0  0  0
 61134  1  0  0  0
 62135  1  0  0  0
 62136  1  0  0  0
 62137  1  0  0  0
 63 65  1  0  0  0
 63138  1  0  0  0
 63139  1  0  0  0
 63140  1  0  0  0
 64141  1  0  0  0
 65142  1  0  0  0
 68 80  1  0  0  0
 71 73  1  0  0  0
 71 81  2  0  0  0
 71143  1  0  0  0
 72 73  2  0  0  0
 72 82  1  0  0  0
 72144  1  0  0  0
 73 75  1  0  0  0
 74 83  1  0  0  0
 74145  1  0  0  0
 74146  1  0  0  0
 74147  1  0  0  0
 75 76  1  0  0  0
 75148  1  0  0  0
 75149  1  0  0  0
 76 77  1  0  0  0
 76150  1  0  0  0
 76151  1  0  0  0
 77 80  1  0  0  0
 77152  1  0  0  0
 77153  1  0  0  0
 78 79  1  0  0  0
 78 82  1  0  0  0
 78154  1  0  0  0
 78155  1  0  0  0
 79 83  1  0  0  0
 79156  1  0  0  0
 79157  1  0  0  0
 80158  1  0  0  0
 80159  1  0  0  0
 81 82  1  0  0  0
M  ISO  4   1 100  68 101  80 101  83 100
M  END
> <chiral flag>
0

> <version>
0

> <s_m_source_file>
/data/baiqing/PycharmProjects/Reinvent-master-3.2/result/LINK_invent/BTK/process_docking_weight1_custom_sum_contain_oxygen_bond_distance_aromatic_linkinvent_7_9_3/rearranged_h_0052.sdf

> <i_m_source_file_index>
24

> <r_mmod_Potential_Energy-OPLS-2005>
61.5703201293945

> <r_mmod_Stretch_Energy-OPLS-2005>
34.4058876037598

> <r_mmod_Bend_Energy-OPLS-2005>
100.508155822754

> <r_mmod_Torsional_Energy-OPLS-2005>
273.845581054688

> <r_mmod_Improper_Torsional_Energy-OPLS-2005>
4.33873176574707

> <r_mmod_Van_der_Waal_Energy-OPLS-2005>
133.961212158203

> <r_mmod_Electrostatic_Energy-OPLS-2005>
-285.009613037109

> <r_mmod_Solvation_Energy-OPLS-2005>
-212.476272583008

> <b_mmod_Minimization_Converged-OPLS-2005>
0

> <r_mmod_RMS_Derivative-OPLS-2005>
6.26684522628784

$$$$
24
                    3D
 Structure written by MMmdl.
165173  0  0  1  0            999 V2000
  -30.7304  -14.4547   20.6692 C   0  0  0  0  0  0
  -30.4208  -12.3385   19.4180 C   0  0  0  0  0  0
  -29.4870  -12.5291   18.2066 C   0  0  0  0  0  0
  -28.0141  -12.3657   18.6219 C   0  0  0  0  0  0
  -27.6583  -13.2084   19.8729 C   0  0  2  0  0  0
  -28.6947  -12.9905   20.9977 C   0  0  0  0  0  0
  -25.2576  -13.8178   20.5697 C   0  0  0  0  0  0
  -24.1819  -13.0448   20.9160 C   0  0  0  0  0  0
  -24.6376  -11.6918   20.8731 C   0  0  0  0  0  0
  -23.9053  -10.4301   21.0413 C   0  0  0  0  0  0
  -24.3615   -9.4212   21.9192 C   0  0  0  0  0  0
  -23.6293   -8.2244   22.0765 C   0  0  0  0  0  0
  -22.4271   -8.0283   21.3549 C   0  0  0  0  0  0
  -21.9897   -9.0260   20.4655 C   0  0  0  0  0  0
  -22.7232  -10.2137   20.3058 C   0  0  0  0  0  0
  -21.6851   -6.0724   22.5275 C   0  0  0  0  0  0
  -21.4020   -6.5629   23.8212 C   0  0  0  0  0  0
  -21.3658   -5.6780   24.9172 C   0  0  0  0  0  0
  -21.6038   -4.3044   24.7224 C   0  0  0  0  0  0
  -21.8820   -3.8136   23.4349 C   0  0  0  0  0  0
  -21.9195   -4.6951   22.3403 C   0  0  0  0  0  0
  -22.7831  -13.5248   21.1808 C   0  0  0  0  0  0
  -22.1664   -4.2140   21.0981 F   0  0  0  0  0  0
  -21.5628   -3.4531   25.7742 F   0  0  0  0  0  0
  -30.0293  -13.3033   20.4606 N   0  0  0  0  0  0
  -26.2995  -12.9341   20.3339 N   0  0  0  0  0  0
  -25.9297  -11.6498   20.5743 N   0  0  0  0  0  0
  -22.0481  -12.8266   22.0384 N   0  0  0  0  0  0
  -25.4296  -15.1901   20.4179 N   0  0  0  0  0  0
  -31.7898  -14.6969   20.0811 O   0  0  0  0  0  0
  -21.6631   -6.8878   21.4243 O   0  0  0  0  0  0
  -22.3514  -14.5554   20.6653 O   0  0  0  0  0  0
  -24.6148  -31.8677   23.2117 C   0  0  0  0  0  0
  -25.9042  -32.4819   23.8407 C   0  0  1  0  0  0
  -27.2317  -27.4283   20.1033 C   0  0  0  0  0  0
  -25.5908  -33.8611   24.2341 N   0  0  0  0  0  0
  -23.4037  -30.4893   21.5517 C   0  0  2  0  0  0
  -24.8538  -28.9531   20.1202 C   0  0  0  0  0  0
  -22.7414  -29.4632   22.4997 C   0  0  0  0  0  0
  -18.0273  -28.1364   22.8509 C   0  0  0  0  0  0
  -24.1492  -36.7316   23.2637 C   0  0  0  0  0  0
  -25.9324  -30.8314   21.3655 C   0  0  0  0  0  0
  -26.0124  -29.4604   20.7230 C   0  0  0  0  0  0
  -27.2084  -28.7021   20.7194 C   0  0  0  0  0  0
  -26.0638  -26.9409   19.4869 C   0  0  0  0  0  0
  -24.8726  -27.6899   19.5028 C   0  0  0  0  0  0
  -23.6151  -29.8207   20.1668 C   0  0  0  0  0  0
  -25.4113  -36.3111   24.0340 C   0  0  1  0  0  0
  -20.5856  -28.3642   23.1305 C   0  0  2  0  0  0
  -20.6747  -26.9388   22.5389 C   0  0  0  0  0  0
  -19.5700  -26.6344   21.5213 C   0  0  0  0  0  0
  -18.1917  -26.7885   22.1690 C   0  0  0  0  0  0
  -19.1519  -28.8816   23.2903 C   0  0  0  0  0  0
  -18.9442  -30.1421   23.8916 C   0  0  0  0  0  0
  -17.6455  -30.6574   24.0576 C   0  0  0  0  0  0
  -25.9032  -34.9472   23.5137 C   0  0  0  0  0  0
  -16.5347  -29.9083   23.6339 C   0  0  0  0  0  0
  -16.7263  -28.6500   23.0362 C   0  0  0  0  0  0
  -26.4470  -31.6588   25.0718 C   0  0  0  0  0  0
  -25.3733  -31.3690   26.1466 C   0  0  0  0  0  0
  -27.0289  -30.3041   24.6065 C   0  0  0  0  0  0
  -27.6057  -32.4287   25.7475 C   0  0  0  0  0  0
  -27.5583  -37.1818   24.8465 C   0  0  0  0  0  0
  -21.4132  -29.3024   22.3735 N   0  0  0  0  0  0
  -26.4298  -37.3791   23.9400 N   0  0  0  0  0  0
  -24.6680  -31.0770   22.1014 N   0  0  0  0  0  0
  -23.4178  -28.8164   23.3028 O   0  0  0  0  0  0
  -28.3713  -26.6620   20.0144 O   0  0  0  0  0  0
  -26.5586  -34.8922   22.4699 O   0  0  0  0  0  0
  -23.5343  -32.1411   23.7523 O   0  0  0  0  0  0
  -27.1044  -20.7815   19.9051 C   0  0  0  0  0  0
  -29.1512  -20.1022   20.9743 C   0  0  0  0  0  0
  -28.2566  -21.1463   20.6392 C   0  0  0  0  0  0
  -26.8895  -19.4285   19.5641 C   0  0  0  0  0  0
  -28.8793  -18.7721   20.5691 C   0  0  0  0  0  0
  -24.5099  -19.9740   18.6901 C   0  0  0  0  0  0
  -31.1934  -15.5241   22.7963 C   0  0  0  0  0  0
  -25.6533  -18.9533   18.8071 C   0  0  0  0  0  0
  -29.8795  -17.6255   20.7788 C   0  0  0  0  0  0
  -27.7944  -24.7712   21.6005 C   0  0  0  0  0  0
  -29.3011  -16.3464   21.4556 C   0  0  0  0  0  0
  -28.7536  -25.9175   21.1776 C   0  0  0  0  0  0
  -27.6637  -23.5238   20.6839 C   0  0  0  0  0  0
  -27.7676  -18.4531   19.8743 N   0  0  0  0  0  0
  -30.2949  -15.2648   21.6679 N   0  0  0  0  0  0
  -28.5529  -22.4468   21.0423 O   0  0  0  0  0  0
  -31.4614  -12.4550   19.1099 H   0  0  0  0  0  0
  -30.3452  -11.3223   19.8073 H   0  0  0  0  0  0
  -29.7354  -11.8145   17.4208 H   0  0  0  0  0  0
  -29.6384  -13.5218   17.7800 H   0  0  0  0  0  0
  -27.8424  -11.3087   18.8283 H   0  0  0  0  0  0
  -27.3545  -12.6266   17.7928 H   0  0  0  0  0  0
  -27.7005  -14.2538   19.5665 H   0  0  0  0  0  0
  -28.6751  -11.9526   21.3343 H   0  0  0  0  0  0
  -28.4343  -13.5854   21.8731 H   0  0  0  0  0  0
  -25.2769   -9.5674   22.4761 H   0  0  0  0  0  0
  -24.0002   -7.4624   22.7481 H   0  0  0  0  0  0
  -21.0823   -8.8779   19.8963 H   0  0  0  0  0  0
  -22.3708  -10.9671   19.6157 H   0  0  0  0  0  0
  -21.2026   -7.6140   23.9719 H   0  0  0  0  0  0
  -21.1472   -6.0507   25.9075 H   0  0  0  0  0  0
  -22.0607   -2.7601   23.2843 H   0  0  0  0  0  0
  -22.4106  -11.9947   22.4785 H   0  0  0  0  0  0
  -21.1103  -13.1298   22.2595 H   0  0  0  0  0  0
  -24.6688  -15.8443   20.5622 H   0  0  0  0  0  0
  -26.2909  -15.6426   20.1361 H   0  0  0  0  0  0
  -26.7114  -32.5526   23.1174 H   0  0  0  0  0  0
  -25.0071  -33.9756   25.0500 H   0  0  0  0  0  0
  -22.6903  -31.3044   21.4114 H   0  0  0  0  0  0
  -23.3734  -35.9665   23.3313 H   0  0  0  0  0  0
  -24.3587  -36.8912   22.2047 H   0  0  0  0  0  0
  -23.7257  -37.6536   23.6632 H   0  0  0  0  0  0
  -26.0366  -31.5930   20.5911 H   0  0  0  0  0  0
  -26.8215  -30.8949   21.9812 H   0  0  0  0  0  0
  -28.1092  -29.0922   21.1708 H   0  0  0  0  0  0
  -26.0798  -25.9777   18.9980 H   0  0  0  0  0  0
  -23.9834  -27.2946   19.0330 H   0  0  0  0  0  0
  -23.7237  -30.5936   19.4050 H   0  0  0  0  0  0
  -22.7408  -29.2391   19.8700 H   0  0  0  0  0  0
  -25.1287  -36.1992   25.0830 H   0  0  0  0  0  0
  -20.9946  -28.3184   24.1423 H   0  0  0  0  0  0
  -21.6606  -26.7451   22.1142 H   0  0  0  0  0  0
  -20.5675  -26.2246   23.3571 H   0  0  0  0  0  0
  -19.6869  -25.6253   21.1238 H   0  0  0  0  0  0
  -19.6554  -27.3155   20.6736 H   0  0  0  0  0  0
  -17.4133  -26.6518   21.4179 H   0  0  0  0  0  0
  -18.0443  -26.0069   22.9145 H   0  0  0  0  0  0
  -19.7922  -30.7227   24.2304 H   0  0  0  0  0  0
  -17.5042  -31.6258   24.5181 H   0  0  0  0  0  0
  -15.5361  -30.3008   23.7689 H   0  0  0  0  0  0
  -15.8660  -28.0834   22.7076 H   0  0  0  0  0  0
  -24.5914  -30.7032   25.7799 H   0  0  0  0  0  0
  -24.8903  -32.2836   26.4916 H   0  0  0  0  0  0
  -25.8089  -30.8856   27.0223 H   0  0  0  0  0  0
  -26.2827  -29.6815   24.1121 H   0  0  0  0  0  0
  -27.4075  -29.7265   25.4504 H   0  0  0  0  0  0
  -27.8650  -30.4350   23.9193 H   0  0  0  0  0  0
  -27.2699  -33.3581   26.2090 H   0  0  0  0  0  0
  -28.3861  -32.6860   25.0294 H   0  0  0  0  0  0
  -28.0731  -31.8372   26.5360 H   0  0  0  0  0  0
  -28.2616  -38.0101   24.7499 H   0  0  0  0  0  0
  -28.1062  -36.2635   24.6312 H   0  0  0  0  0  0
  -27.2289  -37.1502   25.8864 H   0  0  0  0  0  0
  -20.9303  -29.8754   21.6972 H   0  0  0  0  0  0
  -26.0197  -38.2870   24.1399 H   0  0  0  0  0  0
  -26.3790  -21.5162   19.5998 H   0  0  0  0  0  0
  -30.0567  -20.3285   21.5204 H   0  0  0  0  0  0
  -23.6462  -19.5298   18.1945 H   0  0  0  0  0  0
  -24.8068  -20.8427   18.1016 H   0  0  0  0  0  0
  -24.1844  -20.3174   19.6724 H   0  0  0  0  0  0
  -31.9834  -16.2221   22.5132 H   0  0  0  0  0  0
  -31.6699  -14.6033   23.1384 H   0  0  0  0  0  0
  -30.6571  -15.9445   23.6472 H   0  0  0  0  0  0
  -25.2715  -18.0594   19.3029 H   0  0  0  0  0  0
  -25.9638  -18.6436   17.8089 H   0  0  0  0  0  0
  -30.7080  -18.0057   21.3761 H   0  0  0  0  0  0
  -30.3010  -17.3709   19.8056 H   0  0  0  0  0  0
  -26.8023  -25.2048   21.7336 H   0  0  0  0  0  0
  -28.0816  -24.4270   22.5940 H   0  0  0  0  0  0
  -28.4796  -15.9634   20.8526 H   0  0  0  0  0  0
  -28.8485  -16.6186   22.4096 H   0  0  0  0  0  0
  -29.7499  -25.5103   21.0033 H   0  0  0  0  0  0
  -28.8591  -26.6161   22.0098 H   0  0  0  0  0  0
  -27.7932  -23.7906   19.6343 H   0  0  0  0  0  0
  -26.6318  -23.1973   20.8059 H   0  0  0  0  0  0
  1 25  1  0  0  0
  1 30  2  0  0  0
  1 85  1  0  0  0
  2  3  1  0  0  0
  2 25  1  0  0  0
  2 87  1  0  0  0
  2 88  1  0  0  0
  3  4  1  0  0  0
  3 89  1  0  0  0
  3 90  1  0  0  0
  4  5  1  0  0  0
  4 91  1  0  0  0
  4 92  1  0  0  0
  5  6  1  0  0  0
  5 26  1  0  0  0
  5 93  1  0  0  0
  6 25  1  0  0  0
  6 94  1  0  0  0
  6 95  1  0  0  0
  7  8  2  0  0  0
  7 26  1  0  0  0
  7 29  1  0  0  0
  8  9  1  0  0  0
  8 22  1  0  0  0
  9 10  1  0  0  0
  9 27  2  0  0  0
 10 11  2  0  0  0
 10 15  1  0  0  0
 11 12  1  0  0  0
 11 96  1  0  0  0
 12 13  2  0  0  0
 12 97  1  0  0  0
 13 14  1  0  0  0
 13 31  1  0  0  0
 14 15  2  0  0  0
 14 98  1  0  0  0
 15 99  1  0  0  0
 16 17  2  0  0  0
 16 21  1  0  0  0
 16 31  1  0  0  0
 17 18  1  0  0  0
 17100  1  0  0  0
 18 19  2  0  0  0
 18101  1  0  0  0
 19 20  1  0  0  0
 19 24  1  0  0  0
 20 21  2  0  0  0
 20102  1  0  0  0
 21 23  1  0  0  0
 22 28  1  0  0  0
 22 32  2  0  0  0
 26 27  1  0  0  0
 28103  1  0  0  0
 28104  1  0  0  0
 29105  1  0  0  0
 29106  1  0  0  0
 33 34  1  0  0  0
 33 66  1  0  0  0
 33 70  2  0  0  0
 34 36  1  0  0  0
 34 59  1  0  0  0
 34107  1  0  0  0
 35 44  2  0  0  0
 35 45  1  0  0  0
 35 68  1  0  0  0
 36 56  1  0  0  0
 36108  1  0  0  0
 37 39  1  0  0  0
 37 47  1  0  0  0
 37 66  1  0  0  0
 37109  1  0  0  0
 38 43  2  0  0  0
 38 46  1  0  0  0
 38 47  1  0  0  0
 39 64  1  0  0  0
 39 67  2  0  0  0
 40 52  1  0  0  0
 40 53  2  0  0  0
 40 58  1  0  0  0
 41110  1  0  0  0
 41111  1  0  0  0
 41112  1  0  0  0
 41 48  1  0  0  0
 42 43  1  0  0  0
 42 66  1  0  0  0
 42113  1  0  0  0
 42114  1  0  0  0
 43 44  1  0  0  0
 44115  1  0  0  0
 45 46  2  0  0  0
 45116  1  0  0  0
 46117  1  0  0  0
 47118  1  0  0  0
 47119  1  0  0  0
 48 56  1  0  0  0
 48 65  1  0  0  0
 48120  1  0  0  0
 49 50  1  0  0  0
 49 53  1  0  0  0
 49 64  1  0  0  0
 49121  1  0  0  0
 50 51  1  0  0  0
 50122  1  0  0  0
 50123  1  0  0  0
 51 52  1  0  0  0
 51124  1  0  0  0
 51125  1  0  0  0
 52126  1  0  0  0
 52127  1  0  0  0
 53 54  1  0  0  0
 54 55  2  0  0  0
 54128  1  0  0  0
 55 57  1  0  0  0
 55129  1  0  0  0
 56 69  2  0  0  0
 57 58  2  0  0  0
 57130  1  0  0  0
 58131  1  0  0  0
 59 60  1  0  0  0
 59 61  1  0  0  0
 59 62  1  0  0  0
 60132  1  0  0  0
 60133  1  0  0  0
 60134  1  0  0  0
 61135  1  0  0  0
 61136  1  0  0  0
 61137  1  0  0  0
 62138  1  0  0  0
 62139  1  0  0  0
 62140  1  0  0  0
 63 65  1  0  0  0
 63141  1  0  0  0
 63142  1  0  0  0
 63143  1  0  0  0
 64144  1  0  0  0
 65145  1  0  0  0
 68 82  1  0  0  0
 71 73  2  0  0  0
 71 74  1  0  0  0
 71146  1  0  0  0
 72 73  1  0  0  0
 72 75  2  0  0  0
 72147  1  0  0  0
 73 86  1  0  0  0
 74 78  1  0  0  0
 74 84  2  0  0  0
 75 79  1  0  0  0
 75 84  1  0  0  0
 76 78  1  0  0  0
 76148  1  0  0  0
 76149  1  0  0  0
 76150  1  0  0  0
 77 85  1  0  0  0
 77151  1  0  0  0
 77152  1  0  0  0
 77153  1  0  0  0
 78154  1  0  0  0
 78155  1  0  0  0
 79 81  1  0  0  0
 79156  1  0  0  0
 79157  1  0  0  0
 80 82  1  0  0  0
 80 83  1  0  0  0
 80158  1  0  0  0
 80159  1  0  0  0
 81 85  1  0  0  0
 81160  1  0  0  0
 81161  1  0  0  0
 82162  1  0  0  0
 82163  1  0  0  0
 83 86  1  0  0  0
 83164  1  0  0  0
 83165  1  0  0  0
M  ISO  4   1 100  68 101  82 101  85 100
M  END
> <chiral flag>
0

> <version>
0

> <s_m_source_file>
/data/baiqing/PycharmProjects/Reinvent-master-3.2/result/LINK_invent/BTK/process_docking_weight1_custom_sum_contain_oxygen_bond_distance_aromatic_linkinvent_7_9_3/rearranged_h_0052.sdf

> <i_m_source_file_index>
25

> <r_mmod_Potential_Energy-OPLS-2005>
-72.5132064819336

> <r_mmod_Stretch_Energy-OPLS-2005>
42.2129669189453

> <r_mmod_Bend_Energy-OPLS-2005>
113.196807861328

> <r_mmod_Torsional_Energy-OPLS-2005>
299.422576904297

> <r_mmod_Improper_Torsional_Energy-OPLS-2005>
5.1591796875

> <r_mmod_Van_der_Waal_Energy-OPLS-2005>
147.333267211914

> <r_mmod_Electrostatic_Energy-OPLS-2005>
-495.09423828125

> <r_mmod_Solvation_Energy-OPLS-2005>
-195.611694335938

> <b_mmod_Minimization_Converged-OPLS-2005>
0

> <r_mmod_RMS_Derivative-OPLS-2005>
2.17216539382935

$$$$
25
                    3D
 Structure written by MMmdl.
163171  0  0  1  0            999 V2000
  -30.6418  -14.6628   20.5034 C   0  0  0  0  0  0
  -30.4485  -12.4213   19.4342 C   0  0  0  0  0  0
  -29.5049  -12.5119   18.2130 C   0  0  0  0  0  0
  -28.0273  -12.3568   18.6288 C   0  0  0  0  0  0
  -27.6589  -13.2125   19.8721 C   0  0  2  0  0  0
  -28.7179  -13.0148   20.9775 C   0  0  0  0  0  0
  -25.2605  -13.8151   20.5696 C   0  0  0  0  0  0
  -24.1845  -13.0420   20.9162 C   0  0  0  0  0  0
  -24.6405  -11.6892   20.8721 C   0  0  0  0  0  0
  -23.9047  -10.4286   21.0388 C   0  0  0  0  0  0
  -24.3605   -9.4222   21.9181 C   0  0  0  0  0  0
  -23.6281   -8.2264   22.0769 C   0  0  0  0  0  0
  -22.4278   -8.0285   21.3534 C   0  0  0  0  0  0
  -21.9882   -9.0257   20.4648 C   0  0  0  0  0  0
  -22.7206  -10.2137   20.3047 C   0  0  0  0  0  0
  -21.6860   -6.0729   22.5278 C   0  0  0  0  0  0
  -21.4032   -6.5640   23.8210 C   0  0  0  0  0  0
  -21.3656   -5.6790   24.9171 C   0  0  0  0  0  0
  -21.6041   -4.3049   24.7213 C   0  0  0  0  0  0
  -21.8825   -3.8139   23.4337 C   0  0  0  0  0  0
  -21.9197   -4.6955   22.3396 C   0  0  0  0  0  0
  -22.7876  -13.5258   21.1812 C   0  0  0  0  0  0
  -22.1662   -4.2145   21.0964 F   0  0  0  0  0  0
  -21.5615   -3.4528   25.7725 F   0  0  0  0  0  0
  -30.0023  -13.4436   20.4087 N   0  0  0  0  0  0
  -26.3040  -12.9325   20.3379 N   0  0  0  0  0  0
  -25.9340  -11.6481   20.5777 N   0  0  0  0  0  0
  -22.0491  -12.8280   22.0379 N   0  0  0  0  0  0
  -25.4283  -15.1871   20.4148 N   0  0  0  0  0  0
  -31.8219  -14.7384   20.1421 O   0  0  0  0  0  0
  -21.6631   -6.8885   21.4247 O   0  0  0  0  0  0
  -22.3578  -14.5562   20.6659 O   0  0  0  0  0  0
  -24.6217  -31.8618   23.2065 C   0  0  0  0  0  0
  -25.9088  -32.4786   23.8377 C   0  0  1  0  0  0
  -27.2295  -27.3566   20.1186 C   0  0  0  0  0  0
  -25.5926  -33.8578   24.2305 N   0  0  0  0  0  0
  -23.4146  -30.4837   21.5492 C   0  0  2  0  0  0
  -24.8624  -28.9411   20.1121 C   0  0  0  0  0  0
  -22.7444  -29.4640   22.4992 C   0  0  0  0  0  0
  -18.0270  -28.1361   22.8459 C   0  0  0  0  0  0
  -24.1497  -36.7297   23.2635 C   0  0  0  0  0  0
  -25.9480  -30.8053   21.3697 C   0  0  0  0  0  0
  -26.0271  -29.4326   20.7176 C   0  0  0  0  0  0
  -27.2156  -28.6497   20.7157 C   0  0  0  0  0  0
  -26.0489  -26.9096   19.4861 C   0  0  0  0  0  0
  -24.8718  -27.6831   19.4880 C   0  0  0  0  0  0
  -23.6268  -29.8139   20.1641 C   0  0  0  0  0  0
  -25.4108  -36.3083   24.0339 C   0  0  1  0  0  0
  -20.5851  -28.3701   23.1310 C   0  0  2  0  0  0
  -20.6787  -26.9460   22.5379 C   0  0  0  0  0  0
  -19.5781  -26.6443   21.5160 C   0  0  0  0  0  0
  -18.1961  -26.7926   22.1565 C   0  0  0  0  0  0
  -19.1496  -28.8845   23.2879 C   0  0  0  0  0  0
  -18.9375  -30.1440   23.8899 C   0  0  0  0  0  0
  -17.6357  -30.6556   24.0537 C   0  0  0  0  0  0
  -25.9037  -34.9439   23.5113 C   0  0  0  0  0  0
  -16.5280  -29.9038   23.6261 C   0  0  0  0  0  0
  -16.7242  -28.6454   23.0297 C   0  0  0  0  0  0
  -26.4484  -31.6579   25.0721 C   0  0  0  0  0  0
  -25.3751  -31.3697   26.1481 C   0  0  0  0  0  0
  -27.0322  -30.3026   24.6122 C   0  0  0  0  0  0
  -27.6064  -32.4301   25.7487 C   0  0  0  0  0  0
  -27.5574  -37.1814   24.8458 C   0  0  0  0  0  0
  -21.4149  -29.3094   22.3760 N   0  0  0  0  0  0
  -26.4291  -37.3769   23.9404 N   0  0  0  0  0  0
  -24.6812  -31.0645   22.1010 N   0  0  0  0  0  0
  -23.4170  -28.8123   23.3021 O   0  0  0  0  0  0
  -28.3484  -26.5251   20.1345 O   0  0  0  0  0  0
  -26.5579  -34.8911   22.4668 O   0  0  0  0  0  0
  -23.5398  -32.1413   23.7422 O   0  0  0  0  0  0
  -28.2332  -20.2380   19.9880 C   0  0  0  0  0  0
  -29.1503  -21.2032   20.4898 C   0  0  0  0  0  0
  -30.7714  -19.5058   20.5130 C   0  0  0  0  0  0
  -29.8363  -18.5202   20.0553 C   0  0  0  0  0  0
  -32.2313  -19.1760   20.7471 C   0  0  0  0  0  0
  -29.0944  -17.3113   24.0295 C   0  0  0  0  0  0
  -28.6794  -22.6100   20.9923 C   0  0  0  0  0  0
  -30.2122  -17.0256   19.6947 C   0  0  0  0  0  0
  -29.9132  -16.5483   22.9843 C   0  0  0  0  0  0
  -28.8826  -23.9358   20.1478 C   0  0  0  0  0  0
  -29.0646  -16.1970   21.7520 C   0  0  0  0  0  0
  -28.1685  -25.2096   20.7658 C   0  0  0  0  0  0
  -28.5676  -18.9286   19.7692 N   0  0  0  0  0  0
  -30.4304  -20.8158   20.7364 N   0  0  0  0  0  0
  -29.8950  -15.8355   20.5883 N   0  0  0  0  0  0
  -31.4812  -12.5606   19.1085 H   0  0  0  0  0  0
  -30.4173  -11.4229   19.8758 H   0  0  0  0  0  0
  -29.7733  -11.7491   17.4816 H   0  0  0  0  0  0
  -29.6444  -13.4719   17.7139 H   0  0  0  0  0  0
  -27.8564  -11.2998   18.8416 H   0  0  0  0  0  0
  -27.3758  -12.6042   17.7893 H   0  0  0  0  0  0
  -27.6861  -14.2565   19.5594 H   0  0  0  0  0  0
  -28.7632  -11.9591   21.2471 H   0  0  0  0  0  0
  -28.4823  -13.4859   21.9224 H   0  0  0  0  0  0
  -25.2759   -9.5697   22.4740 H   0  0  0  0  0  0
  -23.9971   -7.4678   22.7516 H   0  0  0  0  0  0
  -21.0792   -8.8780   19.8974 H   0  0  0  0  0  0
  -22.3657  -10.9677   19.6149 H   0  0  0  0  0  0
  -21.2051   -7.6150   23.9710 H   0  0  0  0  0  0
  -21.1454   -6.0513   25.9066 H   0  0  0  0  0  0
  -22.0599   -2.7601   23.2832 H   0  0  0  0  0  0
  -22.4083  -11.9952   22.4796 H   0  0  0  0  0  0
  -21.1129  -13.1352   22.2574 H   0  0  0  0  0  0
  -24.6607  -15.8373   20.5493 H   0  0  0  0  0  0
  -26.2804  -15.6386   20.1089 H   0  0  0  0  0  0
  -26.7165  -32.5475   23.1142 H   0  0  0  0  0  0
  -25.0149  -33.9724   25.0515 H   0  0  0  0  0  0
  -22.7088  -31.3044   21.4073 H   0  0  0  0  0  0
  -23.3747  -35.9640   23.3292 H   0  0  0  0  0  0
  -24.3590  -36.8906   22.2042 H   0  0  0  0  0  0
  -23.7253  -37.6512   23.6651 H   0  0  0  0  0  0
  -26.0635  -31.5693   20.6002 H   0  0  0  0  0  0
  -26.8307  -30.8613   21.9941 H   0  0  0  0  0  0
  -28.1077  -29.0150   21.2066 H   0  0  0  0  0  0
  -26.0328  -25.9428   19.0016 H   0  0  0  0  0  0
  -23.9777  -27.3088   19.0072 H   0  0  0  0  0  0
  -23.7360  -30.5875   19.4037 H   0  0  0  0  0  0
  -22.7486  -29.2381   19.8668 H   0  0  0  0  0  0
  -25.1284  -36.1947   25.0830 H   0  0  0  0  0  0
  -20.9898  -28.3272   24.1451 H   0  0  0  0  0  0
  -20.5741  -26.2278   23.3518 H   0  0  0  0  0  0
  -21.6653  -26.7602   22.1130 H   0  0  0  0  0  0
  -19.6971  -25.6363   21.1145 H   0  0  0  0  0  0
  -19.6676  -27.3302   20.6725 H   0  0  0  0  0  0
  -17.4259  -26.6727   21.3918 H   0  0  0  0  0  0
  -18.0372  -26.0061   22.8956 H   0  0  0  0  0  0
  -19.7822  -30.7282   24.2295 H   0  0  0  0  0  0
  -17.4862  -31.6241   24.5140 H   0  0  0  0  0  0
  -15.5247  -30.2902   23.7566 H   0  0  0  0  0  0
  -15.8651  -28.0771   22.6979 H   0  0  0  0  0  0
  -24.5943  -30.7012   25.7833 H   0  0  0  0  0  0
  -24.8919  -32.2853   26.4919 H   0  0  0  0  0  0
  -25.8110  -30.8894   27.0252 H   0  0  0  0  0  0
  -26.2873  -29.6808   24.1141 H   0  0  0  0  0  0
  -27.4059  -29.7250   25.4580 H   0  0  0  0  0  0
  -27.8731  -30.4345   23.9303 H   0  0  0  0  0  0
  -27.2689  -33.3608   26.2072 H   0  0  0  0  0  0
  -28.3875  -32.6838   25.0301 H   0  0  0  0  0  0
  -28.0743  -31.8408   26.5397 H   0  0  0  0  0  0
  -28.2600  -38.0102   24.7492 H   0  0  0  0  0  0
  -28.1067  -36.2639   24.6308 H   0  0  0  0  0  0
  -27.2293  -37.1472   25.8860 H   0  0  0  0  0  0
  -20.9314  -29.8909   21.7054 H   0  0  0  0  0  0
  -26.0179  -38.2853   24.1409 H   0  0  0  0  0  0
  -27.2032  -20.5058   19.8040 H   0  0  0  0  0  0
  -32.3386  -18.3171   21.4056 H   0  0  0  0  0  0
  -32.7640  -20.0134   21.1973 H   0  0  0  0  0  0
  -32.7202  -18.9440   19.8020 H   0  0  0  0  0  0
  -29.6899  -17.5253   24.9175 H   0  0  0  0  0  0
  -28.2170  -16.7455   24.3400 H   0  0  0  0  0  0
  -28.7473  -18.2652   23.6283 H   0  0  0  0  0  0
  -29.1518  -22.7695   21.9632 H   0  0  0  0  0  0
  -27.6170  -22.5120   21.2166 H   0  0  0  0  0  0
  -31.2709  -17.0257   19.4372 H   0  0  0  0  0  0
  -29.7119  -16.8106   18.7479 H   0  0  0  0  0  0
  -30.3293  -15.6395   23.4214 H   0  0  0  0  0  0
  -30.7617  -17.1673   22.6927 H   0  0  0  0  0  0
  -29.9493  -24.1350   20.0456 H   0  0  0  0  0  0
  -28.4938  -23.7806   19.1411 H   0  0  0  0  0  0
  -28.4184  -17.0351   21.5077 H   0  0  0  0  0  0
  -28.3266  -15.4514   22.0102 H   0  0  0  0  0  0
  -28.5283  -25.3268   21.7893 H   0  0  0  0  0  0
  -27.1092  -24.9709   20.8772 H   0  0  0  0  0  0
  1 25  1  0  0  0
  1 30  2  0  0  0
  1 85  1  0  0  0
  2  3  1  0  0  0
  2 25  1  0  0  0
  2 86  1  0  0  0
  2 87  1  0  0  0
  3  4  1  0  0  0
  3 88  1  0  0  0
  3 89  1  0  0  0
  4  5  1  0  0  0
  4 90  1  0  0  0
  4 91  1  0  0  0
  5  6  1  0  0  0
  5 26  1  0  0  0
  5 92  1  0  0  0
  6 25  1  0  0  0
  6 93  1  0  0  0
  6 94  1  0  0  0
  7  8  2  0  0  0
  7 26  1  0  0  0
  7 29  1  0  0  0
  8  9  1  0  0  0
  8 22  1  0  0  0
  9 10  1  0  0  0
  9 27  2  0  0  0
 10 11  2  0  0  0
 10 15  1  0  0  0
 11 12  1  0  0  0
 11 95  1  0  0  0
 12 13  2  0  0  0
 12 96  1  0  0  0
 13 14  1  0  0  0
 13 31  1  0  0  0
 14 15  2  0  0  0
 14 97  1  0  0  0
 15 98  1  0  0  0
 16 17  2  0  0  0
 16 21  1  0  0  0
 16 31  1  0  0  0
 17 18  1  0  0  0
 17 99  1  0  0  0
 18 19  2  0  0  0
 18100  1  0  0  0
 19 20  1  0  0  0
 19 24  1  0  0  0
 20 21  2  0  0  0
 20101  1  0  0  0
 21 23  1  0  0  0
 22 28  1  0  0  0
 22 32  2  0  0  0
 26 27  1  0  0  0
 28102  1  0  0  0
 28103  1  0  0  0
 29104  1  0  0  0
 29105  1  0  0  0
 33 34  1  0  0  0
 33 66  1  0  0  0
 33 70  2  0  0  0
 34 36  1  0  0  0
 34 59  1  0  0  0
 34106  1  0  0  0
 35 44  2  0  0  0
 35 45  1  0  0  0
 35 68  1  0  0  0
 36 56  1  0  0  0
 36107  1  0  0  0
 37 39  1  0  0  0
 37 47  1  0  0  0
 37 66  1  0  0  0
 37108  1  0  0  0
 38 43  2  0  0  0
 38 46  1  0  0  0
 38 47  1  0  0  0
 39 64  1  0  0  0
 39 67  2  0  0  0
 40 52  1  0  0  0
 40 53  2  0  0  0
 40 58  1  0  0  0
 41109  1  0  0  0
 41110  1  0  0  0
 41111  1  0  0  0
 41 48  1  0  0  0
 42 43  1  0  0  0
 42 66  1  0  0  0
 42112  1  0  0  0
 42113  1  0  0  0
 43 44  1  0  0  0
 44114  1  0  0  0
 45 46  2  0  0  0
 45115  1  0  0  0
 46116  1  0  0  0
 47117  1  0  0  0
 47118  1  0  0  0
 48 56  1  0  0  0
 48 65  1  0  0  0
 48119  1  0  0  0
 49 50  1  0  0  0
 49 53  1  0  0  0
 49 64  1  0  0  0
 49120  1  0  0  0
 50 51  1  0  0  0
 50121  1  0  0  0
 50122  1  0  0  0
 51 52  1  0  0  0
 51123  1  0  0  0
 51124  1  0  0  0
 52125  1  0  0  0
 52126  1  0  0  0
 53 54  1  0  0  0
 54 55  2  0  0  0
 54127  1  0  0  0
 55 57  1  0  0  0
 55128  1  0  0  0
 56 69  2  0  0  0
 57 58  2  0  0  0
 57129  1  0  0  0
 58130  1  0  0  0
 59 60  1  0  0  0
 59 61  1  0  0  0
 59 62  1  0  0  0
 60131  1  0  0  0
 60132  1  0  0  0
 60133  1  0  0  0
 61134  1  0  0  0
 61135  1  0  0  0
 61136  1  0  0  0
 62137  1  0  0  0
 62138  1  0  0  0
 62139  1  0  0  0
 63 65  1  0  0  0
 63140  1  0  0  0
 63141  1  0  0  0
 63142  1  0  0  0
 64143  1  0  0  0
 65144  1  0  0  0
 68 82  1  0  0  0
 71 72  2  0  0  0
 71 83  1  0  0  0
 71145  1  0  0  0
 72 77  1  0  0  0
 72 84  1  0  0  0
 73 74  1  0  0  0
 73 75  1  0  0  0
 73 84  2  0  0  0
 74 78  1  0  0  0
 74 83  2  0  0  0
 75146  1  0  0  0
 75147  1  0  0  0
 75148  1  0  0  0
 76 79  1  0  0  0
 76149  1  0  0  0
 76150  1  0  0  0
 76151  1  0  0  0
 77 80  1  0  0  0
 77152  1  0  0  0
 77153  1  0  0  0
 78 85  1  0  0  0
 78154  1  0  0  0
 78155  1  0  0  0
 79 81  1  0  0  0
 79156  1  0  0  0
 79157  1  0  0  0
 80 82  1  0  0  0
 80158  1  0  0  0
 80159  1  0  0  0
 81 85  1  0  0  0
 81160  1  0  0  0
 81161  1  0  0  0
 82162  1  0  0  0
 82163  1  0  0  0
M  ISO  4   1 100  68 101  82 101  85 100
M  END
> <chiral flag>
0

> <version>
0

> <s_m_source_file>
/data/baiqing/PycharmProjects/Reinvent-master-3.2/result/LINK_invent/BTK/process_docking_weight1_custom_sum_contain_oxygen_bond_distance_aromatic_linkinvent_7_9_3/rearranged_h_0052.sdf

> <i_m_source_file_index>
26

> <r_mmod_Potential_Energy-OPLS-2005>
234.760238647461

> <r_mmod_Stretch_Energy-OPLS-2005>
84.5578765869141

> <r_mmod_Bend_Energy-OPLS-2005>
153.591125488281

> <r_mmod_Torsional_Energy-OPLS-2005>
282.906799316406

> <r_mmod_Improper_Torsional_Energy-OPLS-2005>
14.3155994415283

> <r_mmod_Van_der_Waal_Energy-OPLS-2005>
149.851791381836

> <r_mmod_Electrostatic_Energy-OPLS-2005>
-297.314788818359

> <r_mmod_Solvation_Energy-OPLS-2005>
-195.764587402344

> <b_mmod_Minimization_Converged-OPLS-2005>
0

> <r_mmod_RMS_Derivative-OPLS-2005>
3.51201868057251

$$$$
26
                    3D
 Structure written by MMmdl.
157165  0  0  1  0            999 V2000
  -30.5594  -14.8747   20.5103 C   0  0  0  0  0  0
  -30.4611  -12.5602   19.4657 C   0  0  0  0  0  0
  -29.5281  -12.5535   18.2310 C   0  0  0  0  0  0
  -28.0516  -12.3486   18.6341 C   0  0  0  0  0  0
  -27.6485  -13.2198   19.8516 C   0  0  2  0  0  0
  -28.7017  -13.0829   20.9676 C   0  0  0  0  0  0
  -25.2557  -13.8163   20.5613 C   0  0  0  0  0  0
  -24.1824  -13.0431   20.9154 C   0  0  0  0  0  0
  -24.6395  -11.6904   20.8686 C   0  0  0  0  0  0
  -23.9057  -10.4300   21.0388 C   0  0  0  0  0  0
  -24.3603   -9.4229   21.9178 C   0  0  0  0  0  0
  -23.6276   -8.2268   22.0765 C   0  0  0  0  0  0
  -22.4252   -8.0308   21.3573 C   0  0  0  0  0  0
  -21.9891   -9.0267   20.4661 C   0  0  0  0  0  0
  -22.7221  -10.2147   20.3051 C   0  0  0  0  0  0
  -21.6843   -6.0742   22.5288 C   0  0  0  0  0  0
  -21.4008   -6.5641   23.8223 C   0  0  0  0  0  0
  -21.3661   -5.6795   24.9185 C   0  0  0  0  0  0
  -21.6040   -4.3056   24.7235 C   0  0  0  0  0  0
  -21.8816   -3.8153   23.4351 C   0  0  0  0  0  0
  -21.9193   -4.6973   22.3409 C   0  0  0  0  0  0
  -22.7863  -13.5257   21.1834 C   0  0  0  0  0  0
  -22.1652   -4.2152   21.0987 F   0  0  0  0  0  0
  -21.5629   -3.4544   25.7748 F   0  0  0  0  0  0
  -29.9691  -13.6033   20.4186 N   0  0  0  0  0  0
  -26.2970  -12.9322   20.3219 N   0  0  0  0  0  0
  -25.9306  -11.6475   20.5609 N   0  0  0  0  0  0
  -22.0503  -12.8234   22.0389 N   0  0  0  0  0  0
  -25.4242  -15.1870   20.4004 N   0  0  0  0  0  0
  -31.7170  -14.9675   20.0832 O   0  0  0  0  0  0
  -21.6634   -6.8888   21.4249 O   0  0  0  0  0  0
  -22.3543  -14.5569   20.6713 O   0  0  0  0  0  0
  -24.6401  -31.8478   23.1913 C   0  0  0  0  0  0
  -25.9179  -32.4712   23.8300 C   0  0  1  0  0  0
  -27.2259  -27.1992   20.1230 C   0  0  0  0  0  0
  -25.5933  -33.8511   24.2222 N   0  0  0  0  0  0
  -23.4430  -30.4649   21.5391 C   0  0  2  0  0  0
  -24.8888  -28.9007   20.1117 C   0  0  0  0  0  0
  -22.7570  -29.4535   22.4921 C   0  0  0  0  0  0
  -18.0300  -28.1383   22.8475 C   0  0  0  0  0  0
  -24.1488  -36.7269   23.2646 C   0  0  0  0  0  0
  -25.9939  -30.7421   21.3769 C   0  0  0  0  0  0
  -26.0662  -29.3588   20.7168 C   0  0  0  0  0  0
  -27.2384  -28.5233   20.7024 C   0  0  0  0  0  0
  -26.0208  -26.8253   19.4903 C   0  0  0  0  0  0
  -24.8744  -27.6447   19.4885 C   0  0  0  0  0  0
  -23.6619  -29.7925   20.1591 C   0  0  0  0  0  0
  -25.4115  -36.3046   24.0322 C   0  0  1  0  0  0
  -20.5913  -28.3690   23.1262 C   0  0  2  0  0  0
  -20.6778  -26.9398   22.5410 C   0  0  0  0  0  0
  -19.5751  -26.6374   21.5214 C   0  0  0  0  0  0
  -18.1934  -26.7916   22.1629 C   0  0  0  0  0  0
  -19.1556  -28.8858   23.2851 C   0  0  0  0  0  0
  -18.9465  -30.1463   23.8856 C   0  0  0  0  0  0
  -17.6455  -30.6569   24.0549 C   0  0  0  0  0  0
  -25.9056  -34.9416   23.5082 C   0  0  0  0  0  0
  -16.5352  -29.9056   23.6330 C   0  0  0  0  0  0
  -16.7281  -28.6488   23.0334 C   0  0  0  0  0  0
  -26.4505  -31.6560   25.0722 C   0  0  0  0  0  0
  -25.3688  -31.3728   26.1416 C   0  0  0  0  0  0
  -27.0361  -30.2966   24.6258 C   0  0  0  0  0  0
  -27.6060  -32.4305   25.7490 C   0  0  0  0  0  0
  -27.5565  -37.1798   24.8470 C   0  0  0  0  0  0
  -21.4272  -29.3017   22.3653 N   0  0  0  0  0  0
  -26.4293  -37.3745   23.9386 N   0  0  0  0  0  0
  -24.7129  -31.0365   22.0930 N   0  0  0  0  0  0
  -23.4211  -28.8089   23.3073 O   0  0  0  0  0  0
  -28.3083  -26.2679   20.1813 O   0  0  0  0  0  0
  -26.5645  -34.8905   22.4661 O   0  0  0  0  0  0
  -23.5530  -32.1327   23.7159 O   0  0  0  0  0  0
  -29.6092  -19.9469   21.5191 C   0  0  0  0  0  0
  -29.6657  -19.1106   20.3623 C   0  0  0  0  0  0
  -29.3901  -19.9359   19.2085 C   0  0  0  0  0  0
  -29.1078  -21.9938   20.4038 C   0  0  0  0  0  0
  -28.4413  -17.2093   22.7265 C   0  0  0  0  0  0
  -30.1771  -17.5260   20.2944 C   0  0  0  0  0  0
  -29.2090  -23.6267   20.4469 C   0  0  0  0  0  0
  -28.8358  -15.9664   21.9242 C   0  0  0  0  0  0
  -28.0877  -24.7555   20.0045 C   0  0  0  0  0  0
  -29.3807  -19.3527   17.7864 C   0  0  0  0  0  0
  -29.3389  -21.2984   21.5314 N   0  0  0  0  0  0
  -29.1281  -21.3044   19.2552 N   0  0  0  0  0  0
  -29.8282  -16.0722   20.8251 N   0  0  0  0  0  0
  -28.1272  -19.0369   17.4540 F   0  0  0  0  0  0
  -29.8316  -20.2539   16.9091 F   0  0  0  0  0  0
  -30.1396  -18.2631   17.6627 F   0  0  0  0  0  0
  -31.4873  -12.7394   19.1410 H   0  0  0  0  0  0
  -30.4826  -11.5720   19.9278 H   0  0  0  0  0  0
  -29.8348  -11.7766   17.5292 H   0  0  0  0  0  0
  -29.6355  -13.5002   17.6993 H   0  0  0  0  0  0
  -27.9187  -11.2913   18.8672 H   0  0  0  0  0  0
  -27.3979  -12.5574   17.7881 H   0  0  0  0  0  0
  -27.6519  -14.2500   19.4954 H   0  0  0  0  0  0
  -28.7991  -12.0282   21.2239 H   0  0  0  0  0  0
  -28.3889  -13.5202   21.9075 H   0  0  0  0  0  0
  -25.2766   -9.5681   22.4727 H   0  0  0  0  0  0
  -24.0012   -7.4639   22.7452 H   0  0  0  0  0  0
  -21.0846   -8.8767   19.8933 H   0  0  0  0  0  0
  -22.3696  -10.9673   19.6140 H   0  0  0  0  0  0
  -21.1988   -7.6146   23.9733 H   0  0  0  0  0  0
  -21.1480   -6.0521   25.9091 H   0  0  0  0  0  0
  -22.0587   -2.7615   23.2852 H   0  0  0  0  0  0
  -22.4098  -11.9890   22.4771 H   0  0  0  0  0  0
  -21.1119  -13.1260   22.2567 H   0  0  0  0  0  0
  -24.6574  -15.8426   20.5093 H   0  0  0  0  0  0
  -26.2790  -15.6249   20.0813 H   0  0  0  0  0  0
  -26.7253  -32.5324   23.1047 H   0  0  0  0  0  0
  -25.0020  -33.9622   25.0329 H   0  0  0  0  0  0
  -22.7440  -31.2891   21.3864 H   0  0  0  0  0  0
  -23.3743  -35.9614   23.3336 H   0  0  0  0  0  0
  -24.3577  -36.8869   22.2059 H   0  0  0  0  0  0
  -23.7260  -37.6482   23.6663 H   0  0  0  0  0  0
  -26.1315  -31.5003   20.6043 H   0  0  0  0  0  0
  -26.8723  -30.7965   22.0097 H   0  0  0  0  0  0
  -28.1482  -28.8683   21.1728 H   0  0  0  0  0  0
  -25.9340  -25.8654   19.0029 H   0  0  0  0  0  0
  -23.9708  -27.2875   19.0135 H   0  0  0  0  0  0
  -23.7829  -30.5625   19.3954 H   0  0  0  0  0  0
  -22.7823  -29.2197   19.8610 H   0  0  0  0  0  0
  -25.1312  -36.1904   25.0820 H   0  0  0  0  0  0
  -20.9978  -28.3256   24.1397 H   0  0  0  0  0  0
  -20.5670  -26.2291   23.3618 H   0  0  0  0  0  0
  -21.6642  -26.7397   22.1213 H   0  0  0  0  0  0
  -19.6902  -25.6288   21.1232 H   0  0  0  0  0  0
  -19.6691  -27.3200   20.6759 H   0  0  0  0  0  0
  -17.4207  -26.6663   21.4032 H   0  0  0  0  0  0
  -18.0329  -26.0064   22.9034 H   0  0  0  0  0  0
  -19.7933  -30.7302   24.2202 H   0  0  0  0  0  0
  -17.4992  -31.6241   24.5165 H   0  0  0  0  0  0
  -15.5341  -30.2927   23.7677 H   0  0  0  0  0  0
  -15.8692  -28.0793   22.7041 H   0  0  0  0  0  0
  -24.5906  -30.7029   25.7736 H   0  0  0  0  0  0
  -24.8807  -32.2889   26.4760 H   0  0  0  0  0  0
  -25.7964  -30.8967   27.0248 H   0  0  0  0  0  0
  -26.2968  -29.6699   24.1252 H   0  0  0  0  0  0
  -27.3997  -29.7249   25.4809 H   0  0  0  0  0  0
  -27.8867  -30.4236   23.9551 H   0  0  0  0  0  0
  -27.2695  -33.3649   26.1999 H   0  0  0  0  0  0
  -28.3893  -32.6783   25.0310 H   0  0  0  0  0  0
  -28.0697  -31.8451   26.5447 H   0  0  0  0  0  0
  -28.2616  -38.0059   24.7451 H   0  0  0  0  0  0
  -28.1025  -36.2582   24.6388 H   0  0  0  0  0  0
  -27.2262  -37.1552   25.8870 H   0  0  0  0  0  0
  -20.9508  -29.8694   21.6793 H   0  0  0  0  0  0
  -26.0175  -38.2832   24.1340 H   0  0  0  0  0  0
  -29.8568  -19.5517   22.4909 H   0  0  0  0  0  0
  -29.2962  -17.6266   23.2571 H   0  0  0  0  0  0
  -27.7109  -16.9291   23.4872 H   0  0  0  0  0  0
  -27.9549  -17.9661   22.1132 H   0  0  0  0  0  0
  -29.1221  -17.4405   20.0276 H   0  0  0  0  0  0
  -30.6160  -17.6892   21.2790 H   0  0  0  0  0  0
  -30.1242  -23.8658   19.9090 H   0  0  0  0  0  0
  -29.4551  -23.8656   21.4814 H   0  0  0  0  0  0
  -29.2242  -15.2700   22.6688 H   0  0  0  0  0  0
  -27.9169  -15.5611   21.5081 H   0  0  0  0  0  0
  -27.8972  -24.6001   18.9415 H   0  0  0  0  0  0
  -27.1562  -24.5033   20.5115 H   0  0  0  0  0  0
  1 25  1  0  0  0
  1 30  2  0  0  0
  1 83  1  0  0  0
  2  3  1  0  0  0
  2 25  1  0  0  0
  2 87  1  0  0  0
  2 88  1  0  0  0
  3  4  1  0  0  0
  3 89  1  0  0  0
  3 90  1  0  0  0
  4  5  1  0  0  0
  4 91  1  0  0  0
  4 92  1  0  0  0
  5  6  1  0  0  0
  5 26  1  0  0  0
  5 93  1  0  0  0
  6 25  1  0  0  0
  6 94  1  0  0  0
  6 95  1  0  0  0
  7  8  2  0  0  0
  7 26  1  0  0  0
  7 29  1  0  0  0
  8  9  1  0  0  0
  8 22  1  0  0  0
  9 10  1  0  0  0
  9 27  2  0  0  0
 10 11  2  0  0  0
 10 15  1  0  0  0
 11 12  1  0  0  0
 11 96  1  0  0  0
 12 13  2  0  0  0
 12 97  1  0  0  0
 13 14  1  0  0  0
 13 31  1  0  0  0
 14 15  2  0  0  0
 14 98  1  0  0  0
 15 99  1  0  0  0
 16 17  2  0  0  0
 16 21  1  0  0  0
 16 31  1  0  0  0
 17 18  1  0  0  0
 17100  1  0  0  0
 18 19  2  0  0  0
 18101  1  0  0  0
 19 20  1  0  0  0
 19 24  1  0  0  0
 20 21  2  0  0  0
 20102  1  0  0  0
 21 23  1  0  0  0
 22 28  1  0  0  0
 22 32  2  0  0  0
 26 27  1  0  0  0
 28103  1  0  0  0
 28104  1  0  0  0
 29105  1  0  0  0
 29106  1  0  0  0
 33 34  1  0  0  0
 33 66  1  0  0  0
 33 70  2  0  0  0
 34 36  1  0  0  0
 34 59  1  0  0  0
 34107  1  0  0  0
 35 44  2  0  0  0
 35 45  1  0  0  0
 35 68  1  0  0  0
 36 56  1  0  0  0
 36108  1  0  0  0
 37 39  1  0  0  0
 37 47  1  0  0  0
 37 66  1  0  0  0
 37109  1  0  0  0
 38 43  2  0  0  0
 38 46  1  0  0  0
 38 47  1  0  0  0
 39 64  1  0  0  0
 39 67  2  0  0  0
 40 52  1  0  0  0
 40 53  2  0  0  0
 40 58  1  0  0  0
 41110  1  0  0  0
 41111  1  0  0  0
 41112  1  0  0  0
 41 48  1  0  0  0
 42 43  1  0  0  0
 42 66  1  0  0  0
 42113  1  0  0  0
 42114  1  0  0  0
 43 44  1  0  0  0
 44115  1  0  0  0
 45 46  2  0  0  0
 45116  1  0  0  0
 46117  1  0  0  0
 47118  1  0  0  0
 47119  1  0  0  0
 48 56  1  0  0  0
 48 65  1  0  0  0
 48120  1  0  0  0
 49 50  1  0  0  0
 49 53  1  0  0  0
 49 64  1  0  0  0
 49121  1  0  0  0
 50 51  1  0  0  0
 50122  1  0  0  0
 50123  1  0  0  0
 51 52  1  0  0  0
 51124  1  0  0  0
 51125  1  0  0  0
 52126  1  0  0  0
 52127  1  0  0  0
 53 54  1  0  0  0
 54 55  2  0  0  0
 54128  1  0  0  0
 55 57  1  0  0  0
 55129  1  0  0  0
 56 69  2  0  0  0
 57 58  2  0  0  0
 57130  1  0  0  0
 58131  1  0  0  0
 59 60  1  0  0  0
 59 61  1  0  0  0
 59 62  1  0  0  0
 60132  1  0  0  0
 60133  1  0  0  0
 60134  1  0  0  0
 61135  1  0  0  0
 61136  1  0  0  0
 61137  1  0  0  0
 62138  1  0  0  0
 62139  1  0  0  0
 62140  1  0  0  0
 63 65  1  0  0  0
 63141  1  0  0  0
 63142  1  0  0  0
 63143  1  0  0  0
 64144  1  0  0  0
 65145  1  0  0  0
 68 79  1  0  0  0
 71 72  2  0  0  0
 71 81  1  0  0  0
 71146  1  0  0  0
 72 73  1  0  0  0
 72 76  1  0  0  0
 73 80  1  0  0  0
 73 82  2  0  0  0
 74 77  1  0  0  0
 74 81  2  0  0  0
 74 82  1  0  0  0
 75 78  1  0  0  0
 75147  1  0  0  0
 75148  1  0  0  0
 75149  1  0  0  0
 76 83  1  0  0  0
 76150  1  0  0  0
 76151  1  0  0  0
 77 79  1  0  0  0
 77152  1  0  0  0
 77153  1  0  0  0
 78 83  1  0  0  0
 78154  1  0  0  0
 78155  1  0  0  0
 79156  1  0  0  0
 79157  1  0  0  0
 80 84  1  0  0  0
 80 85  1  0  0  0
 80 86  1  0  0  0
M  ISO  4   1 100  68 101  79 101  83 100
M  END
> <chiral flag>
0

> <version>
0

> <s_m_source_file>
/data/baiqing/PycharmProjects/Reinvent-master-3.2/result/LINK_invent/BTK/process_docking_weight1_custom_sum_contain_oxygen_bond_distance_aromatic_linkinvent_7_9_3/rearranged_h_0052.sdf

> <i_m_source_file_index>
27

> <r_mmod_Potential_Energy-OPLS-2005>
537.153747558594

> <r_mmod_Stretch_Energy-OPLS-2005>
218.415084838867

> <r_mmod_Bend_Energy-OPLS-2005>
473.065338134766

> <r_mmod_Torsional_Energy-OPLS-2005>
263.610046386719

> <r_mmod_Improper_Torsional_Energy-OPLS-2005>
9.61007976531982

> <r_mmod_Van_der_Waal_Energy-OPLS-2005>
171.248275756836

> <r_mmod_Electrostatic_Energy-OPLS-2005>
-519.754577636719

> <r_mmod_Solvation_Energy-OPLS-2005>
-209.367141723633

> <b_mmod_Minimization_Converged-OPLS-2005>
0

> <r_mmod_RMS_Derivative-OPLS-2005>
3.59018611907959

$$$$
27
                    3D
 Structure written by MMmdl.
169177  0  0  1  0            999 V2000
  -30.7033  -14.3925   20.6818 C   0  0  0  0  0  0
  -30.4356  -12.2951   19.3971 C   0  0  0  0  0  0
  -29.4970  -12.5344   18.1963 C   0  0  0  0  0  0
  -28.0187  -12.3764   18.6070 C   0  0  0  0  0  0
  -27.6723  -13.1884   19.8824 C   0  0  2  0  0  0
  -28.7050  -12.8927   20.9919 C   0  0  0  0  0  0
  -25.2628  -13.8111   20.5639 C   0  0  0  0  0  0
  -24.1869  -13.0413   20.9152 C   0  0  0  0  0  0
  -24.6394  -11.6878   20.8728 C   0  0  0  0  0  0
  -23.9051  -10.4280   21.0420 C   0  0  0  0  0  0
  -24.3608   -9.4201   21.9195 C   0  0  0  0  0  0
  -23.6287   -8.2237   22.0771 C   0  0  0  0  0  0
  -22.4275   -8.0269   21.3549 C   0  0  0  0  0  0
  -21.9895   -9.0244   20.4664 C   0  0  0  0  0  0
  -22.7220  -10.2126   20.3073 C   0  0  0  0  0  0
  -21.6853   -6.0734   22.5292 C   0  0  0  0  0  0
  -21.4009   -6.5641   23.8222 C   0  0  0  0  0  0
  -21.3664   -5.6798   24.9183 C   0  0  0  0  0  0
  -21.6047   -4.3060   24.7244 C   0  0  0  0  0  0
  -21.8812   -3.8147   23.4365 C   0  0  0  0  0  0
  -21.9182   -4.6959   22.3421 C   0  0  0  0  0  0
  -22.7892  -13.5248   21.1834 C   0  0  0  0  0  0
  -22.1658   -4.2145   21.1000 F   0  0  0  0  0  0
  -21.5624   -3.4548   25.7759 F   0  0  0  0  0  0
  -30.0493  -13.2203   20.4721 N   0  0  0  0  0  0
  -26.3067  -12.9253   20.3347 N   0  0  0  0  0  0
  -25.9314  -11.6433   20.5747 N   0  0  0  0  0  0
  -22.0516  -12.8247   22.0388 N   0  0  0  0  0  0
  -25.4343  -15.1831   20.4033 N   0  0  0  0  0  0
  -31.7286  -14.7267   20.0778 O   0  0  0  0  0  0
  -21.6630   -6.8871   21.4257 O   0  0  0  0  0  0
  -22.3607  -14.5579   20.6707 O   0  0  0  0  0  0
  -24.6123  -31.8668   23.2138 C   0  0  0  0  0  0
  -25.9019  -32.4818   23.8402 C   0  0  1  0  0  0
  -27.2393  -27.4467   20.1025 C   0  0  0  0  0  0
  -25.5883  -33.8620   24.2321 N   0  0  0  0  0  0
  -23.3998  -30.4918   21.5524 C   0  0  2  0  0  0
  -24.8424  -28.9494   20.1275 C   0  0  0  0  0  0
  -22.7351  -29.4662   22.4967 C   0  0  0  0  0  0
  -18.0282  -28.1361   22.8477 C   0  0  0  0  0  0
  -24.1492  -36.7316   23.2630 C   0  0  0  0  0  0
  -25.9241  -30.8336   21.3686 C   0  0  0  0  0  0
  -25.9991  -29.4682   20.7188 C   0  0  0  0  0  0
  -27.1952  -28.7218   20.7059 C   0  0  0  0  0  0
  -26.0619  -26.9314   19.5108 C   0  0  0  0  0  0
  -24.8659  -27.6764   19.5288 C   0  0  0  0  0  0
  -23.6089  -29.8218   20.1688 C   0  0  0  0  0  0
  -25.4115  -36.3110   24.0328 C   0  0  1  0  0  0
  -20.5845  -28.3713   23.1314 C   0  0  2  0  0  0
  -20.6795  -26.9422   22.5467 C   0  0  0  0  0  0
  -19.5821  -26.6354   21.5236 C   0  0  0  0  0  0
  -18.1968  -26.7906   22.1601 C   0  0  0  0  0  0
  -19.1496  -28.8855   23.2886 C   0  0  0  0  0  0
  -18.9405  -30.1461   23.8892 C   0  0  0  0  0  0
  -17.6401  -30.6574   24.0557 C   0  0  0  0  0  0
  -25.9029  -34.9472   23.5113 C   0  0  0  0  0  0
  -16.5319  -29.9024   23.6369 C   0  0  0  0  0  0
  -16.7271  -28.6465   23.0370 C   0  0  0  0  0  0
  -26.4484  -31.6603   25.0722 C   0  0  0  0  0  0
  -25.3774  -31.3713   26.1489 C   0  0  0  0  0  0
  -27.0306  -30.3038   24.6104 C   0  0  0  0  0  0
  -27.6055  -32.4327   25.7494 C   0  0  0  0  0  0
  -27.5579  -37.1814   24.8456 C   0  0  0  0  0  0
  -21.4080  -29.3082   22.3685 N   0  0  0  0  0  0
  -26.4298  -37.3793   23.9394 N   0  0  0  0  0  0
  -24.6636  -31.0764   22.1051 N   0  0  0  0  0  0
  -23.4112  -28.8125   23.2968 O   0  0  0  0  0  0
  -28.4586  -26.8055   20.0755 O   0  0  0  0  0  0
  -26.5582  -34.8918   22.4669 O   0  0  0  0  0  0
  -23.5306  -32.1412   23.7531 O   0  0  0  0  0  0
  -26.0551  -25.2711   23.5793 C   0  0  0  0  0  0
  -25.5560  -23.9596   23.7433 C   0  0  0  0  0  0
  -27.7492  -24.4578   22.2384 C   0  0  0  0  0  0
  -27.2543  -23.1320   22.4043 C   0  0  0  0  0  0
  -24.2974  -23.7038   24.5486 C   0  0  0  0  0  0
  -26.7444  -18.7523   20.1676 C   0  0  0  0  0  0
  -28.9508  -24.7819   21.3612 C   0  0  0  0  0  0
  -27.9397  -21.9305   21.7483 C   0  0  0  0  0  0
  -29.1449  -17.3963   21.0588 C   0  0  0  0  0  0
  -30.2491  -16.6196   21.8140 C   0  0  0  0  0  0
  -27.1015  -20.6410   21.6870 C   0  0  0  0  0  0
  -28.7742  -18.7785   21.6616 C   0  0  0  0  0  0
  -28.5602  -25.3823   19.9978 C   0  0  0  0  0  0
  -27.1582  -25.5178   22.8405 N   0  0  0  0  0  0
  -26.1635  -22.8880   23.1772 N   0  0  0  0  0  0
  -30.0982  -15.1837   21.5790 N   0  0  0  0  0  0
  -27.7566  -19.5633   20.8883 N   0  3  1  0  0  0
  -31.4800  -12.4175   19.1029 H   0  0  0  0  0  0
  -30.3451  -11.2648   19.7447 H   0  0  0  0  0  0
  -29.7335  -11.8411   17.3886 H   0  0  0  0  0  0
  -29.6617  -13.5379   17.7980 H   0  0  0  0  0  0
  -27.8318  -11.3163   18.7803 H   0  0  0  0  0  0
  -27.3657  -12.6651   17.7831 H   0  0  0  0  0  0
  -27.7419  -14.2465   19.6281 H   0  0  0  0  0  0
  -28.6781  -11.8352   21.2584 H   0  0  0  0  0  0
  -28.4374  -13.4132   21.9121 H   0  0  0  0  0  0
  -25.2770   -9.5671   22.4747 H   0  0  0  0  0  0
  -23.9991   -7.4643   22.7505 H   0  0  0  0  0  0
  -21.0807   -8.8766   19.8993 H   0  0  0  0  0  0
  -22.3687  -10.9654   19.6172 H   0  0  0  0  0  0
  -21.2003   -7.6155   23.9727 H   0  0  0  0  0  0
  -21.1495   -6.0531   25.9085 H   0  0  0  0  0  0
  -22.0583   -2.7609   23.2876 H   0  0  0  0  0  0
  -22.4088  -11.9889   22.4781 H   0  0  0  0  0  0
  -21.1162  -13.1326   22.2635 H   0  0  0  0  0  0
  -24.6564  -15.8254   20.5050 H   0  0  0  0  0  0
  -26.2705  -15.6120   20.0297 H   0  0  0  0  0  0
  -26.7087  -32.5555   23.1155 H   0  0  0  0  0  0
  -25.0103  -33.9800   25.0516 H   0  0  0  0  0  0
  -22.6937  -31.3119   21.4128 H   0  0  0  0  0  0
  -23.3744  -35.9660   23.3318 H   0  0  0  0  0  0
  -24.3576  -36.8907   22.2039 H   0  0  0  0  0  0
  -23.7275  -37.6534   23.6636 H   0  0  0  0  0  0
  -26.0367  -31.6022   20.6030 H   0  0  0  0  0  0
  -26.8124  -30.8845   21.9875 H   0  0  0  0  0  0
  -28.0914  -29.1193   21.1626 H   0  0  0  0  0  0
  -26.0454  -25.9735   19.0163 H   0  0  0  0  0  0
  -23.9738  -27.2666   19.0750 H   0  0  0  0  0  0
  -23.7258  -30.5943   19.4082 H   0  0  0  0  0  0
  -22.7299  -29.2475   19.8747 H   0  0  0  0  0  0
  -25.1300  -36.1965   25.0824 H   0  0  0  0  0  0
  -20.9936  -28.3363   24.1424 H   0  0  0  0  0  0
  -20.5703  -26.2302   23.3662 H   0  0  0  0  0  0
  -21.6683  -26.7451   22.1334 H   0  0  0  0  0  0
  -19.7028  -25.6233   21.1349 H   0  0  0  0  0  0
  -19.6824  -27.3132   20.6741 H   0  0  0  0  0  0
  -17.4289  -26.6630   21.3963 H   0  0  0  0  0  0
  -18.0348  -26.0049   22.9003 H   0  0  0  0  0  0
  -19.7862  -30.7324   24.2203 H   0  0  0  0  0  0
  -17.4929  -31.6277   24.5106 H   0  0  0  0  0  0
  -15.5310  -30.2899   23.7689 H   0  0  0  0  0  0
  -15.8691  -28.0797   22.7025 H   0  0  0  0  0  0
  -24.5920  -30.7078   25.7851 H   0  0  0  0  0  0
  -24.9003  -32.2871   26.4986 H   0  0  0  0  0  0
  -25.8170  -30.8854   27.0209 H   0  0  0  0  0  0
  -26.2851  -29.6796   24.1162 H   0  0  0  0  0  0
  -27.4053  -29.7292   25.4582 H   0  0  0  0  0  0
  -27.8696  -30.4325   23.9264 H   0  0  0  0  0  0
  -27.2652  -33.3587   26.2147 H   0  0  0  0  0  0
  -28.3856  -32.6959   25.0336 H   0  0  0  0  0  0
  -28.0740  -31.8403   26.5361 H   0  0  0  0  0  0
  -28.2599  -38.0107   24.7479 H   0  0  0  0  0  0
  -28.1071  -36.2629   24.6318 H   0  0  0  0  0  0
  -27.2268  -37.1503   25.8851 H   0  0  0  0  0  0
  -20.9193  -29.8810   21.6939 H   0  0  0  0  0  0
  -26.0186  -38.2858   24.1436 H   0  0  0  0  0  0
  -25.5634  -26.1219   24.0306 H   0  0  0  0  0  0
  -23.4766  -24.3194   24.1737 H   0  0  0  0  0  0
  -24.4562  -23.9575   25.5973 H   0  0  0  0  0  0
  -23.9894  -22.6592   24.4951 H   0  0  0  0  0  0
  -26.0510  -19.3872   19.6141 H   0  0  0  0  0  0
  -26.1631  -18.1448   20.8603 H   0  0  0  0  0  0
  -27.2053  -18.1006   19.4244 H   0  0  0  0  0  0
  -29.5539  -23.8895   21.1973 H   0  0  0  0  0  0
  -29.6123  -25.4652   21.8936 H   0  0  0  0  0  0
  -28.8819  -21.7504   22.2662 H   0  0  0  0  0  0
  -28.1868  -22.2077   20.7233 H   0  0  0  0  0  0
  -28.2451  -16.7781   21.0654 H   0  0  0  0  0  0
  -29.4422  -17.5050   20.0148 H   0  0  0  0  0  0
  -30.1462  -16.7810   22.8883 H   0  0  0  0  0  0
  -31.2451  -16.9705   21.5352 H   0  0  0  0  0  0
  -26.1438  -20.9036   21.2333 H   0  0  0  0  0  0
  -26.8648  -20.2849   22.6921 H   0  0  0  0  0  0
  -29.6748  -19.3871   21.7697 H   0  0  0  0  0  0
  -28.4007  -18.6053   22.6723 H   0  0  0  0  0  0
  -27.7022  -24.8603   19.5823 H   0  0  0  0  0  0
  -29.3771  -25.1881   19.3039 H   0  0  0  0  0  0
  -29.3330  -14.7397   22.0673 H   0  0  0  0  0  0
  -28.2589  -20.0331   20.1489 H   0  0  0  0  0  0
  1 25  1  0  0  0
  1 30  2  0  0  0
  1 86  1  0  0  0
  2  3  1  0  0  0
  2 25  1  0  0  0
  2 88  1  0  0  0
  2 89  1  0  0  0
  3  4  1  0  0  0
  3 90  1  0  0  0
  3 91  1  0  0  0
  4  5  1  0  0  0
  4 92  1  0  0  0
  4 93  1  0  0  0
  5  6  1  0  0  0
  5 26  1  0  0  0
  5 94  1  0  0  0
  6 25  1  0  0  0
  6 95  1  0  0  0
  6 96  1  0  0  0
  7  8  2  0  0  0
  7 26  1  0  0  0
  7 29  1  0  0  0
  8  9  1  0  0  0
  8 22  1  0  0  0
  9 10  1  0  0  0
  9 27  2  0  0  0
 10 11  2  0  0  0
 10 15  1  0  0  0
 11 12  1  0  0  0
 11 97  1  0  0  0
 12 13  2  0  0  0
 12 98  1  0  0  0
 13 14  1  0  0  0
 13 31  1  0  0  0
 14 15  2  0  0  0
 14 99  1  0  0  0
 15100  1  0  0  0
 16 17  2  0  0  0
 16 21  1  0  0  0
 16 31  1  0  0  0
 17 18  1  0  0  0
 17101  1  0  0  0
 18 19  2  0  0  0
 18102  1  0  0  0
 19 20  1  0  0  0
 19 24  1  0  0  0
 20 21  2  0  0  0
 20103  1  0  0  0
 21 23  1  0  0  0
 22 28  1  0  0  0
 22 32  2  0  0  0
 26 27  1  0  0  0
 28104  1  0  0  0
 28105  1  0  0  0
 29106  1  0  0  0
 29107  1  0  0  0
 33 34  1  0  0  0
 33 66  1  0  0  0
 33 70  2  0  0  0
 34 36  1  0  0  0
 34 59  1  0  0  0
 34108  1  0  0  0
 35 44  2  0  0  0
 35 45  1  0  0  0
 35 68  1  0  0  0
 36 56  1  0  0  0
 36109  1  0  0  0
 37 39  1  0  0  0
 37 47  1  0  0  0
 37 66  1  0  0  0
 37110  1  0  0  0
 38 43  2  0  0  0
 38 46  1  0  0  0
 38 47  1  0  0  0
 39 64  1  0  0  0
 39 67  2  0  0  0
 40 52  1  0  0  0
 40 53  2  0  0  0
 40 58  1  0  0  0
 41111  1  0  0  0
 41112  1  0  0  0
 41113  1  0  0  0
 41 48  1  0  0  0
 42 43  1  0  0  0
 42 66  1  0  0  0
 42114  1  0  0  0
 42115  1  0  0  0
 43 44  1  0  0  0
 44116  1  0  0  0
 45 46  2  0  0  0
 45117  1  0  0  0
 46118  1  0  0  0
 47119  1  0  0  0
 47120  1  0  0  0
 48 56  1  0  0  0
 48 65  1  0  0  0
 48121  1  0  0  0
 49 50  1  0  0  0
 49 53  1  0  0  0
 49 64  1  0  0  0
 49122  1  0  0  0
 50 51  1  0  0  0
 50123  1  0  0  0
 50124  1  0  0  0
 51 52  1  0  0  0
 51125  1  0  0  0
 51126  1  0  0  0
 52127  1  0  0  0
 52128  1  0  0  0
 53 54  1  0  0  0
 54 55  2  0  0  0
 54129  1  0  0  0
 55 57  1  0  0  0
 55130  1  0  0  0
 56 69  2  0  0  0
 57 58  2  0  0  0
 57131  1  0  0  0
 58132  1  0  0  0
 59 60  1  0  0  0
 59 61  1  0  0  0
 59 62  1  0  0  0
 60133  1  0  0  0
 60134  1  0  0  0
 60135  1  0  0  0
 61136  1  0  0  0
 61137  1  0  0  0
 61138  1  0  0  0
 62139  1  0  0  0
 62140  1  0  0  0
 62141  1  0  0  0
 63 65  1  0  0  0
 63142  1  0  0  0
 63143  1  0  0  0
 63144  1  0  0  0
 64145  1  0  0  0
 65146  1  0  0  0
 68 83  1  0  0  0
 71 72  2  0  0  0
 71 84  1  0  0  0
 71147  1  0  0  0
 72 75  1  0  0  0
 72 85  1  0  0  0
 73 74  1  0  0  0
 73 77  1  0  0  0
 73 84  2  0  0  0
 74 78  1  0  0  0
 74 85  2  0  0  0
 75148  1  0  0  0
 75149  1  0  0  0
 75150  1  0  0  0
 76151  1  0  0  0
 76152  1  0  0  0
 76153  1  0  0  0
 76 87  1  0  0  0
 77 83  1  0  0  0
 77154  1  0  0  0
 77155  1  0  0  0
 78 81  1  0  0  0
 78156  1  0  0  0
 78157  1  0  0  0
 79 80  1  0  0  0
 79 82  1  0  0  0
 79158  1  0  0  0
 79159  1  0  0  0
 80 86  1  0  0  0
 80160  1  0  0  0
 80161  1  0  0  0
 81 87  1  0  0  0
 81162  1  0  0  0
 81163  1  0  0  0
 82 87  1  0  0  0
 82164  1  0  0  0
 82165  1  0  0  0
 83166  1  0  0  0
 83167  1  0  0  0
 86168  1  0  0  0
 87169  1  0  0  0
M  CHG  1  87   1
M  ISO  4   1 100  68 101  83 101  86 100
M  END
> <chiral flag>
0

> <version>
0

> <s_m_source_file>
/data/baiqing/PycharmProjects/Reinvent-master-3.2/result/LINK_invent/BTK/process_docking_weight1_custom_sum_contain_oxygen_bond_distance_aromatic_linkinvent_7_9_3/rearranged_h_0052.sdf

> <i_m_source_file_index>
28

> <r_mmod_Potential_Energy-OPLS-2005>
-156.497756958008

> <r_mmod_Stretch_Energy-OPLS-2005>
37.5863647460938

> <r_mmod_Bend_Energy-OPLS-2005>
114.713691711426

> <r_mmod_Torsional_Energy-OPLS-2005>
210.00373840332

> <r_mmod_Improper_Torsional_Energy-OPLS-2005>
2.68270826339722

> <r_mmod_Van_der_Waal_Energy-OPLS-2005>
156.200958251953

> <r_mmod_Electrostatic_Energy-OPLS-2005>
-200.931213378906

> <r_mmod_Solvation_Energy-OPLS-2005>
-486.531341552734

> <b_mmod_Minimization_Converged-OPLS-2005>
0

> <r_mmod_RMS_Derivative-OPLS-2005>
3.30555009841919

$$$$
28
                    3D
 Structure written by MMmdl.
165173  0  0  1  0            999 V2000
  -30.7534  -14.4432   20.6502 C   0  0  0  0  0  0
  -30.4316  -12.3239   19.4143 C   0  0  0  0  0  0
  -29.4937  -12.5363   18.2061 C   0  0  0  0  0  0
  -28.0131  -12.3946   18.6137 C   0  0  0  0  0  0
  -27.6696  -13.1978   19.8948 C   0  0  2  0  0  0
  -28.7169  -12.9025   20.9903 C   0  0  0  0  0  0
  -25.2622  -13.8114   20.5729 C   0  0  0  0  0  0
  -24.1858  -13.0413   20.9206 C   0  0  0  0  0  0
  -24.6401  -11.6872   20.8763 C   0  0  0  0  0  0
  -23.9058  -10.4273   21.0416 C   0  0  0  0  0  0
  -24.3606   -9.4184   21.9190 C   0  0  0  0  0  0
  -23.6280   -8.2226   22.0759 C   0  0  0  0  0  0
  -22.4264   -8.0274   21.3549 C   0  0  0  0  0  0
  -21.9908   -9.0243   20.4645 C   0  0  0  0  0  0
  -22.7240  -10.2120   20.3064 C   0  0  0  0  0  0
  -21.6833   -6.0735   22.5282 C   0  0  0  0  0  0
  -21.4004   -6.5640   23.8215 C   0  0  0  0  0  0
  -21.3667   -5.6795   24.9176 C   0  0  0  0  0  0
  -21.6046   -4.3063   24.7231 C   0  0  0  0  0  0
  -21.8816   -3.8149   23.4351 C   0  0  0  0  0  0
  -21.9186   -4.6960   22.3405 C   0  0  0  0  0  0
  -22.7876  -13.5228   21.1816 C   0  0  0  0  0  0
  -22.1657   -4.2143   21.0985 F   0  0  0  0  0  0
  -21.5627   -3.4555   25.7749 F   0  0  0  0  0  0
  -30.0439  -13.2826   20.4716 N   0  0  0  0  0  0
  -26.3071  -12.9282   20.3479 N   0  0  0  0  0  0
  -25.9334  -11.6447   20.5827 N   0  0  0  0  0  0
  -22.0481  -12.8252   22.0374 N   0  0  0  0  0  0
  -25.4331  -15.1831   20.4104 N   0  0  0  0  0  0
  -31.8018  -14.6292   20.0230 O   0  0  0  0  0  0
  -21.6619   -6.8879   21.4250 O   0  0  0  0  0  0
  -22.3578  -14.5523   20.6628 O   0  0  0  0  0  0
  -24.6142  -31.8697   23.2128 C   0  0  0  0  0  0
  -25.9047  -32.4827   23.8414 C   0  0  1  0  0  0
  -27.2354  -27.4478   20.0868 C   0  0  0  0  0  0
  -25.5912  -33.8628   24.2339 N   0  0  0  0  0  0
  -23.4003  -30.4963   21.5524 C   0  0  2  0  0  0
  -24.8443  -28.9654   20.1138 C   0  0  0  0  0  0
  -22.7401  -29.4683   22.4990 C   0  0  0  0  0  0
  -18.0273  -28.1384   22.8493 C   0  0  0  0  0  0
  -24.1484  -36.7313   23.2641 C   0  0  0  0  0  0
  -25.9301  -30.8364   21.3672 C   0  0  0  0  0  0
  -26.0045  -29.4749   20.7089 C   0  0  0  0  0  0
  -27.2003  -28.7237   20.6920 C   0  0  0  0  0  0
  -26.0521  -26.9501   19.4878 C   0  0  0  0  0  0
  -24.8630  -27.7020   19.5002 C   0  0  0  0  0  0
  -23.6069  -29.8323   20.1654 C   0  0  0  0  0  0
  -25.4109  -36.3116   24.0339 C   0  0  1  0  0  0
  -20.5862  -28.3678   23.1317 C   0  0  2  0  0  0
  -20.6774  -26.9414   22.5420 C   0  0  0  0  0  0
  -19.5749  -26.6385   21.5222 C   0  0  0  0  0  0
  -18.1924  -26.7930   22.1626 C   0  0  0  0  0  0
  -19.1521  -28.8844   23.2903 C   0  0  0  0  0  0
  -18.9450  -30.1454   23.8906 C   0  0  0  0  0  0
  -17.6454  -30.6590   24.0568 C   0  0  0  0  0  0
  -25.9034  -34.9480   23.5130 C   0  0  0  0  0  0
  -16.5344  -29.9092   23.6329 C   0  0  0  0  0  0
  -16.7261  -28.6510   23.0346 C   0  0  0  0  0  0
  -26.4468  -31.6613   25.0749 C   0  0  0  0  0  0
  -25.3734  -31.3729   26.1498 C   0  0  0  0  0  0
  -27.0312  -30.3055   24.6148 C   0  0  0  0  0  0
  -27.6033  -32.4348   25.7513 C   0  0  0  0  0  0
  -27.5580  -37.1821   24.8462 C   0  0  0  0  0  0
  -21.4131  -29.3044   22.3715 N   0  0  0  0  0  0
  -26.4294  -37.3801   23.9405 N   0  0  0  0  0  0
  -24.6660  -31.0817   22.1019 N   0  0  0  0  0  0
  -23.4179  -28.8218   23.3024 O   0  0  0  0  0  0
  -28.4230  -26.7426   20.1021 O   0  0  0  0  0  0
  -26.5584  -34.8925   22.4685 O   0  0  0  0  0  0
  -23.5339  -32.1444   23.7533 O   0  0  0  0  0  0
  -32.0928  -21.7432   23.1072 C   0  0  0  0  0  0
  -31.4191  -21.9116   21.1481 C   0  0  0  0  0  0
  -29.1576  -15.5865   22.5119 C   0  0  0  0  0  0
  -29.1913  -17.1173   19.8833 C   0  0  0  0  0  0
  -31.0402  -22.4390   19.7931 C   0  0  0  0  0  0
  -29.6766  -23.1597   19.7371 C   0  0  0  0  0  0
  -29.7132  -24.6614   20.0939 C   0  0  0  0  0  0
  -30.9790  -19.4363   20.6975 C   0  0  0  0  0  0
  -30.7645  -18.1405   21.5304 C   0  0  0  0  0  0
  -28.3631  -25.3441   19.8198 C   0  0  0  0  0  0
  -30.3613  -15.6606   21.5478 C   0  0  2  0  0  0
  -31.8620  -22.6805   22.1412 N   0  0  0  0  0  0
  -31.8232  -20.4862   22.7583 N   0  0  0  0  0  0
  -31.3706  -20.6085   21.4834 N   0  0  0  0  0  0
  -30.3927  -16.9251   20.7397 N   0  3  1  0  0  0
  -31.4717  -12.4266   19.0990 H   0  0  0  0  0  0
  -30.3553  -11.2997   19.7845 H   0  0  0  0  0  0
  -29.7306  -11.8238   17.4150 H   0  0  0  0  0  0
  -29.6654  -13.5279   17.7848 H   0  0  0  0  0  0
  -27.8095  -11.3358   18.7749 H   0  0  0  0  0  0
  -27.3635  -12.7065   17.7952 H   0  0  0  0  0  0
  -27.7308  -14.2561   19.6490 H   0  0  0  0  0  0
  -28.7149  -11.8316   21.2007 H   0  0  0  0  0  0
  -28.4396  -13.3225   21.9456 H   0  0  0  0  0  0
  -25.2749   -9.5646   22.4766 H   0  0  0  0  0  0
  -23.9980   -7.4608   22.7472 H   0  0  0  0  0  0
  -21.0845   -8.8768   19.8940 H   0  0  0  0  0  0
  -22.3708  -10.9660   19.6175 H   0  0  0  0  0  0
  -21.1996   -7.6147   23.9721 H   0  0  0  0  0  0
  -21.1489   -6.0522   25.9076 H   0  0  0  0  0  0
  -22.0588   -2.7610   23.2851 H   0  0  0  0  0  0
  -22.4080  -11.9957   22.4848 H   0  0  0  0  0  0
  -21.1077  -13.1280   22.2476 H   0  0  0  0  0  0
  -24.6594  -15.8319   20.5087 H   0  0  0  0  0  0
  -26.2722  -15.6212   20.0573 H   0  0  0  0  0  0
  -26.7120  -32.5531   23.1178 H   0  0  0  0  0  0
  -25.0107  -33.9796   25.0513 H   0  0  0  0  0  0
  -22.6894  -31.3143   21.4175 H   0  0  0  0  0  0
  -23.3747  -35.9646   23.3316 H   0  0  0  0  0  0
  -24.3570  -36.8917   22.2053 H   0  0  0  0  0  0
  -23.7235  -37.6521   23.6647 H   0  0  0  0  0  0
  -26.0529  -31.6076   20.6057 H   0  0  0  0  0  0
  -26.8139  -30.8781   21.9925 H   0  0  0  0  0  0
  -28.0964  -29.1179   21.1503 H   0  0  0  0  0  0
  -26.0251  -25.9884   18.9972 H   0  0  0  0  0  0
  -23.9717  -27.3068   19.0320 H   0  0  0  0  0  0
  -23.7155  -30.6109   19.4092 H   0  0  0  0  0  0
  -22.7293  -29.2554   19.8674 H   0  0  0  0  0  0
  -25.1288  -36.1983   25.0833 H   0  0  0  0  0  0
  -20.9960  -28.3253   24.1435 H   0  0  0  0  0  0
  -20.5709  -26.2282   23.3607 H   0  0  0  0  0  0
  -21.6644  -26.7477   22.1194 H   0  0  0  0  0  0
  -19.6916  -25.6297   21.1252 H   0  0  0  0  0  0
  -19.6692  -27.3198   20.6754 H   0  0  0  0  0  0
  -17.4202  -26.6686   21.4020 H   0  0  0  0  0  0
  -18.0314  -26.0068   22.9016 H   0  0  0  0  0  0
  -19.7924  -30.7270   24.2277 H   0  0  0  0  0  0
  -17.5007  -31.6272   24.5165 H   0  0  0  0  0  0
  -15.5346  -30.2998   23.7649 H   0  0  0  0  0  0
  -15.8660  -28.0838   22.7048 H   0  0  0  0  0  0
  -24.5879  -30.7106   25.7839 H   0  0  0  0  0  0
  -24.8958  -32.2894   26.4976 H   0  0  0  0  0  0
  -25.8084  -30.8872   27.0241 H   0  0  0  0  0  0
  -26.2880  -29.6822   24.1155 H   0  0  0  0  0  0
  -27.4023  -29.7286   25.4630 H   0  0  0  0  0  0
  -27.8738  -30.4372   23.9353 H   0  0  0  0  0  0
  -27.2631  -33.3632   26.2112 H   0  0  0  0  0  0
  -28.3826  -32.6939   25.0335 H   0  0  0  0  0  0
  -28.0716  -31.8467   26.5415 H   0  0  0  0  0  0
  -28.2602  -38.0114   24.7505 H   0  0  0  0  0  0
  -28.1070  -36.2644   24.6292 H   0  0  0  0  0  0
  -27.2294  -37.1479   25.8864 H   0  0  0  0  0  0
  -20.9288  -29.8754   21.6928 H   0  0  0  0  0  0
  -26.0182  -38.2881   24.1398 H   0  0  0  0  0  0
  -32.4746  -21.9907   24.0878 H   0  0  0  0  0  0
  -29.2765  -14.7671   23.2207 H   0  0  0  0  0  0
  -28.2034  -15.4919   21.9953 H   0  0  0  0  0  0
  -29.0923  -16.4784   23.1330 H   0  0  0  0  0  0
  -29.3484  -17.8973   19.1387 H   0  0  0  0  0  0
  -28.3156  -17.3915   20.4735 H   0  0  0  0  0  0
  -28.9503  -16.2159   19.3212 H   0  0  0  0  0  0
  -31.0286  -21.6095   19.0865 H   0  0  0  0  0  0
  -31.8315  -23.1001   19.4383 H   0  0  0  0  0  0
  -28.9427  -22.6332   20.3492 H   0  0  0  0  0  0
  -29.3127  -23.0828   18.7116 H   0  0  0  0  0  0
  -30.4861  -25.1600   19.5074 H   0  0  0  0  0  0
  -29.9878  -24.7898   21.1419 H   0  0  0  0  0  0
  -30.0601  -19.7071   20.1801 H   0  0  0  0  0  0
  -31.7426  -19.2768   19.9342 H   0  0  0  0  0  0
  -30.0001  -18.3379   22.2826 H   0  0  0  0  0  0
  -31.6843  -17.9241   22.0755 H   0  0  0  0  0  0
  -27.5952  -24.8695   20.4340 H   0  0  0  0  0  0
  -28.0962  -25.1958   18.7723 H   0  0  0  0  0  0
  -31.2257  -15.7163   22.2114 H   0  0  0  0  0  0
  -31.1638  -16.7472   20.1069 H   0  0  0  0  0  0
  1 25  1  0  0  0
  1 30  2  0  0  0
  1 81  1  0  0  0
  2  3  1  0  0  0
  2 25  1  0  0  0
  2 86  1  0  0  0
  2 87  1  0  0  0
  3  4  1  0  0  0
  3 88  1  0  0  0
  3 89  1  0  0  0
  4  5  1  0  0  0
  4 90  1  0  0  0
  4 91  1  0  0  0
  5  6  1  0  0  0
  5 26  1  0  0  0
  5 92  1  0  0  0
  6 25  1  0  0  0
  6 93  1  0  0  0
  6 94  1  0  0  0
  7  8  2  0  0  0
  7 26  1  0  0  0
  7 29  1  0  0  0
  8  9  1  0  0  0
  8 22  1  0  0  0
  9 10  1  0  0  0
  9 27  2  0  0  0
 10 11  2  0  0  0
 10 15  1  0  0  0
 11 12  1  0  0  0
 11 95  1  0  0  0
 12 13  2  0  0  0
 12 96  1  0  0  0
 13 14  1  0  0  0
 13 31  1  0  0  0
 14 15  2  0  0  0
 14 97  1  0  0  0
 15 98  1  0  0  0
 16 17  2  0  0  0
 16 21  1  0  0  0
 16 31  1  0  0  0
 17 18  1  0  0  0
 17 99  1  0  0  0
 18 19  2  0  0  0
 18100  1  0  0  0
 19 20  1  0  0  0
 19 24  1  0  0  0
 20 21  2  0  0  0
 20101  1  0  0  0
 21 23  1  0  0  0
 22 28  1  0  0  0
 22 32  2  0  0  0
 26 27  1  0  0  0
 28102  1  0  0  0
 28103  1  0  0  0
 29104  1  0  0  0
 29105  1  0  0  0
 33 34  1  0  0  0
 33 66  1  0  0  0
 33 70  2  0  0  0
 34 36  1  0  0  0
 34 59  1  0  0  0
 34106  1  0  0  0
 35 44  2  0  0  0
 35 45  1  0  0  0
 35 68  1  0  0  0
 36 56  1  0  0  0
 36107  1  0  0  0
 37 39  1  0  0  0
 37 47  1  0  0  0
 37 66  1  0  0  0
 37108  1  0  0  0
 38 43  2  0  0  0
 38 46  1  0  0  0
 38 47  1  0  0  0
 39 64  1  0  0  0
 39 67  2  0  0  0
 40 52  1  0  0  0
 40 53  2  0  0  0
 40 58  1  0  0  0
 41109  1  0  0  0
 41110  1  0  0  0
 41111  1  0  0  0
 41 48  1  0  0  0
 42 43  1  0  0  0
 42 66  1  0  0  0
 42112  1  0  0  0
 42113  1  0  0  0
 43 44  1  0  0  0
 44114  1  0  0  0
 45 46  2  0  0  0
 45115  1  0  0  0
 46116  1  0  0  0
 47117  1  0  0  0
 47118  1  0  0  0
 48 56  1  0  0  0
 48 65  1  0  0  0
 48119  1  0  0  0
 49 50  1  0  0  0
 49 53  1  0  0  0
 49 64  1  0  0  0
 49120  1  0  0  0
 50 51  1  0  0  0
 50121  1  0  0  0
 50122  1  0  0  0
 51 52  1  0  0  0
 51123  1  0  0  0
 51124  1  0  0  0
 52125  1  0  0  0
 52126  1  0  0  0
 53 54  1  0  0  0
 54 55  2  0  0  0
 54127  1  0  0  0
 55 57  1  0  0  0
 55128  1  0  0  0
 56 69  2  0  0  0
 57 58  2  0  0  0
 57129  1  0  0  0
 58130  1  0  0  0
 59 60  1  0  0  0
 59 61  1  0  0  0
 59 62  1  0  0  0
 60131  1  0  0  0
 60132  1  0  0  0
 60133  1  0  0  0
 61134  1  0  0  0
 61135  1  0  0  0
 61136  1  0  0  0
 62137  1  0  0  0
 62138  1  0  0  0
 62139  1  0  0  0
 63 65  1  0  0  0
 63140  1  0  0  0
 63141  1  0  0  0
 63142  1  0  0  0
 64143  1  0  0  0
 65144  1  0  0  0
 68 80  1  0  0  0
 71 82  1  0  0  0
 71 83  2  0  0  0
 71145  1  0  0  0
 72 75  1  0  0  0
 72 82  2  0  0  0
 72 84  1  0  0  0
 73146  1  0  0  0
 73147  1  0  0  0
 73148  1  0  0  0
 73 81  1  0  0  0
 74149  1  0  0  0
 74150  1  0  0  0
 74151  1  0  0  0
 74 85  1  0  0  0
 75 76  1  0  0  0
 75152  1  0  0  0
 75153  1  0  0  0
 76 77  1  0  0  0
 76154  1  0  0  0
 76155  1  0  0  0
 77 80  1  0  0  0
 77156  1  0  0  0
 77157  1  0  0  0
 78 79  1  0  0  0
 78 84  1  0  0  0
 78158  1  0  0  0
 78159  1  0  0  0
 79 85  1  0  0  0
 79160  1  0  0  0
 79161  1  0  0  0
 80162  1  0  0  0
 80163  1  0  0  0
 81 85  1  0  0  0
 81164  1  0  0  0
 83 84  1  0  0  0
 85165  1  0  0  0
M  CHG  1  85   1
M  ISO  4   1 100  68 101  80 101  81 100
M  END
> <chiral flag>
0

> <version>
0

> <s_m_source_file>
/data/baiqing/PycharmProjects/Reinvent-master-3.2/result/LINK_invent/BTK/process_docking_weight1_custom_sum_contain_oxygen_bond_distance_aromatic_linkinvent_7_9_3/rearranged_h_0052.sdf

> <i_m_source_file_index>
29

> <r_mmod_Potential_Energy-OPLS-2005>
-176.72151184082

> <r_mmod_Stretch_Energy-OPLS-2005>
39.9928092956543

> <r_mmod_Bend_Energy-OPLS-2005>
140.417877197266

> <r_mmod_Torsional_Energy-OPLS-2005>
194.490142822266

> <r_mmod_Improper_Torsional_Energy-OPLS-2005>
2.11437845230103

> <r_mmod_Van_der_Waal_Energy-OPLS-2005>
142.844329833984

> <r_mmod_Electrostatic_Energy-OPLS-2005>
-257.346252441406

> <r_mmod_Solvation_Energy-OPLS-2005>
-449.798522949219

> <b_mmod_Minimization_Converged-OPLS-2005>
0

> <r_mmod_RMS_Derivative-OPLS-2005>
1.62299513816833

$$$$
29
                    3D
 Structure written by MMmdl.
157165  0  0  1  0            999 V2000
  -30.5890  -14.8921   20.5054 C   0  0  0  0  0  0
  -30.4279  -12.5682   19.4993 C   0  0  0  0  0  0
  -29.5182  -12.5387   18.2495 C   0  0  0  0  0  0
  -28.0509  -12.3140   18.6560 C   0  0  0  0  0  0
  -27.6230  -13.2430   19.8197 C   0  0  2  0  0  0
  -28.6503  -13.2594   20.9653 C   0  0  0  0  0  0
  -25.2439  -13.8200   20.5644 C   0  0  0  0  0  0
  -24.1755  -13.0425   20.9176 C   0  0  0  0  0  0
  -24.6374  -11.6907   20.8688 C   0  0  0  0  0  0
  -23.9060  -10.4271   21.0382 C   0  0  0  0  0  0
  -24.3626   -9.4195   21.9162 C   0  0  0  0  0  0
  -23.6282   -8.2235   22.0767 C   0  0  0  0  0  0
  -22.4252   -8.0294   21.3585 C   0  0  0  0  0  0
  -21.9885   -9.0241   20.4667 C   0  0  0  0  0  0
  -22.7231  -10.2108   20.3046 C   0  0  0  0  0  0
  -21.6838   -6.0743   22.5319 C   0  0  0  0  0  0
  -21.4003   -6.5644   23.8255 C   0  0  0  0  0  0
  -21.3650   -5.6794   24.9212 C   0  0  0  0  0  0
  -21.6041   -4.3065   24.7250 C   0  0  0  0  0  0
  -21.8804   -3.8149   23.4367 C   0  0  0  0  0  0
  -21.9171   -4.6975   22.3424 C   0  0  0  0  0  0
  -22.7779  -13.5212   21.1863 C   0  0  0  0  0  0
  -22.1642   -4.2172   21.1002 F   0  0  0  0  0  0
  -21.5616   -3.4541   25.7753 F   0  0  0  0  0  0
  -29.9548  -13.6534   20.4104 N   0  0  0  0  0  0
  -26.2825  -12.9416   20.3063 N   0  0  0  0  0  0
  -25.9286  -11.6550   20.5597 N   0  0  0  0  0  0
  -22.0422  -12.8223   22.0428 N   0  0  0  0  0  0
  -25.4146  -15.1946   20.4172 N   0  0  0  0  0  0
  -31.7270  -14.9822   20.0271 O   0  0  0  0  0  0
  -21.6613   -6.8890   21.4287 O   0  0  0  0  0  0
  -22.3459  -14.5510   20.6701 O   0  0  0  0  0  0
  -24.6387  -31.8506   23.1969 C   0  0  0  0  0  0
  -25.9190  -32.4729   23.8325 C   0  0  1  0  0  0
  -27.2009  -27.1711   20.1353 C   0  0  0  0  0  0
  -25.5963  -33.8534   24.2239 N   0  0  0  0  0  0
  -23.4391  -30.4756   21.5425 C   0  0  2  0  0  0
  -24.8860  -28.9218   20.1034 C   0  0  0  0  0  0
  -22.7556  -29.4583   22.4901 C   0  0  0  0  0  0
  -18.0302  -28.1393   22.8453 C   0  0  0  0  0  0
  -24.1489  -36.7274   23.2634 C   0  0  0  0  0  0
  -25.9949  -30.7345   21.3936 C   0  0  0  0  0  0
  -26.0633  -29.3532   20.7268 C   0  0  0  0  0  0
  -27.2234  -28.4932   20.7311 C   0  0  0  0  0  0
  -25.9991  -26.8526   19.4564 C   0  0  0  0  0  0
  -24.8662  -27.6848   19.4519 C   0  0  0  0  0  0
  -23.6600  -29.8170   20.1563 C   0  0  0  0  0  0
  -25.4117  -36.3048   24.0312 C   0  0  1  0  0  0
  -20.5911  -28.3714   23.1224 C   0  0  2  0  0  0
  -20.6782  -26.9423   22.5388 C   0  0  0  0  0  0
  -19.5757  -26.6374   21.5193 C   0  0  0  0  0  0
  -18.1944  -26.7922   22.1616 C   0  0  0  0  0  0
  -19.1561  -28.8876   23.2822 C   0  0  0  0  0  0
  -18.9485  -30.1478   23.8841 C   0  0  0  0  0  0
  -17.6484  -30.6584   24.0557 C   0  0  0  0  0  0
  -25.9073  -34.9431   23.5065 C   0  0  0  0  0  0
  -16.5374  -29.9078   23.6339 C   0  0  0  0  0  0
  -16.7291  -28.6507   23.0334 C   0  0  0  0  0  0
  -26.4516  -31.6576   25.0754 C   0  0  0  0  0  0
  -25.3718  -31.3779   26.1471 C   0  0  0  0  0  0
  -27.0367  -30.2958   24.6345 C   0  0  0  0  0  0
  -27.6054  -32.4344   25.7522 C   0  0  0  0  0  0
  -27.5579  -37.1783   24.8463 C   0  0  0  0  0  0
  -21.4261  -29.3054   22.3623 N   0  0  0  0  0  0
  -26.4286  -37.3758   23.9406 N   0  0  0  0  0  0
  -24.7107  -31.0393   22.0991 N   0  0  0  0  0  0
  -23.4213  -28.8124   23.3029 O   0  0  0  0  0  0
  -28.2261  -26.1642   20.2301 O   0  0  0  0  0  0
  -26.5654  -34.8904   22.4656 O   0  0  0  0  0  0
  -23.5523  -32.1388   23.7200 O   0  0  0  0  0  0
  -29.1448  -21.4688   21.6678 C   0  0  0  0  0  0
  -29.1220  -20.4312   20.6757 C   0  0  0  0  0  0
  -28.8432  -21.0269   19.4106 C   0  0  0  0  0  0
  -28.5963  -23.2800   20.2340 C   0  0  0  0  0  0
  -28.7099  -20.1774   18.1666 C   0  0  0  0  0  0
  -30.3091  -15.0540   23.3827 C   0  0  0  0  0  0
  -29.1963  -18.8385   21.0950 C   0  0  0  0  0  0
  -27.8090  -24.6988   19.9784 C   0  0  0  0  0  0
  -29.7770  -16.1857   22.4681 C   0  0  0  0  0  0
  -29.8879  -17.5026   20.3438 C   0  0  0  0  0  0
  -28.8709  -22.8111   21.4653 N   0  0  0  0  0  0
  -28.6057  -22.3774   19.2232 N   0  0  0  0  0  0
  -29.9243  -16.0559   20.9942 N   0  0  0  0  0  0
  -31.4668  -12.7073   19.1942 H   0  0  0  0  0  0
  -30.4033  -11.6072   20.0146 H   0  0  0  0  0  0
  -29.8380  -11.7544   17.5622 H   0  0  0  0  0  0
  -29.6129  -13.4760   17.6997 H   0  0  0  0  0  0
  -27.9449  -11.2704   18.9560 H   0  0  0  0  0  0
  -27.3939  -12.4534   17.7975 H   0  0  0  0  0  0
  -27.5913  -14.2459   19.3943 H   0  0  0  0  0  0
  -28.7117  -12.2879   21.4576 H   0  0  0  0  0  0
  -28.3026  -13.9719   21.7120 H   0  0  0  0  0  0
  -25.2796   -9.5640   22.4696 H   0  0  0  0  0  0
  -24.0008   -7.4612   22.7461 H   0  0  0  0  0  0
  -21.0821   -8.8731   19.8961 H   0  0  0  0  0  0
  -22.3701  -10.9619   19.6110 H   0  0  0  0  0  0
  -21.2023   -7.6153   23.9781 H   0  0  0  0  0  0
  -21.1476   -6.0517   25.9122 H   0  0  0  0  0  0
  -22.0586   -2.7621   23.2860 H   0  0  0  0  0  0
  -22.4032  -11.9901   22.4868 H   0  0  0  0  0  0
  -21.1038  -13.1268   22.2621 H   0  0  0  0  0  0
  -24.6516  -15.8499   20.5461 H   0  0  0  0  0  0
  -26.2773  -15.6408   20.1315 H   0  0  0  0  0  0
  -26.7271  -32.5326   23.1064 H   0  0  0  0  0  0
  -25.0063  -33.9680   25.0346 H   0  0  0  0  0  0
  -22.7377  -31.3002   21.4004 H   0  0  0  0  0  0
  -23.3747  -35.9612   23.3286 H   0  0  0  0  0  0
  -24.3573  -36.8922   22.2055 H   0  0  0  0  0  0
  -23.7261  -37.6469   23.6686 H   0  0  0  0  0  0
  -26.1541  -31.4986   20.6309 H   0  0  0  0  0  0
  -26.8619  -30.7735   22.0404 H   0  0  0  0  0  0
  -28.1146  -28.8183   21.2479 H   0  0  0  0  0  0
  -25.8700  -25.9187   18.9327 H   0  0  0  0  0  0
  -23.9707  -27.3592   18.9403 H   0  0  0  0  0  0
  -23.7861  -30.5999   19.4084 H   0  0  0  0  0  0
  -22.7740  -29.2600   19.8451 H   0  0  0  0  0  0
  -25.1298  -36.1874   25.0803 H   0  0  0  0  0  0
  -20.9988  -28.3296   24.1349 H   0  0  0  0  0  0
  -20.5660  -26.2342   23.3608 H   0  0  0  0  0  0
  -21.6650  -26.7425   22.1199 H   0  0  0  0  0  0
  -19.6920  -25.6276   21.1244 H   0  0  0  0  0  0
  -19.6672  -27.3159   20.6695 H   0  0  0  0  0  0
  -17.4201  -26.6635   21.4042 H   0  0  0  0  0  0
  -18.0377  -26.0089   22.9043 H   0  0  0  0  0  0
  -19.7972  -30.7317   24.2156 H   0  0  0  0  0  0
  -17.5041  -31.6247   24.5186 H   0  0  0  0  0  0
  -15.5374  -30.2954   23.7700 H   0  0  0  0  0  0
  -15.8693  -28.0820   22.7035 H   0  0  0  0  0  0
  -24.5858  -30.7171   25.7801 H   0  0  0  0  0  0
  -24.8965  -32.2982   26.4876 H   0  0  0  0  0  0
  -25.8006  -30.8955   27.0264 H   0  0  0  0  0  0
  -26.2990  -29.6691   24.1332 H   0  0  0  0  0  0
  -27.3935  -29.7245   25.4922 H   0  0  0  0  0  0
  -27.8918  -30.4158   23.9691 H   0  0  0  0  0  0
  -27.2632  -33.3641   26.2072 H   0  0  0  0  0  0
  -28.3857  -32.6917   25.0352 H   0  0  0  0  0  0
  -28.0734  -31.8513   26.5460 H   0  0  0  0  0  0
  -28.2585  -38.0086   24.7504 H   0  0  0  0  0  0
  -28.1079  -36.2620   24.6276 H   0  0  0  0  0  0
  -27.2309  -37.1423   25.8869 H   0  0  0  0  0  0
  -20.9479  -29.8772   21.6806 H   0  0  0  0  0  0
  -26.0149  -38.2824   24.1411 H   0  0  0  0  0  0
  -29.3134  -21.2017   22.7006 H   0  0  0  0  0  0
  -29.6374  -19.6403   17.9747 H   0  0  0  0  0  0
  -28.4891  -20.7907   17.2919 H   0  0  0  0  0  0
  -27.9037  -19.4547   18.2864 H   0  0  0  0  0  0
  -30.1746  -15.3310   24.4285 H   0  0  0  0  0  0
  -31.3787  -14.8868   23.2378 H   0  0  0  0  0  0
  -29.7976  -14.1016   23.2574 H   0  0  0  0  0  0
  -28.1559  -18.5690   21.2867 H   0  0  0  0  0  0
  -29.6336  -18.9004   22.0884 H   0  0  0  0  0  0
  -26.8592  -24.5549   20.4941 H   0  0  0  0  0  0
  -27.5838  -24.6578   18.9119 H   0  0  0  0  0  0
  -30.3434  -17.0572   22.7888 H   0  0  0  0  0  0
  -28.7290  -16.3870   22.7025 H   0  0  0  0  0  0
  -30.9198  -17.7562   20.0980 H   0  0  0  0  0  0
  -29.3945  -17.3778   19.3792 H   0  0  0  0  0  0
  1 25  1  0  0  0
  1 30  2  0  0  0
  1 83  1  0  0  0
  2  3  1  0  0  0
  2 25  1  0  0  0
  2 84  1  0  0  0
  2 85  1  0  0  0
  3  4  1  0  0  0
  3 86  1  0  0  0
  3 87  1  0  0  0
  4  5  1  0  0  0
  4 88  1  0  0  0
  4 89  1  0  0  0
  5  6  1  0  0  0
  5 26  1  0  0  0
  5 90  1  0  0  0
  6 25  1  0  0  0
  6 91  1  0  0  0
  6 92  1  0  0  0
  7  8  2  0  0  0
  7 26  1  0  0  0
  7 29  1  0  0  0
  8  9  1  0  0  0
  8 22  1  0  0  0
  9 10  1  0  0  0
  9 27  2  0  0  0
 10 11  2  0  0  0
 10 15  1  0  0  0
 11 12  1  0  0  0
 11 93  1  0  0  0
 12 13  2  0  0  0
 12 94  1  0  0  0
 13 14  1  0  0  0
 13 31  1  0  0  0
 14 15  2  0  0  0
 14 95  1  0  0  0
 15 96  1  0  0  0
 16 17  2  0  0  0
 16 21  1  0  0  0
 16 31  1  0  0  0
 17 18  1  0  0  0
 17 97  1  0  0  0
 18 19  2  0  0  0
 18 98  1  0  0  0
 19 20  1  0  0  0
 19 24  1  0  0  0
 20 21  2  0  0  0
 20 99  1  0  0  0
 21 23  1  0  0  0
 22 28  1  0  0  0
 22 32  2  0  0  0
 26 27  1  0  0  0
 28100  1  0  0  0
 28101  1  0  0  0
 29102  1  0  0  0
 29103  1  0  0  0
 33 34  1  0  0  0
 33 66  1  0  0  0
 33 70  2  0  0  0
 34 36  1  0  0  0
 34 59  1  0  0  0
 34104  1  0  0  0
 35 44  2  0  0  0
 35 45  1  0  0  0
 35 68  1  0  0  0
 36 56  1  0  0  0
 36105  1  0  0  0
 37 39  1  0  0  0
 37 47  1  0  0  0
 37 66  1  0  0  0
 37106  1  0  0  0
 38 43  2  0  0  0
 38 46  1  0  0  0
 38 47  1  0  0  0
 39 64  1  0  0  0
 39 67  2  0  0  0
 40 52  1  0  0  0
 40 53  2  0  0  0
 40 58  1  0  0  0
 41107  1  0  0  0
 41108  1  0  0  0
 41109  1  0  0  0
 41 48  1  0  0  0
 42 43  1  0  0  0
 42 66  1  0  0  0
 42110  1  0  0  0
 42111  1  0  0  0
 43 44  1  0  0  0
 44112  1  0  0  0
 45 46  2  0  0  0
 45113  1  0  0  0
 46114  1  0  0  0
 47115  1  0  0  0
 47116  1  0  0  0
 48 56  1  0  0  0
 48 65  1  0  0  0
 48117  1  0  0  0
 49 50  1  0  0  0
 49 53  1  0  0  0
 49 64  1  0  0  0
 49118  1  0  0  0
 50 51  1  0  0  0
 50119  1  0  0  0
 50120  1  0  0  0
 51 52  1  0  0  0
 51121  1  0  0  0
 51122  1  0  0  0
 52123  1  0  0  0
 52124  1  0  0  0
 53 54  1  0  0  0
 54 55  2  0  0  0
 54125  1  0  0  0
 55 57  1  0  0  0
 55126  1  0  0  0
 56 69  2  0  0  0
 57 58  2  0  0  0
 57127  1  0  0  0
 58128  1  0  0  0
 59 60  1  0  0  0
 59 61  1  0  0  0
 59 62  1  0  0  0
 60129  1  0  0  0
 60130  1  0  0  0
 60131  1  0  0  0
 61132  1  0  0  0
 61133  1  0  0  0
 61134  1  0  0  0
 62135  1  0  0  0
 62136  1  0  0  0
 62137  1  0  0  0
 63 65  1  0  0  0
 63138  1  0  0  0
 63139  1  0  0  0
 63140  1  0  0  0
 64141  1  0  0  0
 65142  1  0  0  0
 68 78  1  0  0  0
 71 72  2  0  0  0
 71 81  1  0  0  0
 71143  1  0  0  0
 72 73  1  0  0  0
 72 77  1  0  0  0
 73 75  1  0  0  0
 73 82  2  0  0  0
 74 78  1  0  0  0
 74 81  2  0  0  0
 74 82  1  0  0  0
 75144  1  0  0  0
 75145  1  0  0  0
 75146  1  0  0  0
 76 79  1  0  0  0
 76147  1  0  0  0
 76148  1  0  0  0
 76149  1  0  0  0
 77 80  1  0  0  0
 77150  1  0  0  0
 77151  1  0  0  0
 78152  1  0  0  0
 78153  1  0  0  0
 79 83  1  0  0  0
 79154  1  0  0  0
 79155  1  0  0  0
 80 83  1  0  0  0
 80156  1  0  0  0
 80157  1  0  0  0
M  ISO  4   1 100  68 101  78 101  83 100
M  END
> <chiral flag>
0

> <version>
0

> <s_m_source_file>
/data/baiqing/PycharmProjects/Reinvent-master-3.2/result/LINK_invent/BTK/process_docking_weight1_custom_sum_contain_oxygen_bond_distance_aromatic_linkinvent_7_9_3/rearranged_h_0052.sdf

> <i_m_source_file_index>
30

> <r_mmod_Potential_Energy-OPLS-2005>
276.835784912109

> <r_mmod_Stretch_Energy-OPLS-2005>
220.010009765625

> <r_mmod_Bend_Energy-OPLS-2005>
278.919464111328

> <r_mmod_Torsional_Energy-OPLS-2005>
287.942535400391

> <r_mmod_Improper_Torsional_Energy-OPLS-2005>
9.78680896759033

> <r_mmod_Van_der_Waal_Energy-OPLS-2005>
156.982345581055

> <r_mmod_Electrostatic_Energy-OPLS-2005>
-624.307739257812

> <r_mmod_Solvation_Energy-OPLS-2005>
-217.708206176758

> <b_mmod_Minimization_Converged-OPLS-2005>
0

> <r_mmod_RMS_Derivative-OPLS-2005>
3.46961545944214

$$$$
30
                    3D
 Structure written by MMmdl.
154162  0  0  1  0            999 V2000
  -30.5845  -14.6284   20.5385 C   0  0  0  0  0  0
  -30.4336  -12.4008   19.4431 C   0  0  0  0  0  0
  -29.4996  -12.5252   18.2182 C   0  0  0  0  0  0
  -28.0244  -12.3469   18.6332 C   0  0  0  0  0  0
  -27.6491  -13.2039   19.8721 C   0  0  2  0  0  0
  -28.6879  -13.0193   20.9972 C   0  0  0  0  0  0
  -25.2542  -13.8148   20.5673 C   0  0  0  0  0  0
  -24.1791  -13.0411   20.9166 C   0  0  0  0  0  0
  -24.6341  -11.6888   20.8724 C   0  0  0  0  0  0
  -23.9015  -10.4278   21.0382 C   0  0  0  0  0  0
  -24.3572   -9.4211   21.9173 C   0  0  0  0  0  0
  -23.6251   -8.2242   22.0760 C   0  0  0  0  0  0
  -22.4231   -8.0272   21.3553 C   0  0  0  0  0  0
  -21.9855   -9.0242   20.4657 C   0  0  0  0  0  0
  -22.7175  -10.2125   20.3054 C   0  0  0  0  0  0
  -21.6840   -6.0712   22.5275 C   0  0  0  0  0  0
  -21.4011   -6.5616   23.8211 C   0  0  0  0  0  0
  -21.3667   -5.6775   24.9170 C   0  0  0  0  0  0
  -21.6042   -4.3039   24.7231 C   0  0  0  0  0  0
  -21.8818   -3.8131   23.4349 C   0  0  0  0  0  0
  -21.9186   -4.6945   22.3401 C   0  0  0  0  0  0
  -22.7835  -13.5241   21.1815 C   0  0  0  0  0  0
  -22.1650   -4.2130   21.0982 F   0  0  0  0  0  0
  -21.5639   -3.4528   25.7750 F   0  0  0  0  0  0
  -29.9922  -13.3977   20.4423 N   0  0  0  0  0  0
  -26.2942  -12.9287   20.3345 N   0  0  0  0  0  0
  -25.9269  -11.6452   20.5763 N   0  0  0  0  0  0
  -22.0470  -12.8280   22.0408 N   0  0  0  0  0  0
  -25.4250  -15.1854   20.4111 N   0  0  0  0  0  0
  -31.7238  -14.8141   20.0908 O   0  0  0  0  0  0
  -21.6623   -6.8848   21.4228 O   0  0  0  0  0  0
  -22.3532  -14.5535   20.6651 O   0  0  0  0  0  0
  -24.6290  -31.8583   23.2025 C   0  0  0  0  0  0
  -25.9136  -32.4756   23.8332 C   0  0  1  0  0  0
  -27.1992  -27.2966   20.0960 C   0  0  0  0  0  0
  -25.5939  -33.8556   24.2268 N   0  0  0  0  0  0
  -23.4203  -30.4886   21.5449 C   0  0  2  0  0  0
  -24.8644  -28.9463   20.1083 C   0  0  0  0  0  0
  -22.7468  -29.4612   22.4880 C   0  0  0  0  0  0
  -18.0292  -28.1350   22.8466 C   0  0  0  0  0  0
  -24.1502  -36.7316   23.2632 C   0  0  0  0  0  0
  -25.9663  -30.7814   21.3777 C   0  0  0  0  0  0
  -26.0364  -29.4098   20.7147 C   0  0  0  0  0  0
  -27.2086  -28.5942   20.7048 C   0  0  0  0  0  0
  -25.9897  -26.8788   19.4975 C   0  0  0  0  0  0
  -24.8421  -27.6870   19.4956 C   0  0  0  0  0  0
  -23.6384  -29.8342   20.1569 C   0  0  0  0  0  0
  -25.4118  -36.3067   24.0304 C   0  0  1  0  0  0
  -20.5900  -28.3674   23.1267 C   0  0  2  0  0  0
  -20.6789  -26.9398   22.5400 C   0  0  0  0  0  0
  -19.5753  -26.6374   21.5207 C   0  0  0  0  0  0
  -18.1933  -26.7890   22.1615 C   0  0  0  0  0  0
  -19.1545  -28.8823   23.2859 C   0  0  0  0  0  0
  -18.9466  -30.1428   23.8869 C   0  0  0  0  0  0
  -17.6467  -30.6560   24.0549 C   0  0  0  0  0  0
  -25.9044  -34.9426   23.5083 C   0  0  0  0  0  0
  -16.5354  -29.9067   23.6309 C   0  0  0  0  0  0
  -16.7286  -28.6489   23.0326 C   0  0  0  0  0  0
  -26.4508  -31.6556   25.0700 C   0  0  0  0  0  0
  -25.3723  -31.3722   26.1412 C   0  0  0  0  0  0
  -27.0360  -30.2958   24.6188 C   0  0  0  0  0  0
  -27.6043  -32.4318   25.7488 C   0  0  0  0  0  0
  -27.5584  -37.1813   24.8438 C   0  0  0  0  0  0
  -21.4183  -29.3046   22.3640 N   0  0  0  0  0  0
  -26.4296  -37.3773   23.9375 N   0  0  0  0  0  0
  -24.6920  -31.0568   22.0997 N   0  0  0  0  0  0
  -23.4200  -28.8119   23.2931 O   0  0  0  0  0  0
  -28.3108  -26.4424   20.1369 O   0  0  0  0  0  0
  -26.5612  -34.8899   22.4649 O   0  0  0  0  0  0
  -23.5454  -32.1413   23.7313 O   0  0  0  0  0  0
  -27.5389  -21.6090   19.6733 C   0  0  0  0  0  0
  -29.8106  -21.9100   20.1883 C   0  0  0  0  0  0
  -28.7893  -20.9888   19.8899 C   0  0  0  0  0  0
  -28.4363  -23.7613   19.8379 C   0  0  0  0  0  0
  -29.6090  -15.9882   22.3161 C   0  0  0  0  0  0
  -29.0947  -19.4828   19.5362 C   0  0  0  0  0  0
  -28.3962  -25.2394   19.2712 C   0  0  0  0  0  0
  -29.0655  -18.2981   20.5844 C   0  0  0  0  0  0
  -29.5276  -16.8801   19.9838 C   0  0  0  0  0  0
  -27.3773  -22.9648   19.6341 N   0  0  0  0  0  0
  -29.6349  -23.2586   20.1579 N   0  0  0  0  0  0
  -29.7749  -15.6947   20.8890 N   0  0  0  0  0  0
  -31.4686  -12.5562   19.1373 H   0  0  0  0  0  0
  -30.3989  -11.3934   19.8639 H   0  0  0  0  0  0
  -29.7724  -11.7964   17.4554 H   0  0  0  0  0  0
  -29.6247  -13.5097   17.7622 H   0  0  0  0  0  0
  -27.8692  -11.2902   18.8554 H   0  0  0  0  0  0
  -27.3635  -12.5782   17.7967 H   0  0  0  0  0  0
  -27.6751  -14.2465   19.5561 H   0  0  0  0  0  0
  -28.7130  -11.9786   21.3277 H   0  0  0  0  0  0
  -28.4238  -13.6022   21.8784 H   0  0  0  0  0  0
  -25.2714   -9.5710   22.4747 H   0  0  0  0  0  0
  -23.9980   -7.4633   22.7485 H   0  0  0  0  0  0
  -21.0782   -8.8730   19.8962 H   0  0  0  0  0  0
  -22.3596  -10.9649   19.6170 H   0  0  0  0  0  0
  -21.2000   -7.6125   23.9709 H   0  0  0  0  0  0
  -21.1486   -6.0502   25.9077 H   0  0  0  0  0  0
  -22.0590   -2.7590   23.2848 H   0  0  0  0  0  0
  -22.4074  -11.9962   22.4832 H   0  0  0  0  0  0
  -21.1100  -13.1367   22.2589 H   0  0  0  0  0  0
  -24.6614  -15.8410   20.5397 H   0  0  0  0  0  0
  -26.2954  -15.6343   20.1525 H   0  0  0  0  0  0
  -26.7175  -32.5426   23.1062 H   0  0  0  0  0  0
  -25.0020  -33.9682   25.0364 H   0  0  0  0  0  0
  -22.7156  -31.3095   21.4039 H   0  0  0  0  0  0
  -23.3739  -35.9670   23.3266 H   0  0  0  0  0  0
  -24.3589  -36.9029   22.2062 H   0  0  0  0  0  0
  -23.7325  -37.6522   23.6705 H   0  0  0  0  0  0
  -26.0972  -31.5463   20.6097 H   0  0  0  0  0  0
  -26.8461  -30.8322   22.0065 H   0  0  0  0  0  0
  -28.1106  -28.9423   21.1910 H   0  0  0  0  0  0
  -25.8713  -25.9022   19.0529 H   0  0  0  0  0  0
  -23.9347  -27.3228   19.0347 H   0  0  0  0  0  0
  -23.7671  -30.6152   19.4076 H   0  0  0  0  0  0
  -22.7564  -29.2712   19.8466 H   0  0  0  0  0  0
  -25.1324  -36.1900   25.0808 H   0  0  0  0  0  0
  -20.9993  -28.3280   24.1395 H   0  0  0  0  0  0
  -20.5734  -26.2272   23.3598 H   0  0  0  0  0  0
  -21.6653  -26.7441   22.1181 H   0  0  0  0  0  0
  -19.6907  -25.6294   21.1238 H   0  0  0  0  0  0
  -19.6696  -27.3166   20.6735 H   0  0  0  0  0  0
  -17.4221  -26.6634   21.4013 H   0  0  0  0  0  0
  -18.0301  -26.0019   22.9000 H   0  0  0  0  0  0
  -19.7952  -30.7221   24.2246 H   0  0  0  0  0  0
  -17.5046  -31.6241   24.5160 H   0  0  0  0  0  0
  -15.5357  -30.2967   23.7654 H   0  0  0  0  0  0
  -15.8688  -28.0842   22.7012 H   0  0  0  0  0  0
  -24.5885  -30.7088   25.7753 H   0  0  0  0  0  0
  -24.8892  -32.2891   26.4781 H   0  0  0  0  0  0
  -25.8024  -30.8942   27.0219 H   0  0  0  0  0  0
  -26.2951  -29.6667   24.1233 H   0  0  0  0  0  0
  -27.4069  -29.7266   25.4725 H   0  0  0  0  0  0
  -27.8814  -30.4215   23.9421 H   0  0  0  0  0  0
  -27.2639  -33.3659   26.1968 H   0  0  0  0  0  0
  -28.3888  -32.6834   25.0341 H   0  0  0  0  0  0
  -28.0618  -31.8488   26.5494 H   0  0  0  0  0  0
  -28.2565  -38.0151   24.7512 H   0  0  0  0  0  0
  -28.1153  -36.2678   24.6257 H   0  0  0  0  0  0
  -27.2268  -37.1452   25.8837 H   0  0  0  0  0  0
  -20.9301  -29.8864   21.6961 H   0  0  0  0  0  0
  -26.0168  -38.2846   24.1381 H   0  0  0  0  0  0
  -26.6753  -21.0149   19.4065 H   0  0  0  0  0  0
  -30.8252  -21.5710   20.3322 H   0  0  0  0  0  0
  -28.5822  -16.2796   22.5406 H   0  0  0  0  0  0
  -30.2664  -16.8087   22.6067 H   0  0  0  0  0  0
  -29.8635  -15.1417   22.9574 H   0  0  0  0  0  0
  -30.1034  -19.4857   19.1251 H   0  0  0  0  0  0
  -28.4574  -19.2095   18.6940 H   0  0  0  0  0  0
  -27.7091  -25.2662   18.4262 H   0  0  0  0  0  0
  -29.3530  -25.3548   18.7635 H   0  0  0  0  0  0
  -28.0584  -18.2089   21.0001 H   0  0  0  0  0  0
  -29.7155  -18.5712   21.4148 H   0  0  0  0  0  0
  -30.4181  -17.0307   19.3697 H   0  0  0  0  0  0
  -28.7597  -16.5536   19.2784 H   0  0  0  0  0  0
  1 25  1  0  0  0
  1 30  2  0  0  0
  1 82  1  0  0  0
  2  3  1  0  0  0
  2 25  1  0  0  0
  2 83  1  0  0  0
  2 84  1  0  0  0
  3  4  1  0  0  0
  3 85  1  0  0  0
  3 86  1  0  0  0
  4  5  1  0  0  0
  4 87  1  0  0  0
  4 88  1  0  0  0
  5  6  1  0  0  0
  5 26  1  0  0  0
  5 89  1  0  0  0
  6 25  1  0  0  0
  6 90  1  0  0  0
  6 91  1  0  0  0
  7  8  2  0  0  0
  7 26  1  0  0  0
  7 29  1  0  0  0
  8  9  1  0  0  0
  8 22  1  0  0  0
  9 10  1  0  0  0
  9 27  2  0  0  0
 10 11  2  0  0  0
 10 15  1  0  0  0
 11 12  1  0  0  0
 11 92  1  0  0  0
 12 13  2  0  0  0
 12 93  1  0  0  0
 13 14  1  0  0  0
 13 31  1  0  0  0
 14 15  2  0  0  0
 14 94  1  0  0  0
 15 95  1  0  0  0
 16 17  2  0  0  0
 16 21  1  0  0  0
 16 31  1  0  0  0
 17 18  1  0  0  0
 17 96  1  0  0  0
 18 19  2  0  0  0
 18 97  1  0  0  0
 19 20  1  0  0  0
 19 24  1  0  0  0
 20 21  2  0  0  0
 20 98  1  0  0  0
 21 23  1  0  0  0
 22 28  1  0  0  0
 22 32  2  0  0  0
 26 27  1  0  0  0
 28 99  1  0  0  0
 28100  1  0  0  0
 29101  1  0  0  0
 29102  1  0  0  0
 33 34  1  0  0  0
 33 66  1  0  0  0
 33 70  2  0  0  0
 34 36  1  0  0  0
 34 59  1  0  0  0
 34103  1  0  0  0
 35 44  2  0  0  0
 35 45  1  0  0  0
 35 68  1  0  0  0
 36 56  1  0  0  0
 36104  1  0  0  0
 37 39  1  0  0  0
 37 47  1  0  0  0
 37 66  1  0  0  0
 37105  1  0  0  0
 38 43  2  0  0  0
 38 46  1  0  0  0
 38 47  1  0  0  0
 39 64  1  0  0  0
 39 67  2  0  0  0
 40 52  1  0  0  0
 40 53  2  0  0  0
 40 58  1  0  0  0
 41106  1  0  0  0
 41107  1  0  0  0
 41108  1  0  0  0
 41 48  1  0  0  0
 42 43  1  0  0  0
 42 66  1  0  0  0
 42109  1  0  0  0
 42110  1  0  0  0
 43 44  1  0  0  0
 44111  1  0  0  0
 45 46  2  0  0  0
 45112  1  0  0  0
 46113  1  0  0  0
 47114  1  0  0  0
 47115  1  0  0  0
 48 56  1  0  0  0
 48 65  1  0  0  0
 48116  1  0  0  0
 49 50  1  0  0  0
 49 53  1  0  0  0
 49 64  1  0  0  0
 49117  1  0  0  0
 50 51  1  0  0  0
 50118  1  0  0  0
 50119  1  0  0  0
 51 52  1  0  0  0
 51120  1  0  0  0
 51121  1  0  0  0
 52122  1  0  0  0
 52123  1  0  0  0
 53 54  1  0  0  0
 54 55  2  0  0  0
 54124  1  0  0  0
 55 57  1  0  0  0
 55125  1  0  0  0
 56 69  2  0  0  0
 57 58  2  0  0  0
 57126  1  0  0  0
 58127  1  0  0  0
 59 60  1  0  0  0
 59 61  1  0  0  0
 59 62  1  0  0  0
 60128  1  0  0  0
 60129  1  0  0  0
 60130  1  0  0  0
 61131  1  0  0  0
 61132  1  0  0  0
 61133  1  0  0  0
 62134  1  0  0  0
 62135  1  0  0  0
 62136  1  0  0  0
 63 65  1  0  0  0
 63137  1  0  0  0
 63138  1  0  0  0
 63139  1  0  0  0
 64140  1  0  0  0
 65141  1  0  0  0
 68 77  1  0  0  0
 71 73  2  0  0  0
 71 80  1  0  0  0
 71142  1  0  0  0
 72 73  1  0  0  0
 72 81  2  0  0  0
 72143  1  0  0  0
 73 76  1  0  0  0
 74 77  1  0  0  0
 74 80  2  0  0  0
 74 81  1  0  0  0
 75 82  1  0  0  0
 75144  1  0  0  0
 75145  1  0  0  0
 75146  1  0  0  0
 76 78  1  0  0  0
 76147  1  0  0  0
 76148  1  0  0  0
 77149  1  0  0  0
 77150  1  0  0  0
 78 79  1  0  0  0
 78151  1  0  0  0
 78152  1  0  0  0
 79 82  1  0  0  0
 79153  1  0  0  0
 79154  1  0  0  0
M  ISO  4   1 100  68 101  77 101  82 100
M  END
> <chiral flag>
0

> <version>
0

> <s_m_source_file>
/data/baiqing/PycharmProjects/Reinvent-master-3.2/result/LINK_invent/BTK/process_docking_weight1_custom_sum_contain_oxygen_bond_distance_aromatic_linkinvent_7_9_3/rearranged_h_0052.sdf

> <i_m_source_file_index>
31

> <r_mmod_Potential_Energy-OPLS-2005>
-86.9696350097656

> <r_mmod_Stretch_Energy-OPLS-2005>
82.8554458618164

> <r_mmod_Bend_Energy-OPLS-2005>
156.373931884766

> <r_mmod_Torsional_Energy-OPLS-2005>
303.873443603516

> <r_mmod_Improper_Torsional_Energy-OPLS-2005>
13.7473182678223

> <r_mmod_Van_der_Waal_Energy-OPLS-2005>
155.433731079102

> <r_mmod_Electrostatic_Energy-OPLS-2005>
-633.01611328125

> <r_mmod_Solvation_Energy-OPLS-2005>
-218.159225463867

> <b_mmod_Minimization_Converged-OPLS-2005>
0

> <r_mmod_RMS_Derivative-OPLS-2005>
4.9307017326355

$$$$
31
                    3D
 Structure written by MMmdl.
172180  0  0  1  0            999 V2000
  -30.7513  -14.4691   20.6333 C   0  0  0  0  0  0
  -30.4099  -12.3251   19.4429 C   0  0  0  0  0  0
  -29.4966  -12.5208   18.2168 C   0  0  0  0  0  0
  -28.0199  -12.3621   18.6199 C   0  0  0  0  0  0
  -27.6558  -13.2132   19.8634 C   0  0  2  0  0  0
  -28.6856  -13.0270   20.9966 C   0  0  0  0  0  0
  -25.2565  -13.8177   20.5666 C   0  0  0  0  0  0
  -24.1829  -13.0443   20.9170 C   0  0  0  0  0  0
  -24.6390  -11.6911   20.8710 C   0  0  0  0  0  0
  -23.9063  -10.4295   21.0385 C   0  0  0  0  0  0
  -24.3619   -9.4215   21.9172 C   0  0  0  0  0  0
  -23.6298   -8.2250   22.0752 C   0  0  0  0  0  0
  -22.4277   -8.0282   21.3548 C   0  0  0  0  0  0
  -21.9907   -9.0250   20.4642 C   0  0  0  0  0  0
  -22.7233  -10.2131   20.3043 C   0  0  0  0  0  0
  -21.6855   -6.0737   22.5285 C   0  0  0  0  0  0
  -21.4011   -6.5643   23.8219 C   0  0  0  0  0  0
  -21.3657   -5.6792   24.9179 C   0  0  0  0  0  0
  -21.6045   -4.3058   24.7227 C   0  0  0  0  0  0
  -21.8817   -3.8145   23.4349 C   0  0  0  0  0  0
  -21.9196   -4.6961   22.3405 C   0  0  0  0  0  0
  -22.7853  -13.5230   21.1856 C   0  0  0  0  0  0
  -22.1662   -4.2151   21.0981 F   0  0  0  0  0  0
  -21.5631   -3.4535   25.7737 F   0  0  0  0  0  0
  -30.0299  -13.3192   20.4671 N   0  0  0  0  0  0
  -26.2987  -12.9355   20.3276 N   0  0  0  0  0  0
  -25.9312  -11.6509   20.5710 N   0  0  0  0  0  0
  -22.0511  -12.8210   22.0411 N   0  0  0  0  0  0
  -25.4288  -15.1898   20.4100 N   0  0  0  0  0  0
  -31.8055  -14.6607   20.0174 O   0  0  0  0  0  0
  -21.6644   -6.8875   21.4244 O   0  0  0  0  0  0
  -22.3531  -14.5537   20.6715 O   0  0  0  0  0  0
  -24.6151  -31.8664   23.2084 C   0  0  0  0  0  0
  -25.9047  -32.4809   23.8385 C   0  0  1  0  0  0
  -27.2298  -27.4211   20.1070 C   0  0  0  0  0  0
  -25.5915  -33.8617   24.2330 N   0  0  0  0  0  0
  -23.4035  -30.4905   21.5483 C   0  0  2  0  0  0
  -24.8508  -28.9519   20.1141 C   0  0  0  0  0  0
  -22.7408  -29.4659   22.4979 C   0  0  0  0  0  0
  -18.0273  -28.1366   22.8496 C   0  0  0  0  0  0
  -24.1490  -36.7297   23.2642 C   0  0  0  0  0  0
  -25.9333  -30.8301   21.3615 C   0  0  0  0  0  0
  -26.0116  -29.4633   20.7095 C   0  0  0  0  0  0
  -27.2077  -28.7073   20.6976 C   0  0  0  0  0  0
  -26.0551  -26.9228   19.5080 C   0  0  0  0  0  0
  -24.8686  -27.6821   19.5082 C   0  0  0  0  0  0
  -23.6123  -29.8195   20.1635 C   0  0  0  0  0  0
  -25.4109  -36.3103   24.0347 C   0  0  1  0  0  0
  -20.5862  -28.3655   23.1316 C   0  0  2  0  0  0
  -20.6764  -26.9396   22.5418 C   0  0  0  0  0  0
  -19.5748  -26.6378   21.5212 C   0  0  0  0  0  0
  -18.1922  -26.7921   22.1611 C   0  0  0  0  0  0
  -19.1523  -28.8827   23.2903 C   0  0  0  0  0  0
  -18.9452  -30.1438   23.8903 C   0  0  0  0  0  0
  -17.6456  -30.6580   24.0563 C   0  0  0  0  0  0
  -25.9039  -34.9471   23.5126 C   0  0  0  0  0  0
  -16.5344  -29.9080   23.6335 C   0  0  0  0  0  0
  -16.7260  -28.6493   23.0356 C   0  0  0  0  0  0
  -26.4482  -31.6587   25.0709 C   0  0  0  0  0  0
  -25.3759  -31.3677   26.1459 C   0  0  0  0  0  0
  -27.0306  -30.3031   24.6071 C   0  0  0  0  0  0
  -27.6058  -32.4302   25.7468 C   0  0  0  0  0  0
  -27.5579  -37.1800   24.8470 C   0  0  0  0  0  0
  -21.4136  -29.3025   22.3717 N   0  0  0  0  0  0
  -26.4290  -37.3787   23.9418 N   0  0  0  0  0  0
  -24.6690  -31.0772   22.0980 N   0  0  0  0  0  0
  -23.4182  -28.8213   23.3028 O   0  0  0  0  0  0
  -28.3796  -26.6616   20.0945 O   0  0  0  0  0  0
  -26.5588  -34.8929   22.4679 O   0  0  0  0  0  0
  -23.5347  -32.1415   23.7487 O   0  0  0  0  0  0
  -28.9111  -20.3067   21.0637 C   0  0  0  0  0  0
  -29.0141  -21.5422   20.3632 C   0  0  0  0  0  0
  -29.1134  -19.1164   20.3104 C   0  0  0  0  0  0
  -29.5065  -20.3904   18.4429 C   0  0  0  0  0  0
  -27.1297  -20.1526   22.8761 C   0  0  0  0  0  0
  -31.4454  -20.5013   16.8159 C   0  0  0  0  0  0
  -31.6867  -15.4032   23.4348 C   0  0  0  0  0  0
  -28.6267  -20.2649   22.5628 C   0  0  0  0  0  0
  -28.8681  -22.9228   21.0372 C   0  0  0  0  0  0
  -28.9799  -17.6763   20.8567 C   0  0  0  0  0  0
  -29.9212  -20.4363   16.9840 C   0  0  0  0  0  0
  -28.5264  -24.1390   20.1184 C   0  0  0  0  0  0
  -30.2577  -15.3688   22.8563 C   0  0  0  0  0  0
  -30.3213  -16.8924   20.9236 C   0  0  0  0  0  0
  -28.3470  -25.4680   20.9041 C   0  0  0  0  0  0
  -29.3445  -21.5545   19.0588 N   0  0  0  0  0  0
  -29.4081  -19.1898   19.0000 N   0  0  0  0  0  0
  -30.2114  -15.4743   21.3833 N   0  0  0  0  0  0
  -31.4581  -12.4005   19.1486 H   0  0  0  0  0  0
  -30.2934  -11.3173   19.8449 H   0  0  0  0  0  0
  -29.7521  -11.8034   17.4364 H   0  0  0  0  0  0
  -29.6589  -13.5111   17.7890 H   0  0  0  0  0  0
  -27.8438  -11.3054   18.8285 H   0  0  0  0  0  0
  -27.3692  -12.6188   17.7830 H   0  0  0  0  0  0
  -27.6934  -14.2579   19.5538 H   0  0  0  0  0  0
  -28.6568  -12.0072   21.3828 H   0  0  0  0  0  0
  -28.3938  -13.6654   21.8257 H   0  0  0  0  0  0
  -25.2769   -9.5697   22.4737 H   0  0  0  0  0  0
  -24.0013   -7.4639   22.7471 H   0  0  0  0  0  0
  -21.0842   -8.8758   19.8945 H   0  0  0  0  0  0
  -22.3693  -10.9659   19.6143 H   0  0  0  0  0  0
  -21.1993   -7.6151   23.9724 H   0  0  0  0  0  0
  -21.1480   -6.0520   25.9086 H   0  0  0  0  0  0
  -22.0593   -2.7605   23.2849 H   0  0  0  0  0  0
  -22.4129  -11.9860   22.4772 H   0  0  0  0  0  0
  -21.1124  -13.1224   22.2627 H   0  0  0  0  0  0
  -24.6630  -15.8457   20.5183 H   0  0  0  0  0  0
  -26.2831  -15.6270   20.0906 H   0  0  0  0  0  0
  -26.7109  -32.5517   23.1146 H   0  0  0  0  0  0
  -25.0125  -33.9783   25.0514 H   0  0  0  0  0  0
  -22.6921  -31.3074   21.4086 H   0  0  0  0  0  0
  -23.3758  -35.9618   23.3299 H   0  0  0  0  0  0
  -24.3592  -36.8906   22.2055 H   0  0  0  0  0  0
  -23.7234  -37.6502   23.6651 H   0  0  0  0  0  0
  -26.0488  -31.5971   20.5944 H   0  0  0  0  0  0
  -26.8203  -30.8811   21.9812 H   0  0  0  0  0  0
  -28.1053  -29.1007   21.1537 H   0  0  0  0  0  0
  -26.0600  -25.9484   19.0395 H   0  0  0  0  0  0
  -23.9776  -27.2837   19.0424 H   0  0  0  0  0  0
  -23.7173  -30.5935   19.4023 H   0  0  0  0  0  0
  -22.7367  -29.2374   19.8689 H   0  0  0  0  0  0
  -25.1291  -36.1956   25.0839 H   0  0  0  0  0  0
  -20.9963  -28.3209   24.1429 H   0  0  0  0  0  0
  -20.5661  -26.2264   23.3599 H   0  0  0  0  0  0
  -21.6631  -26.7436   22.1203 H   0  0  0  0  0  0
  -19.6908  -25.6292   21.1228 H   0  0  0  0  0  0
  -19.6696  -27.3193   20.6749 H   0  0  0  0  0  0
  -17.4206  -26.6693   21.3996 H   0  0  0  0  0  0
  -18.0306  -26.0048   22.8985 H   0  0  0  0  0  0
  -19.7932  -30.7257   24.2263 H   0  0  0  0  0  0
  -17.5015  -31.6269   24.5148 H   0  0  0  0  0  0
  -15.5343  -30.2983   23.7667 H   0  0  0  0  0  0
  -15.8656  -28.0820   22.7066 H   0  0  0  0  0  0
  -24.5977  -30.6963   25.7818 H   0  0  0  0  0  0
  -24.8895  -32.2811   26.4882 H   0  0  0  0  0  0
  -25.8135  -30.8898   27.0230 H   0  0  0  0  0  0
  -26.2830  -29.6785   24.1162 H   0  0  0  0  0  0
  -27.4128  -29.7274   25.4511 H   0  0  0  0  0  0
  -27.8648  -30.4356   23.9178 H   0  0  0  0  0  0
  -27.2687  -33.3610   26.2039 H   0  0  0  0  0  0
  -28.3867  -32.6837   25.0289 H   0  0  0  0  0  0
  -28.0720  -31.8425   26.5384 H   0  0  0  0  0  0
  -28.2598  -38.0097   24.7515 H   0  0  0  0  0  0
  -28.1074  -36.2628   24.6289 H   0  0  0  0  0  0
  -27.2302  -37.1428   25.8876 H   0  0  0  0  0  0
  -20.9293  -29.8742   21.6939 H   0  0  0  0  0  0
  -26.0177  -38.2864   24.1415 H   0  0  0  0  0  0
  -26.9622  -20.1286   23.9536 H   0  0  0  0  0  0
  -26.6994  -19.2426   22.4577 H   0  0  0  0  0  0
  -26.5704  -20.9993   22.4768 H   0  0  0  0  0  0
  -31.7199  -20.5121   15.7617 H   0  0  0  0  0  0
  -31.9256  -19.6403   17.2814 H   0  0  0  0  0  0
  -31.8486  -21.4022   17.2792 H   0  0  0  0  0  0
  -31.6597  -15.3152   24.5212 H   0  0  0  0  0  0
  -32.1986  -16.3364   23.2000 H   0  0  0  0  0  0
  -32.3023  -14.5831   23.0637 H   0  0  0  0  0  0
  -29.0387  -21.1518   23.0457 H   0  0  0  0  0  0
  -29.1654  -19.4346   23.0209 H   0  0  0  0  0  0
  -29.7933  -23.1274   21.5770 H   0  0  0  0  0  0
  -28.0859  -22.8508   21.7917 H   0  0  0  0  0  0
  -28.2867  -17.1390   20.2086 H   0  0  0  0  0  0
  -28.5014  -17.6795   21.8340 H   0  0  0  0  0  0
  -29.4582  -21.2998   16.5045 H   0  0  0  0  0  0
  -29.5281  -19.5588   16.4685 H   0  0  0  0  0  0
  -27.6212  -23.9282   19.5497 H   0  0  0  0  0  0
  -29.3273  -24.2664   19.3906 H   0  0  0  0  0  0
  -29.6712  -16.1750   23.2988 H   0  0  0  0  0  0
  -29.7887  -14.4477   23.1988 H   0  0  0  0  0  0
  -31.0164  -17.4416   21.5584 H   0  0  0  0  0  0
  -30.7628  -16.9316   19.9258 H   0  0  0  0  0  0
  -29.1658  -25.5663   21.6176 H   0  0  0  0  0  0
  -27.4389  -25.4147   21.5090 H   0  0  0  0  0  0
  1 25  1  0  0  0
  1 30  2  0  0  0
  1 88  1  0  0  0
  2  3  1  0  0  0
  2 25  1  0  0  0
  2 89  1  0  0  0
  2 90  1  0  0  0
  3  4  1  0  0  0
  3 91  1  0  0  0
  3 92  1  0  0  0
  4  5  1  0  0  0
  4 93  1  0  0  0
  4 94  1  0  0  0
  5  6  1  0  0  0
  5 26  1  0  0  0
  5 95  1  0  0  0
  6 25  1  0  0  0
  6 96  1  0  0  0
  6 97  1  0  0  0
  7  8  2  0  0  0
  7 26  1  0  0  0
  7 29  1  0  0  0
  8  9  1  0  0  0
  8 22  1  0  0  0
  9 10  1  0  0  0
  9 27  2  0  0  0
 10 11  2  0  0  0
 10 15  1  0  0  0
 11 12  1  0  0  0
 11 98  1  0  0  0
 12 13  2  0  0  0
 12 99  1  0  0  0
 13 14  1  0  0  0
 13 31  1  0  0  0
 14 15  2  0  0  0
 14100  1  0  0  0
 15101  1  0  0  0
 16 17  2  0  0  0
 16 21  1  0  0  0
 16 31  1  0  0  0
 17 18  1  0  0  0
 17102  1  0  0  0
 18 19  2  0  0  0
 18103  1  0  0  0
 19 20  1  0  0  0
 19 24  1  0  0  0
 20 21  2  0  0  0
 20104  1  0  0  0
 21 23  1  0  0  0
 22 28  1  0  0  0
 22 32  2  0  0  0
 26 27  1  0  0  0
 28105  1  0  0  0
 28106  1  0  0  0
 29107  1  0  0  0
 29108  1  0  0  0
 33 34  1  0  0  0
 33 66  1  0  0  0
 33 70  2  0  0  0
 34 36  1  0  0  0
 34 59  1  0  0  0
 34109  1  0  0  0
 35 44  2  0  0  0
 35 45  1  0  0  0
 35 68  1  0  0  0
 36 56  1  0  0  0
 36110  1  0  0  0
 37 39  1  0  0  0
 37 47  1  0  0  0
 37 66  1  0  0  0
 37111  1  0  0  0
 38 43  2  0  0  0
 38 46  1  0  0  0
 38 47  1  0  0  0
 39 64  1  0  0  0
 39 67  2  0  0  0
 40 52  1  0  0  0
 40 53  2  0  0  0
 40 58  1  0  0  0
 41112  1  0  0  0
 41113  1  0  0  0
 41114  1  0  0  0
 41 48  1  0  0  0
 42 43  1  0  0  0
 42 66  1  0  0  0
 42115  1  0  0  0
 42116  1  0  0  0
 43 44  1  0  0  0
 44117  1  0  0  0
 45 46  2  0  0  0
 45118  1  0  0  0
 46119  1  0  0  0
 47120  1  0  0  0
 47121  1  0  0  0
 48 56  1  0  0  0
 48 65  1  0  0  0
 48122  1  0  0  0
 49 50  1  0  0  0
 49 53  1  0  0  0
 49 64  1  0  0  0
 49123  1  0  0  0
 50 51  1  0  0  0
 50124  1  0  0  0
 50125  1  0  0  0
 51 52  1  0  0  0
 51126  1  0  0  0
 51127  1  0  0  0
 52128  1  0  0  0
 52129  1  0  0  0
 53 54  1  0  0  0
 54 55  2  0  0  0
 54130  1  0  0  0
 55 57  1  0  0  0
 55131  1  0  0  0
 56 69  2  0  0  0
 57 58  2  0  0  0
 57132  1  0  0  0
 58133  1  0  0  0
 59 60  1  0  0  0
 59 61  1  0  0  0
 59 62  1  0  0  0
 60134  1  0  0  0
 60135  1  0  0  0
 60136  1  0  0  0
 61137  1  0  0  0
 61138  1  0  0  0
 61139  1  0  0  0
 62140  1  0  0  0
 62141  1  0  0  0
 62142  1  0  0  0
 63 65  1  0  0  0
 63143  1  0  0  0
 63144  1  0  0  0
 63145  1  0  0  0
 64146  1  0  0  0
 65147  1  0  0  0
 68 85  1  0  0  0
 71 72  2  0  0  0
 71 73  1  0  0  0
 71 78  1  0  0  0
 72 79  1  0  0  0
 72 86  1  0  0  0
 73 80  1  0  0  0
 73 87  2  0  0  0
 74 81  1  0  0  0
 74 86  2  0  0  0
 74 87  1  0  0  0
 75 78  1  0  0  0
 75148  1  0  0  0
 75149  1  0  0  0
 75150  1  0  0  0
 76 81  1  0  0  0
 76151  1  0  0  0
 76152  1  0  0  0
 76153  1  0  0  0
 77 83  1  0  0  0
 77154  1  0  0  0
 77155  1  0  0  0
 77156  1  0  0  0
 78157  1  0  0  0
 78158  1  0  0  0
 79 82  1  0  0  0
 79159  1  0  0  0
 79160  1  0  0  0
 80 84  1  0  0  0
 80161  1  0  0  0
 80162  1  0  0  0
 81163  1  0  0  0
 81164  1  0  0  0
 82 85  1  0  0  0
 82165  1  0  0  0
 82166  1  0  0  0
 83 88  1  0  0  0
 83167  1  0  0  0
 83168  1  0  0  0
 84 88  1  0  0  0
 84169  1  0  0  0
 84170  1  0  0  0
 85171  1  0  0  0
 85172  1  0  0  0
M  ISO  4   1 100  68 101  85 101  88 100
M  END
> <chiral flag>
0

> <version>
0

> <s_m_source_file>
/data/baiqing/PycharmProjects/Reinvent-master-3.2/result/LINK_invent/BTK/process_docking_weight1_custom_sum_contain_oxygen_bond_distance_aromatic_linkinvent_7_9_3/rearranged_h_0052.sdf

> <i_m_source_file_index>
32

> <r_mmod_Potential_Energy-OPLS-2005>
-285.984313964844

> <r_mmod_Stretch_Energy-OPLS-2005>
47.429271697998

> <r_mmod_Bend_Energy-OPLS-2005>
110.028175354004

> <r_mmod_Torsional_Energy-OPLS-2005>
279.481689453125

> <r_mmod_Improper_Torsional_Energy-OPLS-2005>
6.32710599899292

> <r_mmod_Van_der_Waal_Energy-OPLS-2005>
153.688629150391

> <r_mmod_Electrostatic_Energy-OPLS-2005>
-690.843200683594

> <r_mmod_Solvation_Energy-OPLS-2005>
-205.386642456055

> <b_mmod_Minimization_Converged-OPLS-2005>
0

> <r_mmod_RMS_Derivative-OPLS-2005>
1.43364858627319

$$$$
32
                    3D
 Structure written by MMmdl.
153161  0  0  1  0            999 V2000
  -30.6573  -14.7146   20.4484 C   0  0  0  0  0  0
  -30.4243  -12.4344   19.4794 C   0  0  0  0  0  0
  -29.5078  -12.4964   18.2386 C   0  0  0  0  0  0
  -28.0350  -12.3294   18.6544 C   0  0  0  0  0  0
  -27.6432  -13.2368   19.8518 C   0  0  2  0  0  0
  -28.6892  -13.1850   20.9883 C   0  0  0  0  0  0
  -25.2507  -13.8217   20.5714 C   0  0  0  0  0  0
  -24.1800  -13.0449   20.9222 C   0  0  0  0  0  0
  -24.6406  -11.6932   20.8770 C   0  0  0  0  0  0
  -23.9086  -10.4302   21.0421 C   0  0  0  0  0  0
  -24.3631   -9.4211   21.9198 C   0  0  0  0  0  0
  -23.6302   -8.2247   22.0760 C   0  0  0  0  0  0
  -22.4282   -8.0291   21.3547 C   0  0  0  0  0  0
  -21.9928   -9.0267   20.4649 C   0  0  0  0  0  0
  -22.7262  -10.2144   20.3065 C   0  0  0  0  0  0
  -21.6852   -6.0744   22.5283 C   0  0  0  0  0  0
  -21.4012   -6.5645   23.8217 C   0  0  0  0  0  0
  -21.3659   -5.6794   24.9177 C   0  0  0  0  0  0
  -21.6041   -4.3057   24.7226 C   0  0  0  0  0  0
  -21.8818   -3.8153   23.4345 C   0  0  0  0  0  0
  -21.9191   -4.6971   22.3403 C   0  0  0  0  0  0
  -22.7819  -13.5224   21.1876 C   0  0  0  0  0  0
  -22.1659   -4.2159   21.0980 F   0  0  0  0  0  0
  -21.5629   -3.4539   25.7737 F   0  0  0  0  0  0
  -29.9945  -13.5106   20.4022 N   0  0  0  0  0  0
  -26.2949  -12.9436   20.3310 N   0  0  0  0  0  0
  -25.9341  -11.6572   20.5782 N   0  0  0  0  0  0
  -22.0457  -12.8211   22.0424 N   0  0  0  0  0  0
  -25.4181  -15.1941   20.4117 N   0  0  0  0  0  0
  -31.8472  -14.7668   20.1281 O   0  0  0  0  0  0
  -21.6638   -6.8890   21.4244 O   0  0  0  0  0  0
  -22.3512  -14.5527   20.6720 O   0  0  0  0  0  0
  -24.6301  -31.8579   23.2015 C   0  0  0  0  0  0
  -25.9136  -32.4768   23.8356 C   0  0  1  0  0  0
  -27.2151  -27.2673   20.1258 C   0  0  0  0  0  0
  -25.5926  -33.8570   24.2272 N   0  0  0  0  0  0
  -23.4259  -30.4811   21.5459 C   0  0  2  0  0  0
  -24.8728  -28.9344   20.1108 C   0  0  0  0  0  0
  -22.7493  -29.4612   22.4930 C   0  0  0  0  0  0
  -18.0285  -28.1389   22.8483 C   0  0  0  0  0  0
  -24.1488  -36.7289   23.2639 C   0  0  0  0  0  0
  -25.9717  -30.7721   21.3824 C   0  0  0  0  0  0
  -26.0449  -29.3956   20.7236 C   0  0  0  0  0  0
  -27.2180  -28.5729   20.7250 C   0  0  0  0  0  0
  -26.0205  -26.8861   19.4680 C   0  0  0  0  0  0
  -24.8653  -27.6872   19.4730 C   0  0  0  0  0  0
  -23.6436  -29.8193   20.1610 C   0  0  0  0  0  0
  -25.4114  -36.3086   24.0325 C   0  0  1  0  0  0
  -20.5882  -28.3702   23.1263 C   0  0  2  0  0  0
  -20.6776  -26.9425   22.5405 C   0  0  0  0  0  0
  -19.5758  -26.6390   21.5205 C   0  0  0  0  0  0
  -18.1934  -26.7928   22.1615 C   0  0  0  0  0  0
  -19.1536  -28.8858   23.2870 C   0  0  0  0  0  0
  -18.9466  -30.1453   23.8900 C   0  0  0  0  0  0
  -17.6465  -30.6593   24.0554 C   0  0  0  0  0  0
  -25.9052  -34.9451   23.5107 C   0  0  0  0  0  0
  -16.5354  -29.9092   23.6338 C   0  0  0  0  0  0
  -16.7268  -28.6503   23.0368 C   0  0  0  0  0  0
  -26.4501  -31.6592   25.0739 C   0  0  0  0  0  0
  -25.3710  -31.3735   26.1451 C   0  0  0  0  0  0
  -27.0351  -30.3011   24.6223 C   0  0  0  0  0  0
  -27.6064  -32.4316   25.7503 C   0  0  0  0  0  0
  -27.5582  -37.1797   24.8462 C   0  0  0  0  0  0
  -21.4200  -29.3054   22.3664 N   0  0  0  0  0  0
  -26.4292  -37.3780   23.9405 N   0  0  0  0  0  0
  -24.6949  -31.0541   22.1001 N   0  0  0  0  0  0
  -23.4189  -28.8151   23.3031 O   0  0  0  0  0  0
  -28.2977  -26.3561   20.2028 O   0  0  0  0  0  0
  -26.5630  -34.8922   22.4680 O   0  0  0  0  0  0
  -23.5444  -32.1399   23.7305 O   0  0  0  0  0  0
  -29.5408  -19.7402   19.6446 C   0  0  0  0  0  0
  -29.8165  -18.6722   20.4976 C   0  0  0  0  0  0
  -29.5237  -19.2835   21.7669 C   0  0  0  0  0  0
  -30.4569  -17.2586   20.1434 C   0  0  0  0  0  0
  -28.9647  -23.6646   20.4036 C   0  0  0  0  0  0
  -28.5602  -22.2099   19.8266 C   0  0  0  0  0  0
  -28.0222  -24.8988   19.9516 C   0  0  0  0  0  0
  -29.6620  -18.6657   23.1500 C   0  0  0  0  0  0
  -29.0900  -20.5625   21.6560 N   0  0  0  0  0  0
  -29.1284  -20.8941   20.3440 N   0  0  0  0  0  0
  -29.9441  -15.8941   20.5944 N   0  0  0  0  0  0
  -30.4153  -17.5658   23.1161 F   0  0  0  0  0  0
  -30.2327  -19.5342   23.9886 F   0  0  0  0  0  0
  -28.4570  -18.3416   23.6210 F   0  0  0  0  0  0
  -31.4688  -12.5328   19.1772 H   0  0  0  0  0  0
  -30.3485  -11.4627   19.9697 H   0  0  0  0  0  0
  -29.7850  -11.7181   17.5266 H   0  0  0  0  0  0
  -29.6428  -13.4481   17.7225 H   0  0  0  0  0  0
  -27.8907  -11.2830   18.9246 H   0  0  0  0  0  0
  -27.3768  -12.5167   17.8053 H   0  0  0  0  0  0
  -27.6344  -14.2560   19.4642 H   0  0  0  0  0  0
  -28.7156  -12.1973   21.4508 H   0  0  0  0  0  0
  -28.4333  -13.8894   21.7811 H   0  0  0  0  0  0
  -25.2772   -9.5677   22.4784 H   0  0  0  0  0  0
  -24.0000   -7.4636   22.7481 H   0  0  0  0  0  0
  -21.0863   -8.8801   19.8954 H   0  0  0  0  0  0
  -22.3733  -10.9690   19.6179 H   0  0  0  0  0  0
  -21.2005   -7.6154   23.9725 H   0  0  0  0  0  0
  -21.1480   -6.0523   25.9081 H   0  0  0  0  0  0
  -22.0596   -2.7618   23.2843 H   0  0  0  0  0  0
  -22.4063  -11.9866   22.4806 H   0  0  0  0  0  0
  -21.1079  -13.1248   22.2628 H   0  0  0  0  0  0
  -24.6476  -15.8442   20.5204 H   0  0  0  0  0  0
  -26.2602  -15.6354   20.0677 H   0  0  0  0  0  0
  -26.7194  -32.5427   23.1089 H   0  0  0  0  0  0
  -25.0046  -33.9717   25.0398 H   0  0  0  0  0  0
  -22.7210  -31.3025   21.4028 H   0  0  0  0  0  0
  -23.3760  -35.9613   23.3292 H   0  0  0  0  0  0
  -24.3573  -36.8928   22.2057 H   0  0  0  0  0  0
  -23.7230  -37.6479   23.6669 H   0  0  0  0  0  0
  -26.1054  -31.5322   20.6113 H   0  0  0  0  0  0
  -26.8514  -30.8240   22.0134 H   0  0  0  0  0  0
  -28.1101  -28.9154   21.2306 H   0  0  0  0  0  0
  -25.9382  -25.9396   18.9560 H   0  0  0  0  0  0
  -23.9707  -27.3288   18.9825 H   0  0  0  0  0  0
  -23.7642  -30.5968   19.4057 H   0  0  0  0  0  0
  -22.7623  -29.2508   19.8591 H   0  0  0  0  0  0
  -25.1297  -36.1940   25.0815 H   0  0  0  0  0  0
  -20.9956  -28.3292   24.1389 H   0  0  0  0  0  0
  -20.5683  -26.2320   23.3614 H   0  0  0  0  0  0
  -21.6652  -26.7470   22.1199 H   0  0  0  0  0  0
  -19.6930  -25.6301   21.1247 H   0  0  0  0  0  0
  -19.6694  -27.3187   20.6717 H   0  0  0  0  0  0
  -17.4207  -26.6661   21.4016 H   0  0  0  0  0  0
  -18.0340  -26.0068   22.9008 H   0  0  0  0  0  0
  -19.7945  -30.7254   24.2280 H   0  0  0  0  0  0
  -17.5036  -31.6277   24.5154 H   0  0  0  0  0  0
  -15.5360  -30.3003   23.7672 H   0  0  0  0  0  0
  -15.8657  -28.0820   22.7105 H   0  0  0  0  0  0
  -24.5916  -30.7048   25.7764 H   0  0  0  0  0  0
  -24.8855  -32.2895   26.4822 H   0  0  0  0  0  0
  -25.8019  -30.8955   27.0257 H   0  0  0  0  0  0
  -26.2940  -29.6741   24.1243 H   0  0  0  0  0  0
  -27.4032  -29.7287   25.4742 H   0  0  0  0  0  0
  -27.8814  -30.4287   23.9469 H   0  0  0  0  0  0
  -27.2713  -33.3655   26.2022 H   0  0  0  0  0  0
  -28.3903  -32.6797   25.0337 H   0  0  0  0  0  0
  -28.0688  -31.8465   26.5462 H   0  0  0  0  0  0
  -28.2592  -38.0105   24.7531 H   0  0  0  0  0  0
  -28.1092  -36.2632   24.6267 H   0  0  0  0  0  0
  -27.2296  -37.1418   25.8867 H   0  0  0  0  0  0
  -20.9384  -29.8785   21.6879 H   0  0  0  0  0  0
  -26.0178  -38.2854   24.1425 H   0  0  0  0  0  0
  -29.6154  -19.7758   18.5661 H   0  0  0  0  0  0
  -31.5009  -17.2974   20.4593 H   0  0  0  0  0  0
  -30.5274  -17.1819   19.0569 H   0  0  0  0  0  0
  -29.9900  -23.8751   20.0993 H   0  0  0  0  0  0
  -28.9808  -23.6206   21.4920 H   0  0  0  0  0  0
  -28.7469  -22.2271   18.7519 H   0  0  0  0  0  0
  -27.4773  -22.1171   19.9123 H   0  0  0  0  0  0
  -27.0562  -24.6698   20.4045 H   0  0  0  0  0  0
  -27.8782  -24.8003   18.8753 H   0  0  0  0  0  0
  -28.9625  -15.8108   20.8110 H   0  0  0  0  0  0
  1 25  1  0  0  0
  1 30  2  0  0  0
  1 81  1  0  0  0
  2  3  1  0  0  0
  2 25  1  0  0  0
  2 85  1  0  0  0
  2 86  1  0  0  0
  3  4  1  0  0  0
  3 87  1  0  0  0
  3 88  1  0  0  0
  4  5  1  0  0  0
  4 89  1  0  0  0
  4 90  1  0  0  0
  5  6  1  0  0  0
  5 26  1  0  0  0
  5 91  1  0  0  0
  6 25  1  0  0  0
  6 92  1  0  0  0
  6 93  1  0  0  0
  7  8  2  0  0  0
  7 26  1  0  0  0
  7 29  1  0  0  0
  8  9  1  0  0  0
  8 22  1  0  0  0
  9 10  1  0  0  0
  9 27  2  0  0  0
 10 11  2  0  0  0
 10 15  1  0  0  0
 11 12  1  0  0  0
 11 94  1  0  0  0
 12 13  2  0  0  0
 12 95  1  0  0  0
 13 14  1  0  0  0
 13 31  1  0  0  0
 14 15  2  0  0  0
 14 96  1  0  0  0
 15 97  1  0  0  0
 16 17  2  0  0  0
 16 21  1  0  0  0
 16 31  1  0  0  0
 17 18  1  0  0  0
 17 98  1  0  0  0
 18 19  2  0  0  0
 18 99  1  0  0  0
 19 20  1  0  0  0
 19 24  1  0  0  0
 20 21  2  0  0  0
 20100  1  0  0  0
 21 23  1  0  0  0
 22 28  1  0  0  0
 22 32  2  0  0  0
 26 27  1  0  0  0
 28101  1  0  0  0
 28102  1  0  0  0
 29103  1  0  0  0
 29104  1  0  0  0
 33 34  1  0  0  0
 33 66  1  0  0  0
 33 70  2  0  0  0
 34 36  1  0  0  0
 34 59  1  0  0  0
 34105  1  0  0  0
 35 44  2  0  0  0
 35 45  1  0  0  0
 35 68  1  0  0  0
 36 56  1  0  0  0
 36106  1  0  0  0
 37 39  1  0  0  0
 37 47  1  0  0  0
 37 66  1  0  0  0
 37107  1  0  0  0
 38 43  2  0  0  0
 38 46  1  0  0  0
 38 47  1  0  0  0
 39 64  1  0  0  0
 39 67  2  0  0  0
 40 52  1  0  0  0
 40 53  2  0  0  0
 40 58  1  0  0  0
 41108  1  0  0  0
 41109  1  0  0  0
 41110  1  0  0  0
 41 48  1  0  0  0
 42 43  1  0  0  0
 42 66  1  0  0  0
 42111  1  0  0  0
 42112  1  0  0  0
 43 44  1  0  0  0
 44113  1  0  0  0
 45 46  2  0  0  0
 45114  1  0  0  0
 46115  1  0  0  0
 47116  1  0  0  0
 47117  1  0  0  0
 48 56  1  0  0  0
 48 65  1  0  0  0
 48118  1  0  0  0
 49 50  1  0  0  0
 49 53  1  0  0  0
 49 64  1  0  0  0
 49119  1  0  0  0
 50 51  1  0  0  0
 50120  1  0  0  0
 50121  1  0  0  0
 51 52  1  0  0  0
 51122  1  0  0  0
 51123  1  0  0  0
 52124  1  0  0  0
 52125  1  0  0  0
 53 54  1  0  0  0
 54 55  2  0  0  0
 54126  1  0  0  0
 55 57  1  0  0  0
 55127  1  0  0  0
 56 69  2  0  0  0
 57 58  2  0  0  0
 57128  1  0  0  0
 58129  1  0  0  0
 59 60  1  0  0  0
 59 61  1  0  0  0
 59 62  1  0  0  0
 60130  1  0  0  0
 60131  1  0  0  0
 60132  1  0  0  0
 61133  1  0  0  0
 61134  1  0  0  0
 61135  1  0  0  0
 62136  1  0  0  0
 62137  1  0  0  0
 62138  1  0  0  0
 63 65  1  0  0  0
 63139  1  0  0  0
 63140  1  0  0  0
 63141  1  0  0  0
 64142  1  0  0  0
 65143  1  0  0  0
 68 77  1  0  0  0
 71 72  2  0  0  0
 71 80  1  0  0  0
 71144  1  0  0  0
 72 73  1  0  0  0
 72 74  1  0  0  0
 73 78  1  0  0  0
 73 79  2  0  0  0
 74 81  1  0  0  0
 74145  1  0  0  0
 74146  1  0  0  0
 75 76  1  0  0  0
 75 77  1  0  0  0
 75147  1  0  0  0
 75148  1  0  0  0
 76 80  1  0  0  0
 76149  1  0  0  0
 76150  1  0  0  0
 77151  1  0  0  0
 77152  1  0  0  0
 78 82  1  0  0  0
 78 83  1  0  0  0
 78 84  1  0  0  0
 79 80  1  0  0  0
 81153  1  0  0  0
M  ISO  4   1 100  68 101  77 101  81 100
M  END
> <chiral flag>
0

> <version>
0

> <s_m_source_file>
/data/baiqing/PycharmProjects/Reinvent-master-3.2/result/LINK_invent/BTK/process_docking_weight1_custom_sum_contain_oxygen_bond_distance_aromatic_linkinvent_7_9_3/rearranged_h_0052.sdf

> <i_m_source_file_index>
33

> <r_mmod_Potential_Energy-OPLS-2005>
205.997116088867

> <r_mmod_Stretch_Energy-OPLS-2005>
111.089393615723

> <r_mmod_Bend_Energy-OPLS-2005>
173.180435180664

> <r_mmod_Torsional_Energy-OPLS-2005>
218.816223144531

> <r_mmod_Improper_Torsional_Energy-OPLS-2005>
8.3642635345459

> <r_mmod_Van_der_Waal_Energy-OPLS-2005>
122.521461486816

> <r_mmod_Electrostatic_Energy-OPLS-2005>
-293.820251464844

> <r_mmod_Solvation_Energy-OPLS-2005>
-215.372146606445

> <b_mmod_Minimization_Converged-OPLS-2005>
0

> <r_mmod_RMS_Derivative-OPLS-2005>
1.47977316379547

$$$$
33
                    3D
 Structure written by MMmdl.
161169  0  0  1  0            999 V2000
  -30.6024  -14.7170   20.5185 C   0  0  0  0  0  0
  -30.4484  -12.4638   19.4324 C   0  0  0  0  0  0
  -29.4914  -12.5313   18.2159 C   0  0  0  0  0  0
  -28.0182  -12.3254   18.6239 C   0  0  0  0  0  0
  -27.6449  -13.1795   19.8577 C   0  0  2  0  0  0
  -28.7090  -13.0446   20.9770 C   0  0  0  0  0  0
  -25.2487  -13.8027   20.5559 C   0  0  0  0  0  0
  -24.1789  -13.0352   20.9163 C   0  0  0  0  0  0
  -24.6363  -11.6811   20.8794 C   0  0  0  0  0  0
  -23.9009  -10.4248   21.0484 C   0  0  0  0  0  0
  -24.3552   -9.4151   21.9247 C   0  0  0  0  0  0
  -23.6232   -8.2197   22.0806 C   0  0  0  0  0  0
  -22.4212   -8.0268   21.3576 C   0  0  0  0  0  0
  -21.9870   -9.0247   20.4662 C   0  0  0  0  0  0
  -22.7205  -10.2104   20.3103 C   0  0  0  0  0  0
  -21.6834   -6.0736   22.5276 C   0  0  0  0  0  0
  -21.4028   -6.5651   23.8213 C   0  0  0  0  0  0
  -21.3636   -5.6783   24.9155 C   0  0  0  0  0  0
  -21.6039   -4.3058   24.7198 C   0  0  0  0  0  0
  -21.8835   -3.8163   23.4326 C   0  0  0  0  0  0
  -21.9190   -4.6977   22.3390 C   0  0  0  0  0  0
  -22.7827  -13.5174   21.1804 C   0  0  0  0  0  0
  -22.1682   -4.2175   21.0961 F   0  0  0  0  0  0
  -21.5566   -3.4532   25.7706 F   0  0  0  0  0  0
  -29.9984  -13.4772   20.4206 N   0  0  0  0  0  0
  -26.2946  -12.9167   20.3344 N   0  0  0  0  0  0
  -25.9283  -11.6367   20.5865 N   0  0  0  0  0  0
  -22.0517  -12.8157   22.0350 N   0  0  0  0  0  0
  -25.3951  -15.1727   20.3674 N   0  0  0  0  0  0
  -31.7597  -14.8256   20.0991 O   0  0  0  0  0  0
  -21.6607   -6.8878   21.4252 O   0  0  0  0  0  0
  -22.3504  -14.5513   20.6690 O   0  0  0  0  0  0
  -24.6271  -31.8546   23.2014 C   0  0  0  0  0  0
  -25.9110  -32.4746   23.8324 C   0  0  1  0  0  0
  -27.2307  -27.2984   20.1262 C   0  0  0  0  0  0
  -25.5921  -33.8551   24.2232 N   0  0  0  0  0  0
  -23.4211  -30.4755   21.5448 C   0  0  2  0  0  0
  -24.8739  -28.9304   20.1124 C   0  0  0  0  0  0
  -22.7467  -29.4566   22.4939 C   0  0  0  0  0  0
  -18.0244  -28.1382   22.8478 C   0  0  0  0  0  0
  -24.1482  -36.7302   23.2634 C   0  0  0  0  0  0
  -25.9614  -30.7836   21.3705 C   0  0  0  0  0  0
  -26.0417  -29.4059   20.7203 C   0  0  0  0  0  0
  -27.2228  -28.6027   20.7178 C   0  0  0  0  0  0
  -26.0379  -26.8851   19.4863 C   0  0  0  0  0  0
  -24.8745  -27.6768   19.4854 C   0  0  0  0  0  0
  -23.6401  -29.8076   20.1612 C   0  0  0  0  0  0
  -25.4110  -36.3055   24.0291 C   0  0  1  0  0  0
  -20.5849  -28.3671   23.1313 C   0  0  2  0  0  0
  -20.6748  -26.9399   22.5437 C   0  0  0  0  0  0
  -19.5741  -26.6382   21.5220 C   0  0  0  0  0  0
  -18.1902  -26.7919   22.1613 C   0  0  0  0  0  0
  -19.1505  -28.8849   23.2872 C   0  0  0  0  0  0
  -18.9430  -30.1447   23.8890 C   0  0  0  0  0  0
  -17.6444  -30.6601   24.0551 C   0  0  0  0  0  0
  -25.9054  -34.9428   23.5061 C   0  0  0  0  0  0
  -16.5324  -29.9105   23.6336 C   0  0  0  0  0  0
  -16.7236  -28.6517   23.0361 C   0  0  0  0  0  0
  -26.4504  -31.6543   25.0680 C   0  0  0  0  0  0
  -25.3753  -31.3661   26.1400 C   0  0  0  0  0  0
  -27.0346  -30.2969   24.6103 C   0  0  0  0  0  0
  -27.6016  -32.4287   25.7541 C   0  0  0  0  0  0
  -27.5552  -37.1813   24.8442 C   0  0  0  0  0  0
  -21.4175  -29.3025   22.3726 N   0  0  0  0  0  0
  -26.4256  -37.3774   23.9399 N   0  0  0  0  0  0
  -24.6888  -31.0539   22.0971 N   0  0  0  0  0  0
  -23.4185  -28.8080   23.2999 O   0  0  0  0  0  0
  -28.3390  -26.4283   20.1944 O   0  0  0  0  0  0
  -26.5638  -34.8901   22.4636 O   0  0  0  0  0  0
  -23.5434  -32.1330   23.7358 O   0  0  0  0  0  0
  -30.2311  -18.9455   22.6282 C   0  0  0  0  0  0
  -30.1089  -18.8297   21.2277 C   0  0  0  0  0  0
  -29.3581  -21.1025   22.5929 C   0  0  0  0  0  0
  -29.3011  -21.0973   21.1644 C   0  0  0  0  0  0
  -28.2481  -21.8537   24.7994 C   0  0  0  0  0  0
  -28.4000  -16.2316   20.8073 C   0  0  0  0  0  0
  -30.5557  -17.4736   20.5526 C   0  0  0  0  0  0
  -28.8745  -22.2657   23.4534 C   0  0  0  0  0  0
  -28.6933  -22.3079   20.3349 C   0  0  0  0  0  0
  -29.1372  -23.8507   20.5289 C   0  0  0  0  0  0
  -28.0875  -24.9660   20.0516 C   0  0  0  0  0  0
  -29.9133  -16.0807   21.0533 C   0  0  2  0  0  0
  -29.8746  -20.0631   23.2964 N   0  0  0  0  0  0
  -29.6636  -19.9273   20.4988 N   0  0  0  0  0  0
  -31.4686  -12.6452   19.0852 H   0  0  0  0  0  0
  -30.4687  -11.4684   19.8776 H   0  0  0  0  0  0
  -29.7728  -11.8091   17.4490 H   0  0  0  0  0  0
  -29.5864  -13.5144   17.7518 H   0  0  0  0  0  0
  -27.8439  -11.2669   18.8209 H   0  0  0  0  0  0
  -27.3639  -12.5856   17.7901 H   0  0  0  0  0  0
  -27.6399  -14.1880   19.4685 H   0  0  0  0  0  0
  -28.7805  -12.0016   21.2911 H   0  0  0  0  0  0
  -28.4526  -13.5850   21.8853 H   0  0  0  0  0  0
  -25.2714   -9.5558   22.4791 H   0  0  0  0  0  0
  -23.9917   -7.4556   22.7496 H   0  0  0  0  0  0
  -21.0839   -8.8782   19.8905 H   0  0  0  0  0  0
  -22.3773  -10.9646   19.6170 H   0  0  0  0  0  0
  -21.2119   -7.6170   23.9721 H   0  0  0  0  0  0
  -21.1407   -6.0516   25.9038 H   0  0  0  0  0  0
  -22.0658   -2.7631   23.2815 H   0  0  0  0  0  0
  -22.4176  -11.9747   22.4558 H   0  0  0  0  0  0
  -21.1217  -13.1250   22.2770 H   0  0  0  0  0  0
  -24.6167  -15.8173   20.4553 H   0  0  0  0  0  0
  -26.2425  -15.6134   20.0364 H   0  0  0  0  0  0
  -26.7152  -32.5431   23.1055 H   0  0  0  0  0  0
  -25.0002  -33.9690   25.0329 H   0  0  0  0  0  0
  -22.7100  -31.2910   21.3975 H   0  0  0  0  0  0
  -23.3723  -35.9654   23.3278 H   0  0  0  0  0  0
  -24.3557  -36.8978   22.2052 H   0  0  0  0  0  0
  -23.7262  -37.6496   23.6703 H   0  0  0  0  0  0
  -26.0627  -31.5355   20.5880 H   0  0  0  0  0  0
  -26.8552  -30.8599   21.9776 H   0  0  0  0  0  0
  -28.1147  -28.9596   21.2137 H   0  0  0  0  0  0
  -25.9675  -25.9255   18.9954 H   0  0  0  0  0  0
  -23.9793  -27.3080   19.0050 H   0  0  0  0  0  0
  -23.7562  -30.5805   19.4015 H   0  0  0  0  0  0
  -22.7650  -29.2285   19.8622 H   0  0  0  0  0  0
  -25.1301  -36.1867   25.0780 H   0  0  0  0  0  0
  -20.9863  -28.3230   24.1464 H   0  0  0  0  0  0
  -20.5666  -26.2252   23.3612 H   0  0  0  0  0  0
  -21.6614  -26.7453   22.1225 H   0  0  0  0  0  0
  -19.6922  -25.6298   21.1251 H   0  0  0  0  0  0
  -19.6709  -27.3198   20.6755 H   0  0  0  0  0  0
  -17.4171  -26.6620   21.4018 H   0  0  0  0  0  0
  -18.0318  -26.0073   22.9028 H   0  0  0  0  0  0
  -19.7912  -30.7245   24.2270 H   0  0  0  0  0  0
  -17.5014  -31.6290   24.5141 H   0  0  0  0  0  0
  -15.5337  -30.3023   23.7701 H   0  0  0  0  0  0
  -15.8599  -28.0866   22.7099 H   0  0  0  0  0  0
  -24.5962  -30.6952   25.7744 H   0  0  0  0  0  0
  -24.8906  -32.2819   26.4791 H   0  0  0  0  0  0
  -25.8122  -30.8883   27.0176 H   0  0  0  0  0  0
  -26.2906  -29.6741   24.1102 H   0  0  0  0  0  0
  -27.4017  -29.7179   25.4588 H   0  0  0  0  0  0
  -27.8784  -30.4242   23.9315 H   0  0  0  0  0  0
  -27.2547  -33.3571   26.2091 H   0  0  0  0  0  0
  -28.3916  -32.6860   25.0477 H   0  0  0  0  0  0
  -28.0554  -31.8397   26.5520 H   0  0  0  0  0  0
  -28.2518  -38.0157   24.7520 H   0  0  0  0  0  0
  -28.1091  -36.2677   24.6235 H   0  0  0  0  0  0
  -27.2250  -37.1419   25.8836 H   0  0  0  0  0  0
  -20.9336  -29.8762   21.6960 H   0  0  0  0  0  0
  -26.0105  -38.2812   24.1483 H   0  0  0  0  0  0
  -30.6114  -18.1286   23.2239 H   0  0  0  0  0  0
  -27.9204  -22.7356   25.3499 H   0  0  0  0  0  0
  -28.9625  -21.3197   25.4294 H   0  0  0  0  0  0
  -27.3825  -21.2081   24.6556 H   0  0  0  0  0  0
  -27.8024  -15.4912   21.3277 H   0  0  0  0  0  0
  -28.1755  -16.2261   19.7388 H   0  0  0  0  0  0
  -28.0240  -17.1800   21.1872 H   0  0  0  0  0  0
  -31.6357  -17.4150   20.6749 H   0  0  0  0  0  0
  -30.4020  -17.5739   19.4768 H   0  0  0  0  0  0
  -28.1096  -22.8222   22.9163 H   0  0  0  0  0  0
  -29.7100  -22.9422   23.6254 H   0  0  0  0  0  0
  -27.6162  -22.2478   20.4964 H   0  0  0  0  0  0
  -28.8284  -22.0716   19.2774 H   0  0  0  0  0  0
  -30.0909  -24.0003   20.0226 H   0  0  0  0  0  0
  -29.3489  -24.0592   21.5739 H   0  0  0  0  0  0
  -27.1717  -24.7512   20.6048 H   0  0  0  0  0  0
  -27.8638  -24.7745   19.0009 H   0  0  0  0  0  0
  -30.0591  -16.0250   22.1325 H   0  0  0  0  0  0
  1 25  1  0  0  0
  1 30  2  0  0  0
  1 82  1  0  0  0
  2  3  1  0  0  0
  2 25  1  0  0  0
  2 85  1  0  0  0
  2 86  1  0  0  0
  3  4  1  0  0  0
  3 87  1  0  0  0
  3 88  1  0  0  0
  4  5  1  0  0  0
  4 89  1  0  0  0
  4 90  1  0  0  0
  5  6  1  0  0  0
  5 26  1  0  0  0
  5 91  1  0  0  0
  6 25  1  0  0  0
  6 92  1  0  0  0
  6 93  1  0  0  0
  7  8  2  0  0  0
  7 26  1  0  0  0
  7 29  1  0  0  0
  8  9  1  0  0  0
  8 22  1  0  0  0
  9 10  1  0  0  0
  9 27  2  0  0  0
 10 11  2  0  0  0
 10 15  1  0  0  0
 11 12  1  0  0  0
 11 94  1  0  0  0
 12 13  2  0  0  0
 12 95  1  0  0  0
 13 14  1  0  0  0
 13 31  1  0  0  0
 14 15  2  0  0  0
 14 96  1  0  0  0
 15 97  1  0  0  0
 16 17  2  0  0  0
 16 21  1  0  0  0
 16 31  1  0  0  0
 17 18  1  0  0  0
 17 98  1  0  0  0
 18 19  2  0  0  0
 18 99  1  0  0  0
 19 20  1  0  0  0
 19 24  1  0  0  0
 20 21  2  0  0  0
 20100  1  0  0  0
 21 23  1  0  0  0
 22 28  1  0  0  0
 22 32  2  0  0  0
 26 27  1  0  0  0
 28101  1  0  0  0
 28102  1  0  0  0
 29103  1  0  0  0
 29104  1  0  0  0
 33 34  1  0  0  0
 33 66  1  0  0  0
 33 70  2  0  0  0
 34 36  1  0  0  0
 34 59  1  0  0  0
 34105  1  0  0  0
 35 44  2  0  0  0
 35 45  1  0  0  0
 35 68  1  0  0  0
 36 56  1  0  0  0
 36106  1  0  0  0
 37 39  1  0  0  0
 37 47  1  0  0  0
 37 66  1  0  0  0
 37107  1  0  0  0
 38 43  2  0  0  0
 38 46  1  0  0  0
 38 47  1  0  0  0
 39 64  1  0  0  0
 39 67  2  0  0  0
 40 52  1  0  0  0
 40 53  2  0  0  0
 40 58  1  0  0  0
 41108  1  0  0  0
 41109  1  0  0  0
 41110  1  0  0  0
 41 48  1  0  0  0
 42 43  1  0  0  0
 42 66  1  0  0  0
 42111  1  0  0  0
 42112  1  0  0  0
 43 44  1  0  0  0
 44113  1  0  0  0
 45 46  2  0  0  0
 45114  1  0  0  0
 46115  1  0  0  0
 47116  1  0  0  0
 47117  1  0  0  0
 48 56  1  0  0  0
 48 65  1  0  0  0
 48118  1  0  0  0
 49 50  1  0  0  0
 49 53  1  0  0  0
 49 64  1  0  0  0
 49119  1  0  0  0
 50 51  1  0  0  0
 50120  1  0  0  0
 50121  1  0  0  0
 51 52  1  0  0  0
 51122  1  0  0  0
 51123  1  0  0  0
 52124  1  0  0  0
 52125  1  0  0  0
 53 54  1  0  0  0
 54 55  2  0  0  0
 54126  1  0  0  0
 55 57  1  0  0  0
 55127  1  0  0  0
 56 69  2  0  0  0
 57 58  2  0  0  0
 57128  1  0  0  0
 58129  1  0  0  0
 59 60  1  0  0  0
 59 61  1  0  0  0
 59 62  1  0  0  0
 60130  1  0  0  0
 60131  1  0  0  0
 60132  1  0  0  0
 61133  1  0  0  0
 61134  1  0  0  0
 61135  1  0  0  0
 62136  1  0  0  0
 62137  1  0  0  0
 62138  1  0  0  0
 63 65  1  0  0  0
 63139  1  0  0  0
 63140  1  0  0  0
 63141  1  0  0  0
 64142  1  0  0  0
 65143  1  0  0  0
 68 81  1  0  0  0
 71 72  2  0  0  0
 71 83  1  0  0  0
 71144  1  0  0  0
 72 77  1  0  0  0
 72 84  1  0  0  0
 73 74  1  0  0  0
 73 78  1  0  0  0
 73 83  2  0  0  0
 74 79  1  0  0  0
 74 84  2  0  0  0
 75 78  1  0  0  0
 75145  1  0  0  0
 75146  1  0  0  0
 75147  1  0  0  0
 76148  1  0  0  0
 76149  1  0  0  0
 76150  1  0  0  0
 76 82  1  0  0  0
 77 82  1  0  0  0
 77151  1  0  0  0
 77152  1  0  0  0
 78153  1  0  0  0
 78154  1  0  0  0
 79 80  1  0  0  0
 79155  1  0  0  0
 79156  1  0  0  0
 80 81  1  0  0  0
 80157  1  0  0  0
 80158  1  0  0  0
 81159  1  0  0  0
 81160  1  0  0  0
 82161  1  0  0  0
M  ISO  4   1 100  68 101  81 101  82 100
M  END
> <chiral flag>
0

> <version>
0

> <s_m_source_file>
/data/baiqing/PycharmProjects/Reinvent-master-3.2/result/LINK_invent/BTK/process_docking_weight1_custom_sum_contain_oxygen_bond_distance_aromatic_linkinvent_7_9_3/rearranged_h_0052.sdf

> <i_m_source_file_index>
34

> <r_mmod_Potential_Energy-OPLS-2005>
201.058410644531

> <r_mmod_Stretch_Energy-OPLS-2005>
115.538307189941

> <r_mmod_Bend_Energy-OPLS-2005>
172.851318359375

> <r_mmod_Torsional_Energy-OPLS-2005>
188.025009155273

> <r_mmod_Improper_Torsional_Energy-OPLS-2005>
2.91150283813477

> <r_mmod_Van_der_Waal_Energy-OPLS-2005>
161.34587097168

> <r_mmod_Electrostatic_Energy-OPLS-2005>
-301.115936279297

> <r_mmod_Solvation_Energy-OPLS-2005>
-203.478439331055

> <b_mmod_Minimization_Converged-OPLS-2005>
0

> <r_mmod_RMS_Derivative-OPLS-2005>
4.78064966201782

$$$$
34
                    3D
 Structure written by MMmdl.
165173  0  0  1  0            999 V2000
  -30.7632  -14.3779   20.6852 C   0  0  0  0  0  0
  -30.4247  -12.3001   19.3978 C   0  0  0  0  0  0
  -29.4856  -12.5203   18.1960 C   0  0  0  0  0  0
  -28.0080  -12.3846   18.6101 C   0  0  0  0  0  0
  -27.6661  -13.2062   19.8795 C   0  0  2  0  0  0
  -28.7032  -12.9485   20.9939 C   0  0  0  0  0  0
  -25.2605  -13.8191   20.5678 C   0  0  0  0  0  0
  -24.1853  -13.0446   20.9179 C   0  0  0  0  0  0
  -24.6409  -11.6922   20.8735 C   0  0  0  0  0  0
  -23.9065  -10.4305   21.0417 C   0  0  0  0  0  0
  -24.3624   -9.4218   21.9180 C   0  0  0  0  0  0
  -23.6284   -8.2257   22.0765 C   0  0  0  0  0  0
  -22.4271   -8.0303   21.3544 C   0  0  0  0  0  0
  -21.9905   -9.0282   20.4648 C   0  0  0  0  0  0
  -22.7250  -10.2152   20.3045 C   0  0  0  0  0  0
  -21.6829   -6.0736   22.5282 C   0  0  0  0  0  0
  -21.4012   -6.5640   23.8224 C   0  0  0  0  0  0
  -21.3657   -5.6787   24.9179 C   0  0  0  0  0  0
  -21.6032   -4.3046   24.7221 C   0  0  0  0  0  0
  -21.8813   -3.8145   23.4344 C   0  0  0  0  0  0
  -21.9199   -4.6968   22.3403 C   0  0  0  0  0  0
  -22.7869  -13.5255   21.1835 C   0  0  0  0  0  0
  -22.1653   -4.2155   21.0972 F   0  0  0  0  0  0
  -21.5636   -3.4534   25.7736 F   0  0  0  0  0  0
  -30.0493  -13.2413   20.4641 N   0  0  0  0  0  0
  -26.3037  -12.9349   20.3357 N   0  0  0  0  0  0
  -25.9328  -11.6507   20.5730 N   0  0  0  0  0  0
  -22.0494  -12.8254   22.0406 N   0  0  0  0  0  0
  -25.4326  -15.1911   20.4107 N   0  0  0  0  0  0
  -31.7728  -14.6766   20.0376 O   0  0  0  0  0  0
  -21.6629   -6.8901   21.4249 O   0  0  0  0  0  0
  -22.3557  -14.5543   20.6681 O   0  0  0  0  0  0
  -24.6139  -31.8723   23.2084 C   0  0  0  0  0  0
  -25.9040  -32.4814   23.8372 C   0  0  1  0  0  0
  -27.2256  -27.4261   20.0920 C   0  0  0  0  0  0
  -25.5842  -33.8616   24.2303 N   0  0  0  0  0  0
  -23.4033  -30.4952   21.5534 C   0  0  2  0  0  0
  -24.8429  -28.9525   20.1323 C   0  0  0  0  0  0
  -22.7441  -29.4715   22.5042 C   0  0  0  0  0  0
  -18.0332  -28.1397   22.8491 C   0  0  0  0  0  0
  -24.1502  -36.7354   23.2631 C   0  0  0  0  0  0
  -25.9339  -30.8282   21.3696 C   0  0  0  0  0  0
  -26.0066  -29.4609   20.7201 C   0  0  0  0  0  0
  -27.2017  -28.7047   20.6974 C   0  0  0  0  0  0
  -26.0422  -26.9444   19.4882 C   0  0  0  0  0  0
  -24.8528  -27.6897   19.5188 C   0  0  0  0  0  0
  -23.6128  -29.8278   20.1706 C   0  0  0  0  0  0
  -25.4116  -36.3130   24.0310 C   0  0  1  0  0  0
  -20.5924  -28.3700   23.1314 C   0  0  2  0  0  0
  -20.6854  -26.9448   22.5404 C   0  0  0  0  0  0
  -19.5819  -26.6428   21.5205 C   0  0  0  0  0  0
  -18.1981  -26.7929   22.1626 C   0  0  0  0  0  0
  -19.1584  -28.8861   23.2889 C   0  0  0  0  0  0
  -18.9509  -30.1468   23.8908 C   0  0  0  0  0  0
  -17.6501  -30.6581   24.0586 C   0  0  0  0  0  0
  -25.9047  -34.9486   23.5145 C   0  0  0  0  0  0
  -16.5397  -29.9088   23.6317 C   0  0  0  0  0  0
  -16.7317  -28.6520   23.0307 C   0  0  0  0  0  0
  -26.4450  -31.6550   25.0681 C   0  0  0  0  0  0
  -25.3686  -31.3597   26.1398 C   0  0  0  0  0  0
  -27.0293  -30.2996   24.6035 C   0  0  0  0  0  0
  -27.6063  -32.4255   25.7428 C   0  0  0  0  0  0
  -27.5615  -37.1794   24.8449 C   0  0  0  0  0  0
  -21.4191  -29.3058   22.3712 N   0  0  0  0  0  0
  -26.4344  -37.3775   23.9369 N   0  0  0  0  0  0
  -24.6683  -31.0817   22.0992 N   0  0  0  0  0  0
  -23.4201  -28.8312   23.3136 O   0  0  0  0  0  0
  -28.4147  -26.7279   20.0347 O   0  0  0  0  0  0
  -26.5702  -34.8943   22.4769 O   0  0  0  0  0  0
  -23.5328  -32.1508   23.7450 O   0  0  0  0  0  0
  -28.9827  -22.2325   20.7761 C   0  0  0  0  0  0
  -28.4003  -22.8781   19.6458 C   0  0  0  0  0  0
  -29.1123  -20.9161   20.4096 C   0  0  0  0  0  0
  -28.5416  -19.6747   18.2278 C   0  0  0  0  0  0
  -30.5104  -14.9732   23.0125 C   0  0  0  0  0  0
  -27.5198  -19.3193   22.3829 C   0  0  0  0  0  0
  -27.9676  -24.3117   19.4278 C   0  0  0  0  0  0
  -29.6419  -19.7285   21.1786 C   0  0  0  0  0  0
  -30.0724  -16.6520   21.1926 C   0  0  0  0  0  0
  -29.0658  -17.4318   22.0816 C   0  0  0  0  0  0
  -28.4564  -25.3515   20.4649 C   0  0  0  0  0  0
  -28.1806  -22.0153   18.6659 N   0  0  0  0  0  0
  -28.6254  -20.8242   19.1168 N   0  0  0  0  0  0
  -30.2428  -15.2365   21.5898 N   0  0  0  0  0  0
  -28.5850  -18.7355   21.5273 N   0  3  1  0  0  0
  -31.4625  -12.4209   19.0806 H   0  0  0  0  0  0
  -30.3499  -11.2770   19.7665 H   0  0  0  0  0  0
  -29.7172  -11.8092   17.4002 H   0  0  0  0  0  0
  -29.6548  -13.5120   17.7730 H   0  0  0  0  0  0
  -27.8034  -11.3279   18.7805 H   0  0  0  0  0  0
  -27.3622  -12.6859   17.7834 H   0  0  0  0  0  0
  -27.7229  -14.2593   19.6022 H   0  0  0  0  0  0
  -28.6667  -11.9057   21.3109 H   0  0  0  0  0  0
  -28.4454  -13.5297   21.8792 H   0  0  0  0  0  0
  -25.2772   -9.5685   22.4750 H   0  0  0  0  0  0
  -23.9980   -7.4657   22.7503 H   0  0  0  0  0  0
  -21.0818   -8.8813   19.8967 H   0  0  0  0  0  0
  -22.3712  -10.9690   19.6147 H   0  0  0  0  0  0
  -21.1993   -7.6145   23.9724 H   0  0  0  0  0  0
  -21.1466   -6.0512   25.9081 H   0  0  0  0  0  0
  -22.0588   -2.7611   23.2837 H   0  0  0  0  0  0
  -22.4053  -11.9876   22.4762 H   0  0  0  0  0  0
  -21.1114  -13.1317   22.2607 H   0  0  0  0  0  0
  -24.6698  -15.8511   20.5215 H   0  0  0  0  0  0
  -26.2841  -15.6209   20.0759 H   0  0  0  0  0  0
  -26.7095  -32.5490   23.1114 H   0  0  0  0  0  0
  -24.9701  -33.9734   25.0238 H   0  0  0  0  0  0
  -22.6907  -31.3094   21.4103 H   0  0  0  0  0  0
  -23.3755  -35.9710   23.3301 H   0  0  0  0  0  0
  -24.3602  -36.8988   22.2063 H   0  0  0  0  0  0
  -23.7289  -37.6536   23.6705 H   0  0  0  0  0  0
  -26.0601  -31.5950   20.6024 H   0  0  0  0  0  0
  -26.8179  -30.8713   21.9949 H   0  0  0  0  0  0
  -28.1064  -29.1004   21.1362 H   0  0  0  0  0  0
  -26.0101  -26.0280   18.9279 H   0  0  0  0  0  0
  -23.9630  -27.2955   19.0461 H   0  0  0  0  0  0
  -23.7296  -30.6016   19.4080 H   0  0  0  0  0  0
  -22.7343  -29.2510   19.8760 H   0  0  0  0  0  0
  -25.1305  -36.2011   25.0801 H   0  0  0  0  0  0
  -20.9994  -28.3356   24.1449 H   0  0  0  0  0  0
  -20.5829  -26.2341   23.3619 H   0  0  0  0  0  0
  -21.6726  -26.7579   22.1164 H   0  0  0  0  0  0
  -19.7021  -25.6339   21.1237 H   0  0  0  0  0  0
  -19.6751  -27.3278   20.6757 H   0  0  0  0  0  0
  -17.4264  -26.6678   21.4014 H   0  0  0  0  0  0
  -18.0384  -26.0068   22.9038 H   0  0  0  0  0  0
  -19.8005  -30.7246   24.2308 H   0  0  0  0  0  0
  -17.5078  -31.6254   24.5214 H   0  0  0  0  0  0
  -15.5396  -30.2987   23.7623 H   0  0  0  0  0  0
  -15.8733  -28.0839   22.6978 H   0  0  0  0  0  0
  -24.5986  -30.6842   25.7652 H   0  0  0  0  0  0
  -24.8701  -32.2667   26.4840 H   0  0  0  0  0  0
  -25.8003  -30.8776   27.0176 H   0  0  0  0  0  0
  -26.2820  -29.6693   24.1206 H   0  0  0  0  0  0
  -27.4169  -29.7309   25.4478 H   0  0  0  0  0  0
  -27.8610  -30.4299   23.9114 H   0  0  0  0  0  0
  -27.2779  -33.3608   26.2030 H   0  0  0  0  0  0
  -28.3851  -32.6722   25.0173 H   0  0  0  0  0  0
  -28.0762  -31.8318   26.5289 H   0  0  0  0  0  0
  -28.2600  -38.0129   24.7550 H   0  0  0  0  0  0
  -28.1151  -36.2647   24.6244 H   0  0  0  0  0  0
  -27.2327  -37.1399   25.8850 H   0  0  0  0  0  0
  -20.9420  -29.8608   21.6743 H   0  0  0  0  0  0
  -26.0260  -38.2874   24.1321 H   0  0  0  0  0  0
  -29.2586  -22.6783   21.7198 H   0  0  0  0  0  0
  -29.4884  -19.1318   18.2207 H   0  0  0  0  0  0
  -28.3260  -19.9995   17.2078 H   0  0  0  0  0  0
  -27.7414  -19.0037   18.5507 H   0  0  0  0  0  0
  -29.6395  -15.2084   23.6247 H   0  0  0  0  0  0
  -31.3508  -15.5684   23.3704 H   0  0  0  0  0  0
  -30.7499  -13.9244   23.2069 H   0  0  0  0  0  0
  -27.0956  -20.2317   21.9632 H   0  0  0  0  0  0
  -27.9084  -19.5607   23.3715 H   0  0  0  0  0  0
  -26.6939  -18.6209   22.5074 H   0  0  0  0  0  0
  -26.8824  -24.2926   19.4319 H   0  0  0  0  0  0
  -28.2765  -24.6361   18.4332 H   0  0  0  0  0  0
  -30.1321  -20.0735   22.0893 H   0  0  0  0  0  0
  -30.4232  -19.2596   20.5792 H   0  0  0  0  0  0
  -31.0487  -17.1433   21.2069 H   0  0  0  0  0  0
  -29.7237  -16.6808   20.1563 H   0  0  0  0  0  0
  -29.5131  -17.6126   23.0594 H   0  0  0  0  0  0
  -28.1937  -16.7987   22.2550 H   0  0  0  0  0  0
  -29.5120  -25.1569   20.6675 H   0  0  0  0  0  0
  -27.9437  -25.2230   21.4190 H   0  0  0  0  0  0
  -28.1266  -18.5140   20.6586 H   0  0  0  0  0  0
  1 25  1  0  0  0
  1 30  2  0  0  0
  1 84  1  0  0  0
  2  3  1  0  0  0
  2 25  1  0  0  0
  2 86  1  0  0  0
  2 87  1  0  0  0
  3  4  1  0  0  0
  3 88  1  0  0  0
  3 89  1  0  0  0
  4  5  1  0  0  0
  4 90  1  0  0  0
  4 91  1  0  0  0
  5  6  1  0  0  0
  5 26  1  0  0  0
  5 92  1  0  0  0
  6 25  1  0  0  0
  6 93  1  0  0  0
  6 94  1  0  0  0
  7  8  2  0  0  0
  7 26  1  0  0  0
  7 29  1  0  0  0
  8  9  1  0  0  0
  8 22  1  0  0  0
  9 10  1  0  0  0
  9 27  2  0  0  0
 10 11  2  0  0  0
 10 15  1  0  0  0
 11 12  1  0  0  0
 11 95  1  0  0  0
 12 13  2  0  0  0
 12 96  1  0  0  0
 13 14  1  0  0  0
 13 31  1  0  0  0
 14 15  2  0  0  0
 14 97  1  0  0  0
 15 98  1  0  0  0
 16 17  2  0  0  0
 16 21  1  0  0  0
 16 31  1  0  0  0
 17 18  1  0  0  0
 17 99  1  0  0  0
 18 19  2  0  0  0
 18100  1  0  0  0
 19 20  1  0  0  0
 19 24  1  0  0  0
 20 21  2  0  0  0
 20101  1  0  0  0
 21 23  1  0  0  0
 22 28  1  0  0  0
 22 32  2  0  0  0
 26 27  1  0  0  0
 28102  1  0  0  0
 28103  1  0  0  0
 29104  1  0  0  0
 29105  1  0  0  0
 33 34  1  0  0  0
 33 66  1  0  0  0
 33 70  2  0  0  0
 34 36  1  0  0  0
 34 59  1  0  0  0
 34106  1  0  0  0
 35 44  2  0  0  0
 35 45  1  0  0  0
 35 68  1  0  0  0
 36 56  1  0  0  0
 36107  1  0  0  0
 37 39  1  0  0  0
 37 47  1  0  0  0
 37 66  1  0  0  0
 37108  1  0  0  0
 38 43  2  0  0  0
 38 46  1  0  0  0
 38 47  1  0  0  0
 39 64  1  0  0  0
 39 67  2  0  0  0
 40 52  1  0  0  0
 40 53  2  0  0  0
 40 58  1  0  0  0
 41109  1  0  0  0
 41110  1  0  0  0
 41111  1  0  0  0
 41 48  1  0  0  0
 42 43  1  0  0  0
 42 66  1  0  0  0
 42112  1  0  0  0
 42113  1  0  0  0
 43 44  1  0  0  0
 44114  1  0  0  0
 45 46  2  0  0  0
 45115  1  0  0  0
 46116  1  0  0  0
 47117  1  0  0  0
 47118  1  0  0  0
 48 56  1  0  0  0
 48 65  1  0  0  0
 48119  1  0  0  0
 49 50  1  0  0  0
 49 53  1  0  0  0
 49 64  1  0  0  0
 49120  1  0  0  0
 50 51  1  0  0  0
 50121  1  0  0  0
 50122  1  0  0  0
 51 52  1  0  0  0
 51123  1  0  0  0
 51124  1  0  0  0
 52125  1  0  0  0
 52126  1  0  0  0
 53 54  1  0  0  0
 54 55  2  0  0  0
 54127  1  0  0  0
 55 57  1  0  0  0
 55128  1  0  0  0
 56 69  2  0  0  0
 57 58  2  0  0  0
 57129  1  0  0  0
 58130  1  0  0  0
 59 60  1  0  0  0
 59 61  1  0  0  0
 59 62  1  0  0  0
 60131  1  0  0  0
 60132  1  0  0  0
 60133  1  0  0  0
 61134  1  0  0  0
 61135  1  0  0  0
 61136  1  0  0  0
 62137  1  0  0  0
 62138  1  0  0  0
 62139  1  0  0  0
 63 65  1  0  0  0
 63140  1  0  0  0
 63141  1  0  0  0
 63142  1  0  0  0
 64143  1  0  0  0
 65144  1  0  0  0
 68 81  1  0  0  0
 71 72  1  0  0  0
 71 73  2  0  0  0
 71145  1  0  0  0
 72 77  1  0  0  0
 72 82  2  0  0  0
 73 78  1  0  0  0
 73 83  1  0  0  0
 74 83  1  0  0  0
 74146  1  0  0  0
 74147  1  0  0  0
 74148  1  0  0  0
 75 84  1  0  0  0
 75149  1  0  0  0
 75150  1  0  0  0
 75151  1  0  0  0
 76152  1  0  0  0
 76153  1  0  0  0
 76154  1  0  0  0
 76 85  1  0  0  0
 77 81  1  0  0  0
 77155  1  0  0  0
 77156  1  0  0  0
 78 85  1  0  0  0
 78157  1  0  0  0
 78158  1  0  0  0
 79 80  1  0  0  0
 79 84  1  0  0  0
 79159  1  0  0  0
 79160  1  0  0  0
 80 85  1  0  0  0
 80161  1  0  0  0
 80162  1  0  0  0
 81163  1  0  0  0
 81164  1  0  0  0
 82 83  1  0  0  0
 85165  1  0  0  0
M  CHG  1  85   1
M  ISO  4   1 100  68 101  81 101  84 100
M  END
> <chiral flag>
0

> <version>
0

> <s_m_source_file>
/data/baiqing/PycharmProjects/Reinvent-master-3.2/result/LINK_invent/BTK/process_docking_weight1_custom_sum_contain_oxygen_bond_distance_aromatic_linkinvent_7_9_3/rearranged_h_0052.sdf

> <i_m_source_file_index>
35

> <r_mmod_Potential_Energy-OPLS-2005>
-109.717422485352

> <r_mmod_Stretch_Energy-OPLS-2005>
37.7937774658203

> <r_mmod_Bend_Energy-OPLS-2005>
107.27978515625

> <r_mmod_Torsional_Energy-OPLS-2005>
296.176300048828

> <r_mmod_Improper_Torsional_Energy-OPLS-2005>
5.03822994232178

> <r_mmod_Van_der_Waal_Energy-OPLS-2005>
130.283920288086

> <r_mmod_Electrostatic_Energy-OPLS-2005>
-225.857925415039

> <r_mmod_Solvation_Energy-OPLS-2005>
-468.732818603516

> <b_mmod_Minimization_Converged-OPLS-2005>
0

> <r_mmod_RMS_Derivative-OPLS-2005>
4.87121534347534

$$$$
35
                    3D
 Structure written by MMmdl.
165173  0  0  1  0            999 V2000
  -30.7318  -14.4419   20.6256 C   0  0  0  0  0  0
  -30.4172  -12.3057   19.4219 C   0  0  0  0  0  0
  -29.4948  -12.5172   18.2041 C   0  0  0  0  0  0
  -28.0159  -12.3712   18.6101 C   0  0  0  0  0  0
  -27.6599  -13.2048   19.8683 C   0  0  2  0  0  0
  -28.6933  -12.9729   20.9900 C   0  0  0  0  0  0
  -25.2582  -13.8145   20.5649 C   0  0  0  0  0  0
  -24.1825  -13.0446   20.9176 C   0  0  0  0  0  0
  -24.6370  -11.6911   20.8727 C   0  0  0  0  0  0
  -23.9040  -10.4290   21.0407 C   0  0  0  0  0  0
  -24.3601   -9.4210   21.9186 C   0  0  0  0  0  0
  -23.6280   -8.2248   22.0764 C   0  0  0  0  0  0
  -22.4260   -8.0280   21.3557 C   0  0  0  0  0  0
  -21.9881   -9.0253   20.4666 C   0  0  0  0  0  0
  -22.7214  -10.2133   20.3060 C   0  0  0  0  0  0
  -21.6846   -6.0728   22.5280 C   0  0  0  0  0  0
  -21.4013   -6.5628   23.8210 C   0  0  0  0  0  0
  -21.3663   -5.6788   24.9174 C   0  0  0  0  0  0
  -21.6046   -4.3053   24.7225 C   0  0  0  0  0  0
  -21.8822   -3.8140   23.4352 C   0  0  0  0  0  0
  -21.9193   -4.6949   22.3405 C   0  0  0  0  0  0
  -22.7855  -13.5270   21.1833 C   0  0  0  0  0  0
  -22.1671   -4.2136   21.0986 F   0  0  0  0  0  0
  -21.5625   -3.4540   25.7743 F   0  0  0  0  0  0
  -30.0319  -13.2828   20.4557 N   0  0  0  0  0  0
  -26.3001  -12.9314   20.3288 N   0  0  0  0  0  0
  -25.9284  -11.6476   20.5699 N   0  0  0  0  0  0
  -22.0473  -12.8289   22.0390 N   0  0  0  0  0  0
  -25.4315  -15.1861   20.4056 N   0  0  0  0  0  0
  -31.8195  -14.6358   20.0705 O   0  0  0  0  0  0
  -21.6642   -6.8870   21.4243 O   0  0  0  0  0  0
  -22.3567  -14.5585   20.6667 O   0  0  0  0  0  0
  -24.6141  -31.8676   23.2102 C   0  0  0  0  0  0
  -25.9035  -32.4822   23.8396 C   0  0  1  0  0  0
  -27.2384  -27.4385   20.0790 C   0  0  0  0  0  0
  -25.5888  -33.8619   24.2321 N   0  0  0  0  0  0
  -23.4018  -30.4915   21.5506 C   0  0  2  0  0  0
  -24.8479  -28.9563   20.1131 C   0  0  0  0  0  0
  -22.7406  -29.4654   22.4995 C   0  0  0  0  0  0
  -18.0267  -28.1373   22.8493 C   0  0  0  0  0  0
  -24.1485  -36.7321   23.2637 C   0  0  0  0  0  0
  -25.9310  -30.8296   21.3657 C   0  0  0  0  0  0
  -26.0067  -29.4640   20.7131 C   0  0  0  0  0  0
  -27.2008  -28.7062   20.7046 C   0  0  0  0  0  0
  -26.0531  -26.9351   19.4967 C   0  0  0  0  0  0
  -24.8644  -27.6888   19.5068 C   0  0  0  0  0  0
  -23.6094  -29.8232   20.1652 C   0  0  0  0  0  0
  -25.4104  -36.3112   24.0338 C   0  0  1  0  0  0
  -20.5856  -28.3659   23.1324 C   0  0  2  0  0  0
  -20.6756  -26.9395   22.5427 C   0  0  0  0  0  0
  -19.5737  -26.6381   21.5214 C   0  0  0  0  0  0
  -18.1915  -26.7919   22.1624 C   0  0  0  0  0  0
  -19.1518  -28.8833   23.2903 C   0  0  0  0  0  0
  -18.9448  -30.1437   23.8914 C   0  0  0  0  0  0
  -17.6450  -30.6582   24.0564 C   0  0  0  0  0  0
  -25.9029  -34.9479   23.5128 C   0  0  0  0  0  0
  -16.5338  -29.9086   23.6323 C   0  0  0  0  0  0
  -16.7257  -28.6500   23.0348 C   0  0  0  0  0  0
  -26.4464  -31.6606   25.0728 C   0  0  0  0  0  0
  -25.3733  -31.3736   26.1485 C   0  0  0  0  0  0
  -27.0281  -30.3038   24.6119 C   0  0  0  0  0  0
  -27.6047  -32.4325   25.7479 C   0  0  0  0  0  0
  -27.5581  -37.1809   24.8462 C   0  0  0  0  0  0
  -21.4132  -29.3025   22.3728 N   0  0  0  0  0  0
  -26.4292  -37.3795   23.9408 N   0  0  0  0  0  0
  -24.6669  -31.0778   22.1002 N   0  0  0  0  0  0
  -23.4178  -28.8189   23.3032 O   0  0  0  0  0  0
  -28.4047  -26.7011   20.1022 O   0  0  0  0  0  0
  -26.5601  -34.8927   22.4692 O   0  0  0  0  0  0
  -23.5335  -32.1431   23.7495 O   0  0  0  0  0  0
  -27.3275  -21.7121   18.7963 C   0  0  0  0  0  0
  -28.1874  -21.4253   19.8913 C   0  0  0  0  0  0
  -27.7017  -22.9509   18.3582 C   0  0  0  0  0  0
  -27.2259  -23.6723   17.1391 C   0  0  0  0  0  0
  -29.9496  -15.4686   22.6853 C   0  0  0  0  0  0
  -28.8220  -18.8678   18.6197 C   0  0  0  0  0  0
  -28.2577  -20.1299   20.6956 C   0  0  0  0  0  0
  -29.4991  -24.6383   19.1789 C   0  0  0  0  0  0
  -30.2364  -16.8397   20.6574 C   0  0  0  0  0  0
  -28.9820  -17.7471   20.8141 C   0  0  0  0  0  0
  -28.7902  -25.9974   18.9132 C   0  0  0  0  0  0
  -28.9789  -22.4632   20.1551 N   0  0  0  0  0  0
  -28.6689  -23.4244   19.2373 N   0  0  0  0  0  0
  -30.0802  -15.4761   21.2232 N   0  0  0  0  0  0
  -29.0810  -19.0449   20.0736 N   0  3  1  0  0  0
  -31.4638  -12.3946   19.1245 H   0  0  0  0  0  0
  -30.3117  -11.2917   19.8110 H   0  0  0  0  0  0
  -29.7366  -11.8047   17.4141 H   0  0  0  0  0  0
  -29.6649  -13.5089   17.7830 H   0  0  0  0  0  0
  -27.8306  -11.3146   18.8055 H   0  0  0  0  0  0
  -27.3665  -12.6476   17.7779 H   0  0  0  0  0  0
  -27.7106  -14.2551   19.5812 H   0  0  0  0  0  0
  -28.6643  -11.9341   21.3225 H   0  0  0  0  0  0
  -28.4200  -13.5608   21.8629 H   0  0  0  0  0  0
  -25.2742   -9.5680   22.4763 H   0  0  0  0  0  0
  -23.9988   -7.4632   22.7481 H   0  0  0  0  0  0
  -21.0807   -8.8775   19.8978 H   0  0  0  0  0  0
  -22.3673  -10.9669   19.6171 H   0  0  0  0  0  0
  -21.2011   -7.6139   23.9709 H   0  0  0  0  0  0
  -21.1478   -6.0520   25.9078 H   0  0  0  0  0  0
  -22.0589   -2.7597   23.2856 H   0  0  0  0  0  0
  -22.4063  -11.9973   22.4818 H   0  0  0  0  0  0
  -21.1094  -13.1344   22.2574 H   0  0  0  0  0  0
  -24.6596  -15.8374   20.4930 H   0  0  0  0  0  0
  -26.2731  -15.6099   20.0398 H   0  0  0  0  0  0
  -26.7105  -32.5530   23.1158 H   0  0  0  0  0  0
  -25.0037  -33.9787   25.0464 H   0  0  0  0  0  0
  -22.6897  -31.3079   21.4121 H   0  0  0  0  0  0
  -23.3737  -35.9665   23.3320 H   0  0  0  0  0  0
  -24.3575  -36.8915   22.2046 H   0  0  0  0  0  0
  -23.7252  -37.6538   23.6640 H   0  0  0  0  0  0
  -26.0460  -31.5950   20.5968 H   0  0  0  0  0  0
  -26.8178  -30.8820   21.9858 H   0  0  0  0  0  0
  -28.0943  -29.0923   21.1752 H   0  0  0  0  0  0
  -26.0280  -25.9502   19.0569 H   0  0  0  0  0  0
  -23.9690  -27.2840   19.0548 H   0  0  0  0  0  0
  -23.7144  -30.5969   19.4043 H   0  0  0  0  0  0
  -22.7340  -29.2421   19.8710 H   0  0  0  0  0  0
  -25.1280  -36.1982   25.0831 H   0  0  0  0  0  0
  -20.9948  -28.3230   24.1442 H   0  0  0  0  0  0
  -20.5646  -26.2272   23.3617 H   0  0  0  0  0  0
  -21.6630  -26.7432   22.1227 H   0  0  0  0  0  0
  -19.6900  -25.6293   21.1236 H   0  0  0  0  0  0
  -19.6678  -27.3199   20.6752 H   0  0  0  0  0  0
  -17.4187  -26.6670   21.4022 H   0  0  0  0  0  0
  -18.0310  -26.0055   22.9016 H   0  0  0  0  0  0
  -19.7928  -30.7244   24.2297 H   0  0  0  0  0  0
  -17.5010  -31.6266   24.5162 H   0  0  0  0  0  0
  -15.5343  -30.2994   23.7638 H   0  0  0  0  0  0
  -15.8655  -28.0822   22.7059 H   0  0  0  0  0  0
  -24.5895  -30.7084   25.7844 H   0  0  0  0  0  0
  -24.8931  -32.2901   26.4926 H   0  0  0  0  0  0
  -25.8084  -30.8921   27.0250 H   0  0  0  0  0  0
  -26.2822  -29.6818   24.1153 H   0  0  0  0  0  0
  -27.4010  -29.7265   25.4592 H   0  0  0  0  0  0
  -27.8683  -30.4343   23.9293 H   0  0  0  0  0  0
  -27.2669  -33.3611   26.2095 H   0  0  0  0  0  0
  -28.3826  -32.6912   25.0282 H   0  0  0  0  0  0
  -28.0750  -31.8429   26.5359 H   0  0  0  0  0  0
  -28.2616  -38.0091   24.7494 H   0  0  0  0  0  0
  -28.1057  -36.2624   24.6297 H   0  0  0  0  0  0
  -27.2304  -37.1481   25.8867 H   0  0  0  0  0  0
  -20.9291  -29.8762   21.6964 H   0  0  0  0  0  0
  -26.0186  -38.2878   24.1400 H   0  0  0  0  0  0
  -26.5830  -21.0684   18.3493 H   0  0  0  0  0  0
  -26.7975  -22.9714   16.4234 H   0  0  0  0  0  0
  -28.0446  -24.1848   16.6340 H   0  0  0  0  0  0
  -26.4500  -24.3951   17.3856 H   0  0  0  0  0  0
  -30.6598  -16.1528   23.1506 H   0  0  0  0  0  0
  -30.1283  -14.4828   23.1190 H   0  0  0  0  0  0
  -28.9432  -15.7719   22.9776 H   0  0  0  0  0  0
  -29.1638  -19.7302   18.0474 H   0  0  0  0  0  0
  -27.7573  -18.7339   18.4256 H   0  0  0  0  0  0
  -29.3380  -18.0039   18.2048 H   0  0  0  0  0  0
  -27.2442  -19.7554   20.8481 H   0  0  0  0  0  0
  -28.6473  -20.3347   21.6937 H   0  0  0  0  0  0
  -30.0937  -24.7126   20.0900 H   0  0  0  0  0  0
  -30.2157  -24.4722   18.3744 H   0  0  0  0  0  0
  -31.1002  -17.3219   21.1166 H   0  0  0  0  0  0
  -30.4797  -16.7549   19.5972 H   0  0  0  0  0  0
  -28.8500  -17.9573   21.8757 H   0  0  0  0  0  0
  -28.0806  -17.2168   20.5018 H   0  0  0  0  0  0
  -28.0056  -25.9158   18.1691 H   0  0  0  0  0  0
  -29.5246  -26.6491   18.4387 H   0  0  0  0  0  0
  -30.0337  -19.3673   20.1591 H   0  0  0  0  0  0
  1 25  1  0  0  0
  1 30  2  0  0  0
  1 84  1  0  0  0
  2  3  1  0  0  0
  2 25  1  0  0  0
  2 86  1  0  0  0
  2 87  1  0  0  0
  3  4  1  0  0  0
  3 88  1  0  0  0
  3 89  1  0  0  0
  4  5  1  0  0  0
  4 90  1  0  0  0
  4 91  1  0  0  0
  5  6  1  0  0  0
  5 26  1  0  0  0
  5 92  1  0  0  0
  6 25  1  0  0  0
  6 93  1  0  0  0
  6 94  1  0  0  0
  7  8  2  0  0  0
  7 26  1  0  0  0
  7 29  1  0  0  0
  8  9  1  0  0  0
  8 22  1  0  0  0
  9 10  1  0  0  0
  9 27  2  0  0  0
 10 11  2  0  0  0
 10 15  1  0  0  0
 11 12  1  0  0  0
 11 95  1  0  0  0
 12 13  2  0  0  0
 12 96  1  0  0  0
 13 14  1  0  0  0
 13 31  1  0  0  0
 14 15  2  0  0  0
 14 97  1  0  0  0
 15 98  1  0  0  0
 16 17  2  0  0  0
 16 21  1  0  0  0
 16 31  1  0  0  0
 17 18  1  0  0  0
 17 99  1  0  0  0
 18 19  2  0  0  0
 18100  1  0  0  0
 19 20  1  0  0  0
 19 24  1  0  0  0
 20 21  2  0  0  0
 20101  1  0  0  0
 21 23  1  0  0  0
 22 28  1  0  0  0
 22 32  2  0  0  0
 26 27  1  0  0  0
 28102  1  0  0  0
 28103  1  0  0  0
 29104  1  0  0  0
 29105  1  0  0  0
 33 34  1  0  0  0
 33 66  1  0  0  0
 33 70  2  0  0  0
 34 36  1  0  0  0
 34 59  1  0  0  0
 34106  1  0  0  0
 35 44  2  0  0  0
 35 45  1  0  0  0
 35 68  1  0  0  0
 36 56  1  0  0  0
 36107  1  0  0  0
 37 39  1  0  0  0
 37 47  1  0  0  0
 37 66  1  0  0  0
 37108  1  0  0  0
 38 43  2  0  0  0
 38 46  1  0  0  0
 38 47  1  0  0  0
 39 64  1  0  0  0
 39 67  2  0  0  0
 40 52  1  0  0  0
 40 53  2  0  0  0
 40 58  1  0  0  0
 41109  1  0  0  0
 41110  1  0  0  0
 41111  1  0  0  0
 41 48  1  0  0  0
 42 43  1  0  0  0
 42 66  1  0  0  0
 42112  1  0  0  0
 42113  1  0  0  0
 43 44  1  0  0  0
 44114  1  0  0  0
 45 46  2  0  0  0
 45115  1  0  0  0
 46116  1  0  0  0
 47117  1  0  0  0
 47118  1  0  0  0
 48 56  1  0  0  0
 48 65  1  0  0  0
 48119  1  0  0  0
 49 50  1  0  0  0
 49 53  1  0  0  0
 49 64  1  0  0  0
 49120  1  0  0  0
 50 51  1  0  0  0
 50121  1  0  0  0
 50122  1  0  0  0
 51 52  1  0  0  0
 51123  1  0  0  0
 51124  1  0  0  0
 52125  1  0  0  0
 52126  1  0  0  0
 53 54  1  0  0  0
 54 55  2  0  0  0
 54127  1  0  0  0
 55 57  1  0  0  0
 55128  1  0  0  0
 56 69  2  0  0  0
 57 58  2  0  0  0
 57129  1  0  0  0
 58130  1  0  0  0
 59 60  1  0  0  0
 59 61  1  0  0  0
 59 62  1  0  0  0
 60131  1  0  0  0
 60132  1  0  0  0
 60133  1  0  0  0
 61134  1  0  0  0
 61135  1  0  0  0
 61136  1  0  0  0
 62137  1  0  0  0
 62138  1  0  0  0
 62139  1  0  0  0
 63 65  1  0  0  0
 63140  1  0  0  0
 63141  1  0  0  0
 63142  1  0  0  0
 64143  1  0  0  0
 65144  1  0  0  0
 68 81  1  0  0  0
 71 72  1  0  0  0
 71 73  2  0  0  0
 71145  1  0  0  0
 72 77  1  0  0  0
 72 82  2  0  0  0
 73 74  1  0  0  0
 73 83  1  0  0  0
 74146  1  0  0  0
 74147  1  0  0  0
 74148  1  0  0  0
 75 84  1  0  0  0
 75149  1  0  0  0
 75150  1  0  0  0
 75151  1  0  0  0
 76152  1  0  0  0
 76153  1  0  0  0
 76154  1  0  0  0
 76 85  1  0  0  0
 77 85  1  0  0  0
 77155  1  0  0  0
 77156  1  0  0  0
 78 81  1  0  0  0
 78 83  1  0  0  0
 78157  1  0  0  0
 78158  1  0  0  0
 79 80  1  0  0  0
 79 84  1  0  0  0
 79159  1  0  0  0
 79160  1  0  0  0
 80 85  1  0  0  0
 80161  1  0  0  0
 80162  1  0  0  0
 81163  1  0  0  0
 81164  1  0  0  0
 82 83  1  0  0  0
 85165  1  0  0  0
M  CHG  1  85   1
M  ISO  4   1 100  68 101  81 101  84 100
M  END
> <chiral flag>
0

> <version>
0

> <s_m_source_file>
/data/baiqing/PycharmProjects/Reinvent-master-3.2/result/LINK_invent/BTK/process_docking_weight1_custom_sum_contain_oxygen_bond_distance_aromatic_linkinvent_7_9_3/rearranged_h_0052.sdf

> <i_m_source_file_index>
36

> <r_mmod_Potential_Energy-OPLS-2005>
-100.462142944336

> <r_mmod_Stretch_Energy-OPLS-2005>
41.8104438781738

> <r_mmod_Bend_Energy-OPLS-2005>
111.731903076172

> <r_mmod_Torsional_Energy-OPLS-2005>
293.184692382812

> <r_mmod_Improper_Torsional_Energy-OPLS-2005>
9.67947292327881

> <r_mmod_Van_der_Waal_Energy-OPLS-2005>
136.372406005859

> <r_mmod_Electrostatic_Energy-OPLS-2005>
-259.424652099609

> <r_mmod_Solvation_Energy-OPLS-2005>
-444.478485107422

> <b_mmod_Minimization_Converged-OPLS-2005>
0

> <r_mmod_RMS_Derivative-OPLS-2005>
1.73232197761536

$$$$
36
                    3D
 Structure written by MMmdl.
166174  0  0  1  0            999 V2000
  -30.1355  -16.0720   20.3061 C   0  0  0  0  0  0
  -30.3871  -13.4017   19.5702 C   0  0  0  0  0  0
  -29.5663  -12.7890   18.3824 C   0  0  0  0  0  0
  -28.1752  -12.3318   18.8341 C   0  0  0  0  0  0
  -27.5858  -13.3564   19.8215 C   0  0  2  0  0  0
  -28.5691  -13.8445   20.9260 C   0  0  0  0  0  0
  -25.2225  -13.8340   20.5823 C   0  0  0  0  0  0
  -24.1674  -13.0424   20.9304 C   0  0  0  0  0  0
  -24.6455  -11.6967   20.8766 C   0  0  0  0  0  0
  -23.9168  -10.4293   21.0382 C   0  0  0  0  0  0
  -24.3685   -9.4202   21.9168 C   0  0  0  0  0  0
  -23.6331   -8.2249   22.0748 C   0  0  0  0  0  0
  -22.4312   -8.0291   21.3540 C   0  0  0  0  0  0
  -21.9970   -9.0270   20.4639 C   0  0  0  0  0  0
  -22.7325  -10.2135   20.3041 C   0  0  0  0  0  0
  -21.6864   -6.0750   22.5277 C   0  0  0  0  0  0
  -21.4021   -6.5651   23.8213 C   0  0  0  0  0  0
  -21.3660   -5.6802   24.9174 C   0  0  0  0  0  0
  -21.6040   -4.3063   24.7222 C   0  0  0  0  0  0
  -21.8814   -3.8156   23.4344 C   0  0  0  0  0  0
  -21.9196   -4.6976   22.3400 C   0  0  0  0  0  0
  -22.7679  -13.5123   21.1933 C   0  0  0  0  0  0
  -22.1661   -4.2160   21.0978 F   0  0  0  0  0  0
  -21.5628   -3.4543   25.7732 F   0  0  0  0  0  0
  -29.6799  -14.6164   20.2698 N   0  0  0  0  0  0
  -26.2753  -12.9779   20.3316 N   0  0  0  0  0  0
  -25.9426  -11.6799   20.5709 N   0  0  0  0  0  0
  -22.0377  -12.8085   22.0498 N   0  0  0  0  0  0
  -25.3693  -15.2077   20.4214 N   0  0  0  0  0  0
  -31.3564  -15.9503   20.0319 O   0  0  0  0  0  0
  -21.6655   -6.8898   21.4242 O   0  0  0  0  0  0
  -22.3333  -14.5416   20.6778 O   0  0  0  0  0  0
  -24.7116  -31.7639   23.1268 C   0  0  0  0  0  0
  -25.9555  -32.4285   23.7930 C   0  0  1  0  0  0
  -27.2394  -26.3906   20.2432 C   0  0  0  0  0  0
  -25.6012  -33.8131   24.1781 N   0  0  0  0  0  0
  -23.5523  -30.3507   21.4868 C   0  0  2  0  0  0
  -25.0139  -28.6267   20.1240 C   0  0  0  0  0  0
  -22.7889  -29.4124   22.4634 C   0  0  0  0  0  0
  -18.0357  -28.1426   22.8446 C   0  0  0  0  0  0
  -24.1497  -36.7069   23.2661 C   0  0  0  0  0  0
  -26.1428  -30.3897   21.4426 C   0  0  0  0  0  0
  -26.2015  -28.9190   20.8018 C   0  0  0  0  0  0
  -27.2761  -27.8359   20.8283 C   0  0  0  0  0  0
  -26.0289  -26.3991   19.4773 C   0  0  0  0  0  0
  -24.9855  -27.3960   19.4372 C   0  0  0  0  0  0
  -23.8234  -29.6186   20.1349 C   0  0  0  0  0  0
  -25.4159  -36.2789   24.0261 C   0  0  1  0  0  0
  -20.6007  -28.3805   23.1090 C   0  0  2  0  0  0
  -20.6822  -26.9438   22.5397 C   0  0  0  0  0  0
  -19.5785  -26.6325   21.5239 C   0  0  0  0  0  0
  -18.1969  -26.7944   22.1636 C   0  0  0  0  0  0
  -19.1631  -28.8942   23.2741 C   0  0  0  0  0  0
  -18.9534  -30.1516   23.8799 C   0  0  0  0  0  0
  -17.6520  -30.6602   24.0540 C   0  0  0  0  0  0
  -25.9160  -34.9188   23.4883 C   0  0  0  0  0  0
  -16.5409  -29.9081   23.6348 C   0  0  0  0  0  0
  -16.7340  -28.6504   23.0369 C   0  0  0  0  0  0
  -26.4639  -31.6450   25.0675 C   0  0  0  0  0  0
  -25.3628  -31.3848   26.1232 C   0  0  0  0  0  0
  -27.0621  -30.2759   24.6795 C   0  0  0  0  0  0
  -27.6034  -32.4380   25.7501 C   0  0  0  0  0  0
  -27.5552  -37.1690   24.8469 C   0  0  0  0  0  0
  -21.4506  -29.3016   22.3391 N   0  0  0  0  0  0
  -26.4259  -37.3582   23.9406 N   0  0  0  0  0  0
  -24.8291  -30.8768   22.0698 N   0  0  0  0  0  0
  -23.4194  -28.7761   23.3107 O   0  0  0  0  0  0
  -28.1956  -25.0548   20.3331 O   0  0  0  0  0  0
  -26.5846  -34.8826   22.4532 O   0  0  0  0  0  0
  -23.6071  -32.0870   23.6017 O   0  0  0  0  0  0
  -22.7372  -21.1437   23.9204 C   0  0  0  0  0  0
  -22.6003  -21.2146   22.5150 C   0  0  0  0  0  0
  -25.0257  -21.2320   23.6961 C   0  0  0  0  0  0
  -24.8943  -21.2999   22.2852 C   0  0  0  0  0  0
  -21.2360  -21.2215   21.8606 C   0  0  0  0  0  0
  -26.3806  -21.2701   24.3750 C   0  0  0  0  0  0
  -27.8868  -18.5402   22.3087 C   0  0  0  0  0  0
  -28.3300  -17.3177   21.4921 C   0  0  0  0  0  0
  -29.1878  -19.4193   19.9764 C   0  0  0  0  0  0
  -28.8368  -21.4646   20.5106 C   0  0  0  0  0  0
  -26.5818  -22.9060   19.7325 C   0  0  0  0  0  0
  -25.9561  -21.5447   20.0839 C   0  0  0  0  0  0
  -23.9516  -21.1540   24.5180 N   0  0  0  0  0  0
  -23.6734  -21.2929   21.6924 N   0  0  0  0  0  0
  -29.3762  -17.5539   20.4807 N   0  0  0  0  0  0
  -28.0089  -23.0741   20.0273 N   0  0  0  0  0  0
  -26.0266  -21.3595   21.5015 O   0  0  0  0  0  0
  -31.3514  -13.7117   19.1667 H   0  0  0  0  0  0
  -30.6447  -12.6248   20.2928 H   0  0  0  0  0  0
  -30.1074  -11.9585   17.9268 H   0  0  0  0  0  0
  -29.4571  -13.5472   17.6055 H   0  0  0  0  0  0
  -28.2767  -11.3663   19.3308 H   0  0  0  0  0  0
  -27.5155  -12.1789   17.9793 H   0  0  0  0  0  0
  -27.3999  -14.2288   19.1933 H   0  0  0  0  0  0
  -28.9212  -13.0195   21.5481 H   0  0  0  0  0  0
  -28.0405  -14.5080   21.6085 H   0  0  0  0  0  0
  -25.2823   -9.5681   22.4757 H   0  0  0  0  0  0
  -24.0023   -7.4654   22.7493 H   0  0  0  0  0  0
  -21.0887   -8.8811   19.8957 H   0  0  0  0  0  0
  -22.3778  -10.9679   19.6158 H   0  0  0  0  0  0
  -21.2011   -7.6159   23.9715 H   0  0  0  0  0  0
  -21.1487   -6.0534   25.9077 H   0  0  0  0  0  0
  -22.0591   -2.7616   23.2841 H   0  0  0  0  0  0
  -22.4055  -11.9762   22.4863 H   0  0  0  0  0  0
  -21.0984  -13.1060   22.2721 H   0  0  0  0  0  0
  -24.5876  -15.8450   20.5273 H   0  0  0  0  0  0
  -26.2011  -15.6547   20.0602 H   0  0  0  0  0  0
  -26.7662  -32.4683   23.0654 H   0  0  0  0  0  0
  -25.0011  -33.9117   24.9837 H   0  0  0  0  0  0
  -22.8961  -31.1959   21.2704 H   0  0  0  0  0  0
  -23.3787  -35.9367   23.3248 H   0  0  0  0  0  0
  -24.3558  -36.8823   22.2090 H   0  0  0  0  0  0
  -23.7232  -37.6207   23.6812 H   0  0  0  0  0  0
  -26.3786  -31.0899   20.6403 H   0  0  0  0  0  0
  -26.9834  -30.4696   22.1187 H   0  0  0  0  0  0
  -28.1598  -28.0757   21.4022 H   0  0  0  0  0  0
  -25.8287  -25.5042   18.9082 H   0  0  0  0  0  0
  -24.1053  -27.1634   18.8541 H   0  0  0  0  0  0
  -24.0234  -30.3656   19.3663 H   0  0  0  0  0  0
  -22.9228  -29.0995   19.8035 H   0  0  0  0  0  0
  -25.1381  -36.1508   25.0750 H   0  0  0  0  0  0
  -21.0078  -28.3439   24.1222 H   0  0  0  0  0  0
  -20.5713  -26.2429   23.3686 H   0  0  0  0  0  0
  -21.6670  -26.7360   22.1200 H   0  0  0  0  0  0
  -19.6934  -25.6189   21.1379 H   0  0  0  0  0  0
  -19.6721  -27.3039   20.6694 H   0  0  0  0  0  0
  -17.4235  -26.6679   21.4046 H   0  0  0  0  0  0
  -18.0344  -26.0118   22.9062 H   0  0  0  0  0  0
  -19.8010  -30.7348   24.2137 H   0  0  0  0  0  0
  -17.5067  -31.6271   24.5162 H   0  0  0  0  0  0
  -15.5407  -30.2951   23.7722 H   0  0  0  0  0  0
  -15.8742  -28.0786   22.7153 H   0  0  0  0  0  0
  -24.5860  -30.7151   25.7516 H   0  0  0  0  0  0
  -24.8769  -32.3093   26.4366 H   0  0  0  0  0  0
  -25.7739  -30.9198   27.0203 H   0  0  0  0  0  0
  -26.3395  -29.6271   24.1836 H   0  0  0  0  0  0
  -27.3975  -29.7329   25.5641 H   0  0  0  0  0  0
  -27.9401  -30.3814   24.0421 H   0  0  0  0  0  0
  -27.2546  -33.3789   26.1771 H   0  0  0  0  0  0
  -28.3997  -32.6770   25.0438 H   0  0  0  0  0  0
  -28.0538  -31.8725   26.5669 H   0  0  0  0  0  0
  -28.2523  -38.0024   24.7515 H   0  0  0  0  0  0
  -28.1095  -36.2546   24.6303 H   0  0  0  0  0  0
  -27.2269  -37.1320   25.8871 H   0  0  0  0  0  0
  -20.9880  -29.8647   21.6394 H   0  0  0  0  0  0
  -26.0059  -38.2615   24.1428 H   0  0  0  0  0  0
  -21.8731  -21.0858   24.5664 H   0  0  0  0  0  0
  -20.5093  -20.6891   22.4752 H   0  0  0  0  0  0
  -21.2655  -20.7410   20.8821 H   0  0  0  0  0  0
  -20.8872  -22.2463   21.7313 H   0  0  0  0  0  0
  -27.1717  -20.9237   23.7117 H   0  0  0  0  0  0
  -26.3909  -20.6393   25.2638 H   0  0  0  0  0  0
  -26.6176  -22.2904   24.6756 H   0  0  0  0  0  0
  -27.2816  -19.2190   21.7123 H   0  0  0  0  0  0
  -27.2622  -18.2322   23.1477 H   0  0  0  0  0  0
  -28.7380  -19.0846   22.7209 H   0  0  0  0  0  0
  -27.4642  -16.8726   21.0039 H   0  0  0  0  0  0
  -28.6808  -16.5910   22.2282 H   0  0  0  0  0  0
  -30.0707  -19.5202   19.3454 H   0  0  0  0  0  0
  -28.3916  -19.2827   19.2449 H   0  0  0  0  0  0
  -29.8590  -21.8171   20.6499 H   0  0  0  0  0  0
  -28.4866  -21.3657   21.5373 H   0  0  0  0  0  0
  -26.0282  -23.6749   20.2709 H   0  0  0  0  0  0
  -26.4332  -23.1041   18.6708 H   0  0  0  0  0  0
  -26.4829  -20.7317   19.5867 H   0  0  0  0  0  0
  -24.9501  -21.5109   19.6681 H   0  0  0  0  0  0
  1 25  1  0  0  0
  1 30  2  0  0  0
  1 85  1  0  0  0
  2  3  1  0  0  0
  2 25  1  0  0  0
  2 88  1  0  0  0
  2 89  1  0  0  0
  3  4  1  0  0  0
  3 90  1  0  0  0
  3 91  1  0  0  0
  4  5  1  0  0  0
  4 92  1  0  0  0
  4 93  1  0  0  0
  5  6  1  0  0  0
  5 26  1  0  0  0
  5 94  1  0  0  0
  6 25  1  0  0  0
  6 95  1  0  0  0
  6 96  1  0  0  0
  7  8  2  0  0  0
  7 26  1  0  0  0
  7 29  1  0  0  0
  8  9  1  0  0  0
  8 22  1  0  0  0
  9 10  1  0  0  0
  9 27  2  0  0  0
 10 11  2  0  0  0
 10 15  1  0  0  0
 11 12  1  0  0  0
 11 97  1  0  0  0
 12 13  2  0  0  0
 12 98  1  0  0  0
 13 14  1  0  0  0
 13 31  1  0  0  0
 14 15  2  0  0  0
 14 99  1  0  0  0
 15100  1  0  0  0
 16 17  2  0  0  0
 16 21  1  0  0  0
 16 31  1  0  0  0
 17 18  1  0  0  0
 17101  1  0  0  0
 18 19  2  0  0  0
 18102  1  0  0  0
 19 20  1  0  0  0
 19 24  1  0  0  0
 20 21  2  0  0  0
 20103  1  0  0  0
 21 23  1  0  0  0
 22 28  1  0  0  0
 22 32  2  0  0  0
 26 27  1  0  0  0
 28104  1  0  0  0
 28105  1  0  0  0
 29106  1  0  0  0
 29107  1  0  0  0
 33 34  1  0  0  0
 33 66  1  0  0  0
 33 70  2  0  0  0
 34 36  1  0  0  0
 34 59  1  0  0  0
 34108  1  0  0  0
 35 44  2  0  0  0
 35 45  1  0  0  0
 35 68  1  0  0  0
 36 56  1  0  0  0
 36109  1  0  0  0
 37 39  1  0  0  0
 37 47  1  0  0  0
 37 66  1  0  0  0
 37110  1  0  0  0
 38 43  2  0  0  0
 38 46  1  0  0  0
 38 47  1  0  0  0
 39 64  1  0  0  0
 39 67  2  0  0  0
 40 52  1  0  0  0
 40 53  2  0  0  0
 40 58  1  0  0  0
 41111  1  0  0  0
 41112  1  0  0  0
 41113  1  0  0  0
 41 48  1  0  0  0
 42 43  1  0  0  0
 42 66  1  0  0  0
 42114  1  0  0  0
 42115  1  0  0  0
 43 44  1  0  0  0
 44116  1  0  0  0
 45 46  2  0  0  0
 45117  1  0  0  0
 46118  1  0  0  0
 47119  1  0  0  0
 47120  1  0  0  0
 48 56  1  0  0  0
 48 65  1  0  0  0
 48121  1  0  0  0
 49 50  1  0  0  0
 49 53  1  0  0  0
 49 64  1  0  0  0
 49122  1  0  0  0
 50 51  1  0  0  0
 50123  1  0  0  0
 50124  1  0  0  0
 51 52  1  0  0  0
 51125  1  0  0  0
 51126  1  0  0  0
 52127  1  0  0  0
 52128  1  0  0  0
 53 54  1  0  0  0
 54 55  2  0  0  0
 54129  1  0  0  0
 55 57  1  0  0  0
 55130  1  0  0  0
 56 69  2  0  0  0
 57 58  2  0  0  0
 57131  1  0  0  0
 58132  1  0  0  0
 59 60  1  0  0  0
 59 61  1  0  0  0
 59 62  1  0  0  0
 60133  1  0  0  0
 60134  1  0  0  0
 60135  1  0  0  0
 61136  1  0  0  0
 61137  1  0  0  0
 61138  1  0  0  0
 62139  1  0  0  0
 62140  1  0  0  0
 62141  1  0  0  0
 63 65  1  0  0  0
 63142  1  0  0  0
 63143  1  0  0  0
 63144  1  0  0  0
 64145  1  0  0  0
 65146  1  0  0  0
 68 86  1  0  0  0
 71 72  2  0  0  0
 71 83  1  0  0  0
 71147  1  0  0  0
 72 75  1  0  0  0
 72 84  1  0  0  0
 73 74  1  0  0  0
 73 76  1  0  0  0
 73 83  2  0  0  0
 74 84  2  0  0  0
 74 87  1  0  0  0
 75148  1  0  0  0
 75149  1  0  0  0
 75150  1  0  0  0
 76151  1  0  0  0
 76152  1  0  0  0
 76153  1  0  0  0
 77 78  1  0  0  0
 77154  1  0  0  0
 77155  1  0  0  0
 77156  1  0  0  0
 78 85  1  0  0  0
 78157  1  0  0  0
 78158  1  0  0  0
 79 80  1  0  0  0
 79 85  1  0  0  0
 79159  1  0  0  0
 79160  1  0  0  0
 80 86  1  0  0  0
 80161  1  0  0  0
 80162  1  0  0  0
 81 82  1  0  0  0
 81 86  1  0  0  0
 81163  1  0  0  0
 81164  1  0  0  0
 82 87  1  0  0  0
 82165  1  0  0  0
 82166  1  0  0  0
M  ISO  4   1 100  68 101  85 100  86 101
M  END
> <chiral flag>
0

> <version>
0

> <s_m_source_file>
/data/baiqing/PycharmProjects/Reinvent-master-3.2/result/LINK_invent/BTK/process_docking_weight1_custom_sum_contain_oxygen_bond_distance_aromatic_linkinvent_7_9_3/rearranged_h_0052.sdf

> <i_m_source_file_index>
37

> <r_mmod_Potential_Energy-OPLS-2005>
4703.0615234375

> <r_mmod_Stretch_Energy-OPLS-2005>
2080.4990234375

> <r_mmod_Bend_Energy-OPLS-2005>
995.815490722656

> <r_mmod_Torsional_Energy-OPLS-2005>
324.576446533203

> <r_mmod_Improper_Torsional_Energy-OPLS-2005>
2.97271251678467

> <r_mmod_Van_der_Waal_Energy-OPLS-2005>
147.969512939453

> <r_mmod_Electrostatic_Energy-OPLS-2005>
-266.084777832031

> <r_mmod_Solvation_Energy-OPLS-2005>
-243.735992431641

> <b_mmod_Minimization_Converged-OPLS-2005>
0

> <r_mmod_RMS_Derivative-OPLS-2005>
1.19591927528381

$$$$
37
                    3D
 Structure written by MMmdl.
154162  0  0  1  0            999 V2000
  -30.5845  -14.7251   20.4535 C   0  0  0  0  0  0
  -30.4355  -12.4463   19.4562 C   0  0  0  0  0  0
  -29.5081  -12.5013   18.2229 C   0  0  0  0  0  0
  -28.0332  -12.3220   18.6409 C   0  0  0  0  0  0
  -27.6408  -13.2158   19.8478 C   0  0  2  0  0  0
  -28.6849  -13.1285   20.9800 C   0  0  0  0  0  0
  -25.2533  -13.8155   20.5687 C   0  0  0  0  0  0
  -24.1804  -13.0436   20.9205 C   0  0  0  0  0  0
  -24.6335  -11.6890   20.8724 C   0  0  0  0  0  0
  -23.9002  -10.4286   21.0389 C   0  0  0  0  0  0
  -24.3574   -9.4222   21.9172 C   0  0  0  0  0  0
  -23.6275   -8.2247   22.0741 C   0  0  0  0  0  0
  -22.4265   -8.0252   21.3529 C   0  0  0  0  0  0
  -21.9878   -9.0215   20.4625 C   0  0  0  0  0  0
  -22.7169  -10.2112   20.3036 C   0  0  0  0  0  0
  -21.6852   -6.0709   22.5271 C   0  0  0  0  0  0
  -21.4008   -6.5618   23.8195 C   0  0  0  0  0  0
  -21.3668   -5.6775   24.9171 C   0  0  0  0  0  0
  -21.6053   -4.3036   24.7233 C   0  0  0  0  0  0
  -21.8830   -3.8117   23.4360 C   0  0  0  0  0  0
  -21.9213   -4.6939   22.3413 C   0  0  0  0  0  0
  -22.7842  -13.5240   21.1888 C   0  0  0  0  0  0
  -22.1685   -4.2114   21.0999 F   0  0  0  0  0  0
  -21.5641   -3.4528   25.7753 F   0  0  0  0  0  0
  -29.9808  -13.4932   20.3949 N   0  0  0  0  0  0
  -26.2916  -12.9300   20.3242 N   0  0  0  0  0  0
  -25.9249  -11.6462   20.5704 N   0  0  0  0  0  0
  -22.0494  -12.8196   22.0420 N   0  0  0  0  0  0
  -25.4334  -15.1882   20.4120 N   0  0  0  0  0  0
  -31.7764  -14.8490   20.1610 O   0  0  0  0  0  0
  -21.6641   -6.8841   21.4222 O   0  0  0  0  0  0
  -22.3530  -14.5571   20.6766 O   0  0  0  0  0  0
  -24.6306  -31.8534   23.1982 C   0  0  0  0  0  0
  -25.9118  -32.4742   23.8346 C   0  0  1  0  0  0
  -27.2330  -27.2733   20.1387 C   0  0  0  0  0  0
  -25.5914  -33.8550   24.2261 N   0  0  0  0  0  0
  -23.4276  -30.4695   21.5432 C   0  0  2  0  0  0
  -24.8765  -28.9068   20.1232 C   0  0  0  0  0  0
  -22.7497  -29.4568   22.4952 C   0  0  0  0  0  0
  -18.0282  -28.1380   22.8500 C   0  0  0  0  0  0
  -24.1490  -36.7269   23.2646 C   0  0  0  0  0  0
  -25.9713  -30.7691   21.3761 C   0  0  0  0  0  0
  -26.0474  -29.3915   20.7200 C   0  0  0  0  0  0
  -27.2316  -28.5908   20.7066 C   0  0  0  0  0  0
  -26.0375  -26.8346   19.5359 C   0  0  0  0  0  0
  -24.8750  -27.6351   19.5226 C   0  0  0  0  0  0
  -23.6449  -29.7910   20.1645 C   0  0  0  0  0  0
  -25.4125  -36.3064   24.0327 C   0  0  1  0  0  0
  -20.5888  -28.3691   23.1281 C   0  0  2  0  0  0
  -20.6762  -26.9407   22.5416 C   0  0  0  0  0  0
  -19.5740  -26.6380   21.5214 C   0  0  0  0  0  0
  -18.1922  -26.7926   22.1622 C   0  0  0  0  0  0
  -19.1541  -28.8853   23.2869 C   0  0  0  0  0  0
  -18.9455  -30.1459   23.8887 C   0  0  0  0  0  0
  -17.6455  -30.6585   24.0564 C   0  0  0  0  0  0
  -25.9063  -34.9432   23.5100 C   0  0  0  0  0  0
  -16.5343  -29.9083   23.6347 C   0  0  0  0  0  0
  -16.7268  -28.6488   23.0386 C   0  0  0  0  0  0
  -26.4514  -31.6579   25.0739 C   0  0  0  0  0  0
  -25.3745  -31.3702   26.1457 C   0  0  0  0  0  0
  -27.0397  -30.3006   24.6241 C   0  0  0  0  0  0
  -27.6076  -32.4349   25.7488 C   0  0  0  0  0  0
  -27.5584  -37.1781   24.8469 C   0  0  0  0  0  0
  -21.4210  -29.3020   22.3678 N   0  0  0  0  0  0
  -26.4295  -37.3767   23.9411 N   0  0  0  0  0  0
  -24.6949  -31.0497   22.0950 N   0  0  0  0  0  0
  -23.4188  -28.8131   23.3068 O   0  0  0  0  0  0
  -28.3658  -26.4407   20.0926 O   0  0  0  0  0  0
  -26.5655  -34.8912   22.4686 O   0  0  0  0  0  0
  -23.5453  -32.1359   23.7277 O   0  0  0  0  0  0
  -30.5401  -22.5671   20.7946 C   0  0  0  0  0  0
  -31.3059  -21.4282   21.0687 C   0  0  0  0  0  0
  -29.2434  -22.4036   20.2910 C   0  0  0  0  0  0
  -29.6121  -20.0223   20.4027 C   0  0  0  0  0  0
  -29.0199  -18.2586   18.6218 C   0  0  0  0  0  0
  -28.4448  -23.6949   19.7842 C   0  0  0  0  0  0
  -30.1593  -17.3192   20.7177 C   0  0  0  0  0  0
  -28.3583  -25.0541   20.6694 C   0  0  0  0  0  0
  -29.1955  -18.4958   20.1325 C   0  0  1  0  0  0
  -30.8492  -20.1809   20.8558 N   0  0  0  0  0  0
  -28.7993  -21.0948   20.1082 N   0  0  0  0  0  0
  -29.7781  -15.8355   20.6369 N   0  0  0  0  0  0
  -31.4739  -12.5884   19.1516 H   0  0  0  0  0  0
  -30.3892  -11.4666   19.9314 H   0  0  0  0  0  0
  -29.7865  -11.7248   17.5087 H   0  0  0  0  0  0
  -29.6345  -13.4531   17.7043 H   0  0  0  0  0  0
  -27.8910  -11.2720   18.9035 H   0  0  0  0  0  0
  -27.3727  -12.5128   17.7956 H   0  0  0  0  0  0
  -27.6412  -14.2409   19.4765 H   0  0  0  0  0  0
  -28.7226  -12.1181   21.3907 H   0  0  0  0  0  0
  -28.4204  -13.7846   21.8097 H   0  0  0  0  0  0
  -25.2721   -9.5727   22.4722 H   0  0  0  0  0  0
  -24.0012   -7.4638   22.7429 H   0  0  0  0  0  0
  -21.0827   -8.8694   19.8906 H   0  0  0  0  0  0
  -22.3611  -10.9639   19.6134 H   0  0  0  0  0  0
  -21.1969   -7.6120   23.9687 H   0  0  0  0  0  0
  -21.1488   -6.0514   25.9080 H   0  0  0  0  0  0
  -22.0608   -2.7569   23.2877 H   0  0  0  0  0  0
  -22.4124  -11.9886   22.4835 H   0  0  0  0  0  0
  -21.1094  -13.1157   22.2600 H   0  0  0  0  0  0
  -24.6708  -15.8488   20.5170 H   0  0  0  0  0  0
  -26.2785  -15.6129   20.0535 H   0  0  0  0  0  0
  -26.7179  -32.5397   23.1083 H   0  0  0  0  0  0
  -25.0031  -33.9701   25.0381 H   0  0  0  0  0  0
  -22.7228  -31.2903   21.3923 H   0  0  0  0  0  0
  -23.3765  -35.9583   23.3315 H   0  0  0  0  0  0
  -24.3559  -36.8903   22.2054 H   0  0  0  0  0  0
  -23.7223  -37.6460   23.6686 H   0  0  0  0  0  0
  -26.1139  -31.5305   20.6091 H   0  0  0  0  0  0
  -26.8452  -30.8157   22.0139 H   0  0  0  0  0  0
  -28.1390  -28.9660   21.1593 H   0  0  0  0  0  0
  -26.0044  -25.8572   19.0734 H   0  0  0  0  0  0
  -23.9763  -27.2551   19.0579 H   0  0  0  0  0  0
  -23.7626  -30.5601   19.3999 H   0  0  0  0  0  0
  -22.7668  -29.2139   19.8694 H   0  0  0  0  0  0
  -25.1302  -36.1919   25.0818 H   0  0  0  0  0  0
  -20.9960  -28.3264   24.1409 H   0  0  0  0  0  0
  -20.5668  -26.2294   23.3617 H   0  0  0  0  0  0
  -21.6629  -26.7431   22.1208 H   0  0  0  0  0  0
  -19.6907  -25.6293   21.1241 H   0  0  0  0  0  0
  -19.6687  -27.3191   20.6747 H   0  0  0  0  0  0
  -17.4199  -26.6698   21.4016 H   0  0  0  0  0  0
  -18.0307  -26.0053   22.8998 H   0  0  0  0  0  0
  -19.7928  -30.7274   24.2258 H   0  0  0  0  0  0
  -17.5009  -31.6275   24.5147 H   0  0  0  0  0  0
  -15.5347  -30.2979   23.7673 H   0  0  0  0  0  0
  -15.8664  -28.0787   22.7147 H   0  0  0  0  0  0
  -24.5917  -30.7060   25.7767 H   0  0  0  0  0  0
  -24.8924  -32.2849   26.4919 H   0  0  0  0  0  0
  -25.8050  -30.8844   27.0220 H   0  0  0  0  0  0
  -26.2992  -29.6698   24.1296 H   0  0  0  0  0  0
  -27.4125  -29.7322   25.4776 H   0  0  0  0  0  0
  -27.8852  -30.4307   23.9476 H   0  0  0  0  0  0
  -27.2695  -33.3665   26.2044 H   0  0  0  0  0  0
  -28.3862  -32.6887   25.0279 H   0  0  0  0  0  0
  -28.0777  -31.8497   26.5403 H   0  0  0  0  0  0
  -28.2596  -38.0091   24.7545 H   0  0  0  0  0  0
  -28.1097  -36.2620   24.6276 H   0  0  0  0  0  0
  -27.2300  -37.1395   25.8874 H   0  0  0  0  0  0
  -20.9420  -29.8697   21.6824 H   0  0  0  0  0  0
  -26.0183  -38.2837   24.1441 H   0  0  0  0  0  0
  -30.9763  -23.5475   20.9282 H   0  0  0  0  0  0
  -32.3188  -21.5160   21.4340 H   0  0  0  0  0  0
  -28.2542  -18.9177   18.2113 H   0  0  0  0  0  0
  -28.7156  -17.2343   18.4056 H   0  0  0  0  0  0
  -29.9480  -18.4525   18.0835 H   0  0  0  0  0  0
  -27.4324  -23.3867   19.5238 H   0  0  0  0  0  0
  -28.9107  -23.9647   18.8355 H   0  0  0  0  0  0
  -30.3341  -17.5327   21.7712 H   0  0  0  0  0  0
  -31.1342  -17.4317   20.2420 H   0  0  0  0  0  0
  -29.2512  -25.0592   21.2923 H   0  0  0  0  0  0
  -27.5427  -24.9606   21.3871 H   0  0  0  0  0  0
  -28.2185  -18.3672   20.6019 H   0  0  0  0  0  0
  -28.8049  -15.6296   20.8040 H   0  0  0  0  0  0
  1 25  1  0  0  0
  1 30  2  0  0  0
  1 82  1  0  0  0
  2  3  1  0  0  0
  2 25  1  0  0  0
  2 83  1  0  0  0
  2 84  1  0  0  0
  3  4  1  0  0  0
  3 85  1  0  0  0
  3 86  1  0  0  0
  4  5  1  0  0  0
  4 87  1  0  0  0
  4 88  1  0  0  0
  5  6  1  0  0  0
  5 26  1  0  0  0
  5 89  1  0  0  0
  6 25  1  0  0  0
  6 90  1  0  0  0
  6 91  1  0  0  0
  7  8  2  0  0  0
  7 26  1  0  0  0
  7 29  1  0  0  0
  8  9  1  0  0  0
  8 22  1  0  0  0
  9 10  1  0  0  0
  9 27  2  0  0  0
 10 11  2  0  0  0
 10 15  1  0  0  0
 11 12  1  0  0  0
 11 92  1  0  0  0
 12 13  2  0  0  0
 12 93  1  0  0  0
 13 14  1  0  0  0
 13 31  1  0  0  0
 14 15  2  0  0  0
 14 94  1  0  0  0
 15 95  1  0  0  0
 16 17  2  0  0  0
 16 21  1  0  0  0
 16 31  1  0  0  0
 17 18  1  0  0  0
 17 96  1  0  0  0
 18 19  2  0  0  0
 18 97  1  0  0  0
 19 20  1  0  0  0
 19 24  1  0  0  0
 20 21  2  0  0  0
 20 98  1  0  0  0
 21 23  1  0  0  0
 22 28  1  0  0  0
 22 32  2  0  0  0
 26 27  1  0  0  0
 28 99  1  0  0  0
 28100  1  0  0  0
 29101  1  0  0  0
 29102  1  0  0  0
 33 34  1  0  0  0
 33 66  1  0  0  0
 33 70  2  0  0  0
 34 36  1  0  0  0
 34 59  1  0  0  0
 34103  1  0  0  0
 35 44  2  0  0  0
 35 45  1  0  0  0
 35 68  1  0  0  0
 36 56  1  0  0  0
 36104  1  0  0  0
 37 39  1  0  0  0
 37 47  1  0  0  0
 37 66  1  0  0  0
 37105  1  0  0  0
 38 43  2  0  0  0
 38 46  1  0  0  0
 38 47  1  0  0  0
 39 64  1  0  0  0
 39 67  2  0  0  0
 40 52  1  0  0  0
 40 53  2  0  0  0
 40 58  1  0  0  0
 41106  1  0  0  0
 41107  1  0  0  0
 41108  1  0  0  0
 41 48  1  0  0  0
 42 43  1  0  0  0
 42 66  1  0  0  0
 42109  1  0  0  0
 42110  1  0  0  0
 43 44  1  0  0  0
 44111  1  0  0  0
 45 46  2  0  0  0
 45112  1  0  0  0
 46113  1  0  0  0
 47114  1  0  0  0
 47115  1  0  0  0
 48 56  1  0  0  0
 48 65  1  0  0  0
 48116  1  0  0  0
 49 50  1  0  0  0
 49 53  1  0  0  0
 49 64  1  0  0  0
 49117  1  0  0  0
 50 51  1  0  0  0
 50118  1  0  0  0
 50119  1  0  0  0
 51 52  1  0  0  0
 51120  1  0  0  0
 51121  1  0  0  0
 52122  1  0  0  0
 52123  1  0  0  0
 53 54  1  0  0  0
 54 55  2  0  0  0
 54124  1  0  0  0
 55 57  1  0  0  0
 55125  1  0  0  0
 56 69  2  0  0  0
 57 58  2  0  0  0
 57126  1  0  0  0
 58127  1  0  0  0
 59 60  1  0  0  0
 59 61  1  0  0  0
 59 62  1  0  0  0
 60128  1  0  0  0
 60129  1  0  0  0
 60130  1  0  0  0
 61131  1  0  0  0
 61132  1  0  0  0
 61133  1  0  0  0
 62134  1  0  0  0
 62135  1  0  0  0
 62136  1  0  0  0
 63 65  1  0  0  0
 63137  1  0  0  0
 63138  1  0  0  0
 63139  1  0  0  0
 64140  1  0  0  0
 65141  1  0  0  0
 68 78  1  0  0  0
 71 72  2  0  0  0
 71 73  1  0  0  0
 71142  1  0  0  0
 72 80  1  0  0  0
 72143  1  0  0  0
 73 76  1  0  0  0
 73 81  2  0  0  0
 74 79  1  0  0  0
 74 80  2  0  0  0
 74 81  1  0  0  0
 75144  1  0  0  0
 75145  1  0  0  0
 75146  1  0  0  0
 75 79  1  0  0  0
 76 78  1  0  0  0
 76147  1  0  0  0
 76148  1  0  0  0
 77 79  1  0  0  0
 77 82  1  0  0  0
 77149  1  0  0  0
 77150  1  0  0  0
 78151  1  0  0  0
 78152  1  0  0  0
 79153  1  0  0  0
 82154  1  0  0  0
M  ISO  4   1 100  68 101  78 101  82 100
M  END
> <chiral flag>
0

> <version>
0

> <s_m_source_file>
/data/baiqing/PycharmProjects/Reinvent-master-3.2/result/LINK_invent/BTK/process_docking_weight1_custom_sum_contain_oxygen_bond_distance_aromatic_linkinvent_7_9_3/rearranged_h_0052.sdf

> <i_m_source_file_index>
38

> <r_mmod_Potential_Energy-OPLS-2005>
-244.946334838867

> <r_mmod_Stretch_Energy-OPLS-2005>
123.013458251953

> <r_mmod_Bend_Energy-OPLS-2005>
173.17301940918

> <r_mmod_Torsional_Energy-OPLS-2005>
229.767791748047

> <r_mmod_Improper_Torsional_Energy-OPLS-2005>
5.7137622833252

> <r_mmod_Van_der_Waal_Energy-OPLS-2005>
137.486297607422

> <r_mmod_Electrostatic_Energy-OPLS-2005>
-749.771240234375

> <r_mmod_Solvation_Energy-OPLS-2005>
-238.350143432617

> <b_mmod_Minimization_Converged-OPLS-2005>
0

> <r_mmod_RMS_Derivative-OPLS-2005>
3.08993005752563

$$$$
38
                    3D
 Structure written by MMmdl.
176183  0  0  1  0            999 V2000
  -30.5983  -14.9383   20.4818 C   0  0  0  0  0  0
  -30.4272  -12.5869   19.5220 C   0  0  0  0  0  0
  -29.5232  -12.5462   18.2672 C   0  0  0  0  0  0
  -28.0528  -12.3371   18.6658 C   0  0  0  0  0  0
  -27.6292  -13.2572   19.8395 C   0  0  2  0  0  0
  -28.6622  -13.2905   20.9858 C   0  0  0  0  0  0
  -25.2455  -13.8242   20.5712 C   0  0  0  0  0  0
  -24.1772  -13.0450   20.9195 C   0  0  0  0  0  0
  -24.6420  -11.6938   20.8751 C   0  0  0  0  0  0
  -23.9117  -10.4299   21.0423 C   0  0  0  0  0  0
  -24.3651   -9.4194   21.9189 C   0  0  0  0  0  0
  -23.6301   -8.2245   22.0770 C   0  0  0  0  0  0
  -22.4278   -8.0302   21.3556 C   0  0  0  0  0  0
  -21.9926   -9.0288   20.4659 C   0  0  0  0  0  0
  -22.7289  -10.2151   20.3061 C   0  0  0  0  0  0
  -21.6854   -6.0758   22.5297 C   0  0  0  0  0  0
  -21.4026   -6.5646   23.8234 C   0  0  0  0  0  0
  -21.3657   -5.6792   24.9187 C   0  0  0  0  0  0
  -21.6037   -4.3056   24.7209 C   0  0  0  0  0  0
  -21.8807   -3.8157   23.4327 C   0  0  0  0  0  0
  -21.9179   -4.6988   22.3401 C   0  0  0  0  0  0
  -22.7785  -13.5219   21.1860 C   0  0  0  0  0  0
  -22.1635   -4.2178   21.0970 F   0  0  0  0  0  0
  -21.5642   -3.4531   25.7712 F   0  0  0  0  0  0
  -29.9571  -13.6922   20.4204 N   0  0  0  0  0  0
  -26.2878  -12.9490   20.3212 N   0  0  0  0  0  0
  -25.9349  -11.6611   20.5720 N   0  0  0  0  0  0
  -22.0441  -12.8228   22.0427 N   0  0  0  0  0  0
  -25.4124  -15.1981   20.4215 N   0  0  0  0  0  0
  -31.7298  -14.9894   19.9883 O   0  0  0  0  0  0
  -21.6622   -6.8914   21.4267 O   0  0  0  0  0  0
  -22.3460  -14.5531   20.6727 O   0  0  0  0  0  0
  -24.6429  -31.8417   23.1827 C   0  0  0  0  0  0
  -25.9204  -32.4675   23.8227 C   0  0  1  0  0  0
  -27.2305  -27.1284   20.1628 C   0  0  0  0  0  0
  -25.5951  -33.8482   24.2152 N   0  0  0  0  0  0
  -23.4478  -30.4562   21.5261 C   0  0  2  0  0  0
  -24.9029  -28.8766   20.1045 C   0  0  0  0  0  0
  -22.7563  -29.4522   22.4828 C   0  0  0  0  0  0
  -18.0313  -28.1393   22.8482 C   0  0  0  0  0  0
  -24.1501  -36.7243   23.2639 C   0  0  0  0  0  0
  -26.0010  -30.7140   21.3824 C   0  0  0  0  0  0
  -26.0750  -29.3231   20.7263 C   0  0  0  0  0  0
  -27.2341  -28.4635   20.7385 C   0  0  0  0  0  0
  -26.0341  -26.7757   19.5017 C   0  0  0  0  0  0
  -24.8964  -27.6183   19.4769 C   0  0  0  0  0  0
  -23.6761  -29.7773   20.1468 C   0  0  0  0  0  0
  -25.4131  -36.3010   24.0304 C   0  0  1  0  0  0
  -20.5925  -28.3711   23.1245 C   0  0  2  0  0  0
  -20.6795  -26.9413   22.5411 C   0  0  0  0  0  0
  -19.5778  -26.6373   21.5211 C   0  0  0  0  0  0
  -18.1953  -26.7935   22.1610 C   0  0  0  0  0  0
  -19.1569  -28.8863   23.2864 C   0  0  0  0  0  0
  -18.9481  -30.1460   23.8898 C   0  0  0  0  0  0
  -17.6480  -30.6590   24.0555 C   0  0  0  0  0  0
  -25.9077  -34.9391   23.5039 C   0  0  0  0  0  0
  -16.5369  -29.9083   23.6333 C   0  0  0  0  0  0
  -16.7296  -28.6490   23.0365 C   0  0  0  0  0  0
  -26.4535  -31.6553   25.0672 C   0  0  0  0  0  0
  -25.3720  -31.3753   26.1360 C   0  0  0  0  0  0
  -27.0410  -30.2947   24.6261 C   0  0  0  0  0  0
  -27.6062  -32.4329   25.7473 C   0  0  0  0  0  0
  -27.5587  -37.1772   24.8464 C   0  0  0  0  0  0
  -21.4245  -29.3034   22.3588 N   0  0  0  0  0  0
  -26.4289  -37.3726   23.9405 N   0  0  0  0  0  0
  -24.7161  -31.0277   22.0853 N   0  0  0  0  0  0
  -23.4197  -28.8087   23.2994 O   0  0  0  0  0  0
  -28.3067  -26.1776   20.3020 O   0  0  0  0  0  0
  -26.5663  -34.8896   22.4615 O   0  0  0  0  0  0
  -23.5543  -32.1291   23.7056 O   0  0  0  0  0  0
  -26.0631  -21.0555   16.7249 C   0  0  0  0  0  0
  -28.3119  -22.0812   16.1769 C   0  0  0  0  0  0
  -29.5900  -15.5512   23.5092 C   0  0  0  0  0  0
  -31.9426  -16.1762   22.8054 C   0  0  0  0  0  0
  -31.1392  -19.2362   19.9177 C   0  0  0  0  0  0
  -28.3143  -23.2011   20.5301 C   0  0  0  0  0  0
  -28.1572  -20.2047   17.9097 C   0  0  0  0  0  0
  -29.3307  -17.4145   20.4993 C   0  0  0  0  0  0
  -29.2819  -21.8275   20.2408 C   0  0  0  0  0  0
  -27.7501  -19.9703   19.3876 C   0  0  0  0  0  0
  -28.4285  -24.7146   19.7672 C   0  0  0  0  0  0
  -27.4529  -21.4251   17.2691 C   0  0  0  0  0  0
  -30.4372  -16.3600   22.5110 C   0  0  0  0  0  0
  -29.8006  -19.0557   20.6528 C   0  0  2  0  0  0
  -30.0469  -16.1151   21.0934 N   0  0  0  0  0  0
  -28.8129  -20.2983   20.3771 N   0  3  1  0  0  0
  -31.4707  -12.7024   19.2220 H   0  0  0  0  0  0
  -30.3839  -11.6310   20.0480 H   0  0  0  0  0  0
  -29.8411  -11.7494   17.5922 H   0  0  0  0  0  0
  -29.6248  -13.4793   17.7101 H   0  0  0  0  0  0
  -27.9318  -11.2895   18.9469 H   0  0  0  0  0  0
  -27.4002  -12.5011   17.8074 H   0  0  0  0  0  0
  -27.5928  -14.2628   19.4206 H   0  0  0  0  0  0
  -28.7365  -12.3232   21.4842 H   0  0  0  0  0  0
  -28.3240  -14.0026   21.7366 H   0  0  0  0  0  0
  -25.2822   -9.5631   22.4734 H   0  0  0  0  0  0
  -24.0000   -7.4632   22.7491 H   0  0  0  0  0  0
  -21.0850   -8.8828   19.8967 H   0  0  0  0  0  0
  -22.3776  -10.9687   19.6158 H   0  0  0  0  0  0
  -21.2032   -7.6159   23.9744 H   0  0  0  0  0  0
  -21.1492   -6.0522   25.9095 H   0  0  0  0  0  0
  -22.0582   -2.7619   23.2820 H   0  0  0  0  0  0
  -22.4072  -11.9909   22.4836 H   0  0  0  0  0  0
  -21.1083  -13.1326   22.2672 H   0  0  0  0  0  0
  -24.6450  -15.8514   20.5318 H   0  0  0  0  0  0
  -26.2682  -15.6409   20.1167 H   0  0  0  0  0  0
  -26.7257  -32.5285   23.0947 H   0  0  0  0  0  0
  -25.0098  -33.9586   25.0297 H   0  0  0  0  0  0
  -22.7508  -31.2806   21.3659 H   0  0  0  0  0  0
  -23.3766  -35.9577   23.3287 H   0  0  0  0  0  0
  -24.3583  -36.8887   22.2058 H   0  0  0  0  0  0
  -23.7258  -37.6427   23.6693 H   0  0  0  0  0  0
  -26.1616  -31.4700   20.6124 H   0  0  0  0  0  0
  -26.8676  -30.7633   22.0290 H   0  0  0  0  0  0
  -28.1252  -28.8005   21.2511 H   0  0  0  0  0  0
  -25.9448  -25.8038   19.0395 H   0  0  0  0  0  0
  -23.9989  -27.2687   18.9866 H   0  0  0  0  0  0
  -23.8100  -30.5473   19.3861 H   0  0  0  0  0  0
  -22.7932  -29.2137   19.8395 H   0  0  0  0  0  0
  -25.1330  -36.1821   25.0793 H   0  0  0  0  0  0
  -21.0030  -28.3303   24.1364 H   0  0  0  0  0  0
  -20.5677  -26.2319   23.3620 H   0  0  0  0  0  0
  -21.6665  -26.7408   22.1225 H   0  0  0  0  0  0
  -19.6937  -25.6270   21.1274 H   0  0  0  0  0  0
  -19.6734  -27.3158   20.6721 H   0  0  0  0  0  0
  -17.4224  -26.6687   21.4010 H   0  0  0  0  0  0
  -18.0347  -26.0079   22.9003 H   0  0  0  0  0  0
  -19.7950  -30.7275   24.2283 H   0  0  0  0  0  0
  -17.5022  -31.6278   24.5147 H   0  0  0  0  0  0
  -15.5367  -30.2978   23.7649 H   0  0  0  0  0  0
  -15.8695  -28.0788   22.7110 H   0  0  0  0  0  0
  -24.5897  -30.7108   25.7665 H   0  0  0  0  0  0
  -24.8917  -32.2946   26.4723 H   0  0  0  0  0  0
  -25.7987  -30.8949   27.0170 H   0  0  0  0  0  0
  -26.3013  -29.6646   24.1295 H   0  0  0  0  0  0
  -27.4053  -29.7273   25.4835 H   0  0  0  0  0  0
  -27.8917  -30.4180   23.9556 H   0  0  0  0  0  0
  -27.2640  -33.3646   26.1990 H   0  0  0  0  0  0
  -28.3909  -32.6851   25.0332 H   0  0  0  0  0  0
  -28.0683  -31.8489   26.5438 H   0  0  0  0  0  0
  -28.2581  -38.0092   24.7513 H   0  0  0  0  0  0
  -28.1107  -36.2616   24.6288 H   0  0  0  0  0  0
  -27.2304  -37.1409   25.8866 H   0  0  0  0  0  0
  -20.9439  -29.8716   21.6750 H   0  0  0  0  0  0
  -26.0158  -38.2791   24.1401 H   0  0  0  0  0  0
  -25.5257  -21.9402   16.3801 H   0  0  0  0  0  0
  -25.4455  -20.5788   17.4866 H   0  0  0  0  0  0
  -26.1338  -20.3645   15.8847 H   0  0  0  0  0  0
  -27.8140  -22.9609   15.7649 H   0  0  0  0  0  0
  -28.5154  -21.3961   15.3528 H   0  0  0  0  0  0
  -29.2695  -22.4167   16.5769 H   0  0  0  0  0  0
  -29.8141  -15.8479   24.5350 H   0  0  0  0  0  0
  -29.7891  -14.4815   23.4437 H   0  0  0  0  0  0
  -28.5236  -15.7210   23.3586 H   0  0  0  0  0  0
  -32.1930  -16.5436   23.8007 H   0  0  0  0  0  0
  -32.5629  -16.7206   22.0916 H   0  0  0  0  0  0
  -32.2438  -15.1276   22.7783 H   0  0  0  0  0  0
  -31.8534  -18.4770   20.2355 H   0  0  0  0  0  0
  -31.5962  -20.2030   20.1267 H   0  0  0  0  0  0
  -31.0243  -19.1388   18.8395 H   0  0  0  0  0  0
  -28.3796  -23.3899   21.6002 H   0  0  0  0  0  0
  -27.2801  -22.8900   20.3925 H   0  0  0  0  0  0
  -27.9230  -19.3110   17.3281 H   0  0  0  0  0  0
  -29.2390  -20.2996   17.8225 H   0  0  0  0  0  0
  -29.1901  -17.2117   19.4368 H   0  0  0  0  0  0
  -28.3299  -17.3514   20.9269 H   0  0  0  0  0  0
  -30.1486  -21.9342   20.8930 H   0  0  0  0  0  0
  -29.7037  -21.9503   19.2462 H   0  0  0  0  0  0
  -27.4158  -18.9423   19.5165 H   0  0  0  0  0  0
  -26.8699  -20.5640   19.6319 H   0  0  0  0  0  0
  -27.8338  -24.6541   18.8571 H   0  0  0  0  0  0
  -29.4472  -24.7208   19.3802 H   0  0  0  0  0  0
  -27.3064  -22.1874   18.0338 H   0  0  0  0  0  0
  -30.2327  -17.3968   22.7577 H   0  0  0  0  0  0
  -30.0396  -19.2139   21.7032 H   0  0  0  0  0  0
  -28.3010  -20.3081   21.2478 H   0  0  0  0  0  0
  1 25  1  0  0  0
  1 30  2  0  0  0
  1 85  1  0  0  0
  2  3  1  0  0  0
  2 25  1  0  0  0
  2 87  1  0  0  0
  2 88  1  0  0  0
  3  4  1  0  0  0
  3 89  1  0  0  0
  3 90  1  0  0  0
  4  5  1  0  0  0
  4 91  1  0  0  0
  4 92  1  0  0  0
  5  6  1  0  0  0
  5 26  1  0  0  0
  5 93  1  0  0  0
  6 25  1  0  0  0
  6 94  1  0  0  0
  6 95  1  0  0  0
  7  8  2  0  0  0
  7 26  1  0  0  0
  7 29  1  0  0  0
  8  9  1  0  0  0
  8 22  1  0  0  0
  9 10  1  0  0  0
  9 27  2  0  0  0
 10 11  2  0  0  0
 10 15  1  0  0  0
 11 12  1  0  0  0
 11 96  1  0  0  0
 12 13  2  0  0  0
 12 97  1  0  0  0
 13 14  1  0  0  0
 13 31  1  0  0  0
 14 15  2  0  0  0
 14 98  1  0  0  0
 15 99  1  0  0  0
 16 17  2  0  0  0
 16 21  1  0  0  0
 16 31  1  0  0  0
 17 18  1  0  0  0
 17100  1  0  0  0
 18 19  2  0  0  0
 18101  1  0  0  0
 19 20  1  0  0  0
 19 24  1  0  0  0
 20 21  2  0  0  0
 20102  1  0  0  0
 21 23  1  0  0  0
 22 28  1  0  0  0
 22 32  2  0  0  0
 26 27  1  0  0  0
 28103  1  0  0  0
 28104  1  0  0  0
 29105  1  0  0  0
 29106  1  0  0  0
 33 34  1  0  0  0
 33 66  1  0  0  0
 33 70  2  0  0  0
 34 36  1  0  0  0
 34 59  1  0  0  0
 34107  1  0  0  0
 35 44  2  0  0  0
 35 45  1  0  0  0
 35 68  1  0  0  0
 36 56  1  0  0  0
 36108  1  0  0  0
 37 39  1  0  0  0
 37 47  1  0  0  0
 37 66  1  0  0  0
 37109  1  0  0  0
 38 43  2  0  0  0
 38 46  1  0  0  0
 38 47  1  0  0  0
 39 64  1  0  0  0
 39 67  2  0  0  0
 40 52  1  0  0  0
 40 53  2  0  0  0
 40 58  1  0  0  0
 41110  1  0  0  0
 41111  1  0  0  0
 41112  1  0  0  0
 41 48  1  0  0  0
 42 43  1  0  0  0
 42 66  1  0  0  0
 42113  1  0  0  0
 42114  1  0  0  0
 43 44  1  0  0  0
 44115  1  0  0  0
 45 46  2  0  0  0
 45116  1  0  0  0
 46117  1  0  0  0
 47118  1  0  0  0
 47119  1  0  0  0
 48 56  1  0  0  0
 48 65  1  0  0  0
 48120  1  0  0  0
 49 50  1  0  0  0
 49 53  1  0  0  0
 49 64  1  0  0  0
 49121  1  0  0  0
 50 51  1  0  0  0
 50122  1  0  0  0
 50123  1  0  0  0
 51 52  1  0  0  0
 51124  1  0  0  0
 51125  1  0  0  0
 52126  1  0  0  0
 52127  1  0  0  0
 53 54  1  0  0  0
 54 55  2  0  0  0
 54128  1  0  0  0
 55 57  1  0  0  0
 55129  1  0  0  0
 56 69  2  0  0  0
 57 58  2  0  0  0
 57130  1  0  0  0
 58131  1  0  0  0
 59 60  1  0  0  0
 59 61  1  0  0  0
 59 62  1  0  0  0
 60132  1  0  0  0
 60133  1  0  0  0
 60134  1  0  0  0
 61135  1  0  0  0
 61136  1  0  0  0
 61137  1  0  0  0
 62138  1  0  0  0
 62139  1  0  0  0
 62140  1  0  0  0
 63 65  1  0  0  0
 63141  1  0  0  0
 63142  1  0  0  0
 63143  1  0  0  0
 64144  1  0  0  0
 65145  1  0  0  0
 68 81  1  0  0  0
 71146  1  0  0  0
 71147  1  0  0  0
 71148  1  0  0  0
 71 82  1  0  0  0
 72 82  1  0  0  0
 72149  1  0  0  0
 72150  1  0  0  0
 72151  1  0  0  0
 73152  1  0  0  0
 73153  1  0  0  0
 73154  1  0  0  0
 73 83  1  0  0  0
 74 83  1  0  0  0
 74155  1  0  0  0
 74156  1  0  0  0
 74157  1  0  0  0
 75158  1  0  0  0
 75159  1  0  0  0
 75160  1  0  0  0
 75 84  1  0  0  0
 76 79  1  0  0  0
 76 81  1  0  0  0
 76161  1  0  0  0
 76162  1  0  0  0
 77 80  1  0  0  0
 77 82  1  0  0  0
 77163  1  0  0  0
 77164  1  0  0  0
 78 84  1  0  0  0
 78 85  1  0  0  0
 78165  1  0  0  0
 78166  1  0  0  0
 79167  1  0  0  0
 79168  1  0  0  0
 79 86  1  0  0  0
 80 86  1  0  0  0
 80169  1  0  0  0
 80170  1  0  0  0
 81171  1  0  0  0
 81172  1  0  0  0
 82173  1  0  0  0
 83 85  1  0  0  0
 83174  1  0  0  0
 84 86  1  0  0  0
 84175  1  0  0  0
 86176  1  0  0  0
M  CHG  1  86   1
M  ISO  4   1 100  68 101  81 101  85 100
M  END
> <chiral flag>
0

> <version>
0

> <s_m_source_file>
/data/baiqing/PycharmProjects/Reinvent-master-3.2/result/LINK_invent/BTK/process_docking_weight1_custom_sum_contain_oxygen_bond_distance_aromatic_linkinvent_7_9_3/rearranged_h_0052.sdf

> <i_m_source_file_index>
39

> <r_mmod_Potential_Energy-OPLS-2005>
772.873046875

> <r_mmod_Stretch_Energy-OPLS-2005>
316.740692138672

> <r_mmod_Bend_Energy-OPLS-2005>
341.267639160156

> <r_mmod_Torsional_Energy-OPLS-2005>
371.428375244141

> <r_mmod_Improper_Torsional_Energy-OPLS-2005>
2.34295463562012

> <r_mmod_Van_der_Waal_Energy-OPLS-2005>
106.561050415039

> <r_mmod_Electrostatic_Energy-OPLS-2005>
-132.798324584961

> <r_mmod_Solvation_Energy-OPLS-2005>
-421.418304443359

> <b_mmod_Minimization_Converged-OPLS-2005>
0

> <r_mmod_RMS_Derivative-OPLS-2005>
3.45261740684509

$$$$
39
                    3D
 Structure written by MMmdl.
167176  0  0  1  0            999 V2000
  -30.5760  -15.0002   20.3288 C   0  0  0  0  0  0
  -30.4306  -12.6094   19.4959 C   0  0  0  0  0  0
  -29.5195  -12.4741   18.2553 C   0  0  0  0  0  0
  -28.0517  -12.2705   18.6776 C   0  0  0  0  0  0
  -27.6108  -13.2335   19.8094 C   0  0  2  0  0  0
  -28.6587  -13.3711   20.9303 C   0  0  0  0  0  0
  -25.2447  -13.8162   20.5754 C   0  0  0  0  0  0
  -24.1754  -13.0406   20.9266 C   0  0  0  0  0  0
  -24.6356  -11.6890   20.8787 C   0  0  0  0  0  0
  -23.9048  -10.4276   21.0429 C   0  0  0  0  0  0
  -24.3609   -9.4191   21.9193 C   0  0  0  0  0  0
  -23.6294   -8.2226   22.0747 C   0  0  0  0  0  0
  -22.4280   -8.0263   21.3532 C   0  0  0  0  0  0
  -21.9909   -9.0237   20.4639 C   0  0  0  0  0  0
  -22.7231  -10.2123   20.3062 C   0  0  0  0  0  0
  -21.6849   -6.0731   22.5281 C   0  0  0  0  0  0
  -21.4006   -6.5634   23.8213 C   0  0  0  0  0  0
  -21.3668   -5.6789   24.9177 C   0  0  0  0  0  0
  -21.6051   -4.3052   24.7224 C   0  0  0  0  0  0
  -21.8821   -3.8141   23.4345 C   0  0  0  0  0  0
  -21.9185   -4.6959   22.3403 C   0  0  0  0  0  0
  -22.7785  -13.5201   21.1908 C   0  0  0  0  0  0
  -22.1653   -4.2144   21.0982 F   0  0  0  0  0  0
  -21.5635   -3.4537   25.7736 F   0  0  0  0  0  0
  -29.9293  -13.7584   20.3057 N   0  0  0  0  0  0
  -26.2819  -12.9346   20.3215 N   0  0  0  0  0  0
  -25.9276  -11.6502   20.5760 N   0  0  0  0  0  0
  -22.0415  -12.8203   22.0461 N   0  0  0  0  0  0
  -25.4158  -15.1889   20.4214 N   0  0  0  0  0  0
  -31.8077  -14.9040   20.3341 O   0  0  0  0  0  0
  -21.6630   -6.8867   21.4240 O   0  0  0  0  0  0
  -22.3488  -14.5508   20.6739 O   0  0  0  0  0  0
  -24.6444  -31.8426   23.1864 C   0  0  0  0  0  0
  -25.9211  -32.4689   23.8256 C   0  0  1  0  0  0
  -27.2164  -27.1280   20.1597 C   0  0  0  0  0  0
  -25.5957  -33.8494   24.2181 N   0  0  0  0  0  0
  -23.4487  -30.4607   21.5323 C   0  0  2  0  0  0
  -24.8966  -28.8780   20.1163 C   0  0  0  0  0  0
  -22.7565  -29.4543   22.4862 C   0  0  0  0  0  0
  -18.0306  -28.1406   22.8473 C   0  0  0  0  0  0
  -24.1493  -36.7253   23.2644 C   0  0  0  0  0  0
  -26.0034  -30.7141   21.3844 C   0  0  0  0  0  0
  -26.0743  -29.3222   20.7313 C   0  0  0  0  0  0
  -27.2379  -28.4650   20.7295 C   0  0  0  0  0  0
  -26.0137  -26.7792   19.5130 C   0  0  0  0  0  0
  -24.8781  -27.6199   19.4926 C   0  0  0  0  0  0
  -23.6763  -29.7851   20.1538 C   0  0  0  0  0  0
  -25.4126  -36.3026   24.0314 C   0  0  1  0  0  0
  -20.5913  -28.3731   23.1242 C   0  0  2  0  0  0
  -20.6791  -26.9440   22.5403 C   0  0  0  0  0  0
  -19.5766  -26.6394   21.5216 C   0  0  0  0  0  0
  -18.1949  -26.7944   22.1630 C   0  0  0  0  0  0
  -19.1560  -28.8887   23.2855 C   0  0  0  0  0  0
  -18.9476  -30.1479   23.8882 C   0  0  0  0  0  0
  -17.6476  -30.6600   24.0561 C   0  0  0  0  0  0
  -25.9074  -34.9407   23.5056 C   0  0  0  0  0  0
  -16.5365  -29.9093   23.6334 C   0  0  0  0  0  0
  -16.7293  -28.6515   23.0354 C   0  0  0  0  0  0
  -26.4527  -31.6557   25.0703 C   0  0  0  0  0  0
  -25.3712  -31.3756   26.1397 C   0  0  0  0  0  0
  -27.0385  -30.2950   24.6287 C   0  0  0  0  0  0
  -27.6055  -32.4322   25.7499 C   0  0  0  0  0  0
  -27.5578  -37.1784   24.8465 C   0  0  0  0  0  0
  -21.4256  -29.3062   22.3611 N   0  0  0  0  0  0
  -26.4287  -37.3745   23.9409 N   0  0  0  0  0  0
  -24.7190  -31.0280   22.0895 N   0  0  0  0  0  0
  -23.4194  -28.8096   23.3028 O   0  0  0  0  0  0
  -28.2863  -26.1624   20.1577 O   0  0  0  0  0  0
  -26.5663  -34.8902   22.4637 O   0  0  0  0  0  0
  -23.5570  -32.1295   23.7094 O   0  0  0  0  0  0
  -26.8510  -22.3117   15.9948 C   0  0  0  0  0  0
  -25.6057  -22.4525   16.6300 C   0  0  0  0  0  0
  -27.8303  -21.5191   16.6162 C   0  0  0  0  0  0
  -25.3880  -21.7929   17.8503 C   0  0  0  0  0  0
  -29.3880  -21.5023   21.7415 C   0  0  0  0  0  0
  -27.5301  -20.8999   17.8446 C   0  0  0  0  0  0
  -28.9642  -21.7801   20.4622 C   0  0  0  0  0  0
  -29.3512  -19.4149   20.7859 C   0  0  0  0  0  0
  -31.1693  -17.2299   19.1492 C   0  0  0  0  0  0
  -28.9191  -16.3226   18.7735 C   0  0  0  0  0  0
  -28.5629  -20.0269   18.5342 C   0  0  0  0  0  0
  -28.7285  -23.2797   19.8023 C   0  0  0  0  0  0
  -29.4000  -17.7468   20.8887 C   0  0  0  0  0  0
  -28.1074  -24.6604   20.5588 C   0  0  0  0  0  0
  -29.9835  -16.5353   19.8732 C   0  0  0  0  0  0
  -26.3273  -21.0285   18.4497 N   0  0  0  0  0  0
  -28.9327  -20.4274   19.9043 N   0  0  0  0  0  0
  -29.6017  -20.1407   21.8905 N   0  3  0  0  0  0
  -31.4635  -12.7534   19.1746 H   0  0  0  0  0  0
  -30.4259  -11.6899   20.0844 H   0  0  0  0  0  0
  -29.8483  -11.6340   17.6418 H   0  0  0  0  0  0
  -29.6136  -13.3561   17.6227 H   0  0  0  0  0  0
  -27.9565  -11.2395   19.0202 H   0  0  0  0  0  0
  -27.3905  -12.3660   17.8153 H   0  0  0  0  0  0
  -27.5201  -14.1953   19.3231 H   0  0  0  0  0  0
  -28.7619  -12.4434   21.4949 H   0  0  0  0  0  0
  -28.3502  -14.1379   21.6425 H   0  0  0  0  0  0
  -25.2747   -9.5674   22.4778 H   0  0  0  0  0  0
  -23.9997   -7.4620   22.7474 H   0  0  0  0  0  0
  -21.0829   -8.8766   19.8956 H   0  0  0  0  0  0
  -22.3683  -10.9668   19.6184 H   0  0  0  0  0  0
  -21.1995   -7.6141   23.9717 H   0  0  0  0  0  0
  -21.1495   -6.0515   25.9083 H   0  0  0  0  0  0
  -22.0593   -2.7601   23.2843 H   0  0  0  0  0  0
  -22.4007  -11.9866   22.4869 H   0  0  0  0  0  0
  -21.1033  -13.1240   22.2643 H   0  0  0  0  0  0
  -24.6522  -15.8451   20.5452 H   0  0  0  0  0  0
  -26.2706  -15.6292   20.1104 H   0  0  0  0  0  0
  -26.7270  -32.5281   23.0979 H   0  0  0  0  0  0
  -25.0071  -33.9595   25.0305 H   0  0  0  0  0  0
  -22.7525  -31.2868   21.3737 H   0  0  0  0  0  0
  -23.3755  -35.9586   23.3294 H   0  0  0  0  0  0
  -24.3578  -36.8899   22.2062 H   0  0  0  0  0  0
  -23.7244  -37.6446   23.6683 H   0  0  0  0  0  0
  -26.1586  -31.4660   20.6087 H   0  0  0  0  0  0
  -26.8734  -30.7657   22.0269 H   0  0  0  0  0  0
  -28.1418  -28.8059   21.2132 H   0  0  0  0  0  0
  -25.9417  -25.8181   19.0227 H   0  0  0  0  0  0
  -23.9794  -27.2766   18.9996 H   0  0  0  0  0  0
  -23.8215  -30.5560   19.3960 H   0  0  0  0  0  0
  -22.7888  -29.2318   19.8418 H   0  0  0  0  0  0
  -25.1323  -36.1850   25.0807 H   0  0  0  0  0  0
  -21.0007  -28.3324   24.1363 H   0  0  0  0  0  0
  -20.5690  -26.2356   23.3622 H   0  0  0  0  0  0
  -21.6659  -26.7452   22.1200 H   0  0  0  0  0  0
  -19.6933  -25.6298   21.1270 H   0  0  0  0  0  0
  -19.6706  -27.3177   20.6723 H   0  0  0  0  0  0
  -17.4220  -26.6685   21.4033 H   0  0  0  0  0  0
  -18.0346  -26.0095   22.9033 H   0  0  0  0  0  0
  -19.7950  -30.7298   24.2253 H   0  0  0  0  0  0
  -17.5028  -31.6273   24.5170 H   0  0  0  0  0  0
  -15.5363  -30.2993   23.7669 H   0  0  0  0  0  0
  -15.8691  -28.0826   22.7080 H   0  0  0  0  0  0
  -24.5895  -30.7099   25.7723 H   0  0  0  0  0  0
  -24.8892  -32.2942   26.4754 H   0  0  0  0  0  0
  -25.7986  -30.8975   27.0222 H   0  0  0  0  0  0
  -26.2991  -29.6671   24.1298 H   0  0  0  0  0  0
  -27.3997  -29.7255   25.4861 H   0  0  0  0  0  0
  -27.8906  -30.4185   23.9599 H   0  0  0  0  0  0
  -27.2643  -33.3642   26.2018 H   0  0  0  0  0  0
  -28.3899  -32.6849   25.0354 H   0  0  0  0  0  0
  -28.0678  -31.8483   26.5467 H   0  0  0  0  0  0
  -28.2582  -38.0093   24.7510 H   0  0  0  0  0  0
  -28.1083  -36.2618   24.6290 H   0  0  0  0  0  0
  -27.2297  -37.1435   25.8869 H   0  0  0  0  0  0
  -20.9469  -29.8762   21.6772 H   0  0  0  0  0  0
  -26.0151  -38.2816   24.1404 H   0  0  0  0  0  0
  -27.0512  -22.7973   15.0503 H   0  0  0  0  0  0
  -24.8252  -23.0560   16.1871 H   0  0  0  0  0  0
  -28.7977  -21.3908   16.1481 H   0  0  0  0  0  0
  -24.4393  -21.8815   18.3591 H   0  0  0  0  0  0
  -29.5780  -22.1834   22.5597 H   0  0  0  0  0  0
  -30.8787  -18.1608   18.6648 H   0  0  0  0  0  0
  -31.5987  -16.5958   18.3712 H   0  0  0  0  0  0
  -31.9694  -17.4764   19.8484 H   0  0  0  0  0  0
  -28.9409  -17.1017   18.0145 H   0  0  0  0  0  0
  -27.9114  -16.3182   19.1838 H   0  0  0  0  0  0
  -29.0726  -15.4006   18.2192 H   0  0  0  0  0  0
  -29.4784  -19.9729   17.9441 H   0  0  0  0  0  0
  -28.1411  -19.0268   18.5815 H   0  0  0  0  0  0
  -28.1468  -23.1649   18.8934 H   0  0  0  0  0  0
  -29.7141  -23.5724   19.4424 H   0  0  0  0  0  0
  -28.3732  -17.4862   21.1441 H   0  0  0  0  0  0
  -29.9383  -17.5849   21.8230 H   0  0  0  0  0  0
  -28.5168  -24.6348   21.5683 H   0  0  0  0  0  0
  -27.0433  -24.4799   20.7087 H   0  0  0  0  0  0
  -29.9051  -19.7323   22.7665 H   0  0  0  0  0  0
  1 25  1  0  0  0
  1 30  2  0  0  0
  1 85  1  0  0  0
  2  3  1  0  0  0
  2 25  1  0  0  0
  2 89  1  0  0  0
  2 90  1  0  0  0
  3  4  1  0  0  0
  3 91  1  0  0  0
  3 92  1  0  0  0
  4  5  1  0  0  0
  4 93  1  0  0  0
  4 94  1  0  0  0
  5  6  1  0  0  0
  5 26  1  0  0  0
  5 95  1  0  0  0
  6 25  1  0  0  0
  6 96  1  0  0  0
  6 97  1  0  0  0
  7  8  2  0  0  0
  7 26  1  0  0  0
  7 29  1  0  0  0
  8  9  1  0  0  0
  8 22  1  0  0  0
  9 10  1  0  0  0
  9 27  2  0  0  0
 10 11  2  0  0  0
 10 15  1  0  0  0
 11 12  1  0  0  0
 11 98  1  0  0  0
 12 13  2  0  0  0
 12 99  1  0  0  0
 13 14  1  0  0  0
 13 31  1  0  0  0
 14 15  2  0  0  0
 14100  1  0  0  0
 15101  1  0  0  0
 16 17  2  0  0  0
 16 21  1  0  0  0
 16 31  1  0  0  0
 17 18  1  0  0  0
 17102  1  0  0  0
 18 19  2  0  0  0
 18103  1  0  0  0
 19 20  1  0  0  0
 19 24  1  0  0  0
 20 21  2  0  0  0
 20104  1  0  0  0
 21 23  1  0  0  0
 22 28  1  0  0  0
 22 32  2  0  0  0
 26 27  1  0  0  0
 28105  1  0  0  0
 28106  1  0  0  0
 29107  1  0  0  0
 29108  1  0  0  0
 33 34  1  0  0  0
 33 66  1  0  0  0
 33 70  2  0  0  0
 34 36  1  0  0  0
 34 59  1  0  0  0
 34109  1  0  0  0
 35 44  2  0  0  0
 35 45  1  0  0  0
 35 68  1  0  0  0
 36 56  1  0  0  0
 36110  1  0  0  0
 37 39  1  0  0  0
 37 47  1  0  0  0
 37 66  1  0  0  0
 37111  1  0  0  0
 38 43  2  0  0  0
 38 46  1  0  0  0
 38 47  1  0  0  0
 39 64  1  0  0  0
 39 67  2  0  0  0
 40 52  1  0  0  0
 40 53  2  0  0  0
 40 58  1  0  0  0
 41112  1  0  0  0
 41113  1  0  0  0
 41114  1  0  0  0
 41 48  1  0  0  0
 42 43  1  0  0  0
 42 66  1  0  0  0
 42115  1  0  0  0
 42116  1  0  0  0
 43 44  1  0  0  0
 44117  1  0  0  0
 45 46  2  0  0  0
 45118  1  0  0  0
 46119  1  0  0  0
 47120  1  0  0  0
 47121  1  0  0  0
 48 56  1  0  0  0
 48 65  1  0  0  0
 48122  1  0  0  0
 49 50  1  0  0  0
 49 53  1  0  0  0
 49 64  1  0  0  0
 49123  1  0  0  0
 50 51  1  0  0  0
 50124  1  0  0  0
 50125  1  0  0  0
 51 52  1  0  0  0
 51126  1  0  0  0
 51127  1  0  0  0
 52128  1  0  0  0
 52129  1  0  0  0
 53 54  1  0  0  0
 54 55  2  0  0  0
 54130  1  0  0  0
 55 57  1  0  0  0
 55131  1  0  0  0
 56 69  2  0  0  0
 57 58  2  0  0  0
 57132  1  0  0  0
 58133  1  0  0  0
 59 60  1  0  0  0
 59 61  1  0  0  0
 59 62  1  0  0  0
 60134  1  0  0  0
 60135  1  0  0  0
 60136  1  0  0  0
 61137  1  0  0  0
 61138  1  0  0  0
 61139  1  0  0  0
 62140  1  0  0  0
 62141  1  0  0  0
 62142  1  0  0  0
 63 65  1  0  0  0
 63143  1  0  0  0
 63144  1  0  0  0
 63145  1  0  0  0
 64146  1  0  0  0
 65147  1  0  0  0
 68 84  1  0  0  0
 71 72  2  0  0  0
 71 73  1  0  0  0
 71148  1  0  0  0
 72 74  1  0  0  0
 72149  1  0  0  0
 73 76  2  0  0  0
 73150  1  0  0  0
 74 86  2  0  0  0
 74151  1  0  0  0
 75 77  2  0  0  0
 75 88  1  0  0  0
 75152  1  0  0  0
 76 81  1  0  0  0
 76 86  1  0  0  0
 77 82  1  0  0  0
 77 87  1  0  0  0
 78 83  1  0  0  0
 78 87  1  0  0  0
 78 88  2  0  0  0
 79153  1  0  0  0
 79154  1  0  0  0
 79155  1  0  0  0
 79 85  1  0  0  0
 80 85  1  0  0  0
 80156  1  0  0  0
 80157  1  0  0  0
 80158  1  0  0  0
 81 87  1  0  0  0
 81159  1  0  0  0
 81160  1  0  0  0
 82 84  1  0  0  0
 82161  1  0  0  0
 82162  1  0  0  0
 83 85  1  0  0  0
 83163  1  0  0  0
 83164  1  0  0  0
 84165  1  0  0  0
 84166  1  0  0  0
 88167  1  0  0  0
M  CHG  1  88   1
M  ISO  4   1 100  68 101  84 101  85 100
M  END
> <chiral flag>
0

> <version>
0

> <s_m_source_file>
/data/baiqing/PycharmProjects/Reinvent-master-3.2/result/LINK_invent/BTK/process_docking_weight1_custom_sum_contain_oxygen_bond_distance_aromatic_linkinvent_7_9_3/rearranged_h_0052.sdf

> <i_m_source_file_index>
40

> <r_mmod_Potential_Energy-OPLS-2005>
486.917114257812

> <r_mmod_Stretch_Energy-OPLS-2005>
303.195892333984

> <r_mmod_Bend_Energy-OPLS-2005>
332.213745117188

> <r_mmod_Torsional_Energy-OPLS-2005>
257.457366943359

> <r_mmod_Improper_Torsional_Energy-OPLS-2005>
14.0231695175171

> <r_mmod_Van_der_Waal_Energy-OPLS-2005>
133.407196044922

> <r_mmod_Electrostatic_Energy-OPLS-2005>
-352.222045898438

> <r_mmod_Solvation_Energy-OPLS-2005>
-423.3798828125

> <b_mmod_Minimization_Converged-OPLS-2005>
0

> <r_mmod_RMS_Derivative-OPLS-2005>
1.53156411647797

$$$$
40
                    3D
 Structure written by MMmdl.
151159  0  0  1  0            999 V2000
  -30.5704  -14.8764   20.4807 C   0  0  0  0  0  0
  -30.4337  -12.5460   19.4964 C   0  0  0  0  0  0
  -29.5212  -12.5494   18.2473 C   0  0  0  0  0  0
  -28.0467  -12.3508   18.6499 C   0  0  0  0  0  0
  -27.6375  -13.2440   19.8514 C   0  0  2  0  0  0
  -28.6765  -13.1732   20.9861 C   0  0  0  0  0  0
  -25.2490  -13.8212   20.5701 C   0  0  0  0  0  0
  -24.1805  -13.0449   20.9204 C   0  0  0  0  0  0
  -24.6410  -11.6923   20.8730 C   0  0  0  0  0  0
  -23.9084  -10.4301   21.0394 C   0  0  0  0  0  0
  -24.3625   -9.4218   21.9172 C   0  0  0  0  0  0
  -23.6289   -8.2262   22.0748 C   0  0  0  0  0  0
  -22.4267   -8.0299   21.3540 C   0  0  0  0  0  0
  -21.9911   -9.0278   20.4646 C   0  0  0  0  0  0
  -22.7254  -10.2146   20.3039 C   0  0  0  0  0  0
  -21.6860   -6.0738   22.5281 C   0  0  0  0  0  0
  -21.4039   -6.5644   23.8220 C   0  0  0  0  0  0
  -21.3657   -5.6789   24.9178 C   0  0  0  0  0  0
  -21.6034   -4.3046   24.7227 C   0  0  0  0  0  0
  -21.8819   -3.8142   23.4347 C   0  0  0  0  0  0
  -21.9192   -4.6966   22.3405 C   0  0  0  0  0  0
  -22.7827  -13.5226   21.1870 C   0  0  0  0  0  0
  -22.1653   -4.2152   21.0981 F   0  0  0  0  0  0
  -21.5615   -3.4522   25.7729 F   0  0  0  0  0  0
  -29.9596  -13.6205   20.4186 N   0  0  0  0  0  0
  -26.2913  -12.9439   20.3248 N   0  0  0  0  0  0
  -25.9342  -11.6565   20.5720 N   0  0  0  0  0  0
  -22.0480  -12.8221   22.0426 N   0  0  0  0  0  0
  -25.4158  -15.1946   20.4198 N   0  0  0  0  0  0
  -31.7323  -14.9499   20.0612 O   0  0  0  0  0  0
  -21.6639   -6.8892   21.4244 O   0  0  0  0  0  0
  -22.3516  -14.5535   20.6725 O   0  0  0  0  0  0
  -24.6389  -31.8488   23.1907 C   0  0  0  0  0  0
  -25.9182  -32.4715   23.8289 C   0  0  1  0  0  0
  -27.2210  -27.1848   20.1512 C   0  0  0  0  0  0
  -25.5950  -33.8520   24.2204 N   0  0  0  0  0  0
  -23.4411  -30.4678   21.5352 C   0  0  2  0  0  0
  -24.8912  -28.9029   20.1083 C   0  0  0  0  0  0
  -22.7559  -29.4555   22.4873 C   0  0  0  0  0  0
  -18.0302  -28.1381   22.8476 C   0  0  0  0  0  0
  -24.1497  -36.7271   23.2642 C   0  0  0  0  0  0
  -25.9935  -30.7384   21.3840 C   0  0  0  0  0  0
  -26.0655  -29.3552   20.7231 C   0  0  0  0  0  0
  -27.2327  -28.5122   20.7263 C   0  0  0  0  0  0
  -26.0236  -26.8209   19.4977 C   0  0  0  0  0  0
  -24.8807  -27.6479   19.4796 C   0  0  0  0  0  0
  -23.6663  -29.8006   20.1524 C   0  0  0  0  0  0
  -25.4128  -36.3048   24.0315 C   0  0  1  0  0  0
  -20.5915  -28.3705   23.1246 C   0  0  2  0  0  0
  -20.6791  -26.9411   22.5407 C   0  0  0  0  0  0
  -19.5763  -26.6367   21.5216 C   0  0  0  0  0  0
  -18.1941  -26.7919   22.1622 C   0  0  0  0  0  0
  -19.1556  -28.8863   23.2852 C   0  0  0  0  0  0
  -18.9474  -30.1460   23.8871 C   0  0  0  0  0  0
  -17.6470  -30.6578   24.0557 C   0  0  0  0  0  0
  -25.9068  -34.9419   23.5065 C   0  0  0  0  0  0
  -16.5361  -29.9074   23.6332 C   0  0  0  0  0  0
  -16.7285  -28.6494   23.0350 C   0  0  0  0  0  0
  -26.4495  -31.6574   25.0725 C   0  0  0  0  0  0
  -25.3683  -31.3774   26.1426 C   0  0  0  0  0  0
  -27.0352  -30.2972   24.6294 C   0  0  0  0  0  0
  -27.6015  -32.4348   25.7518 C   0  0  0  0  0  0
  -27.5584  -37.1795   24.8452 C   0  0  0  0  0  0
  -21.4253  -29.3037   22.3622 N   0  0  0  0  0  0
  -26.4294  -37.3762   23.9399 N   0  0  0  0  0  0
  -24.7101  -31.0390   22.0916 N   0  0  0  0  0  0
  -23.4225  -28.8107   23.3010 O   0  0  0  0  0  0
  -28.2901  -26.2362   20.2362 O   0  0  0  0  0  0
  -26.5650  -34.8909   22.4640 O   0  0  0  0  0  0
  -23.5515  -32.1347   23.7148 O   0  0  0  0  0  0
  -30.0684  -21.3080   19.4495 C   0  0  0  0  0  0
  -28.6861  -19.6860   21.0772 C   0  0  0  0  0  0
  -29.1311  -21.9451   20.3252 C   0  0  0  0  0  0
  -29.6563  -19.0573   20.2137 C   0  0  0  0  0  0
  -29.1174  -16.1853   22.0176 C   0  0  0  0  0  0
  -29.1334  -23.5688   20.5715 C   0  0  0  0  0  0
  -30.0618  -17.4665   20.0342 C   0  0  0  0  0  0
  -28.0634  -24.7218   20.0513 C   0  0  0  0  0  0
  -28.4431  -21.0650   21.1382 N   0  0  0  0  0  0
  -30.3147  -19.9428   19.3929 N   0  0  0  0  0  0
  -29.8408  -16.0748   20.7385 N   0  0  0  0  0  0
  -31.4758  -12.6800   19.2024 H   0  0  0  0  0  0
  -30.3960  -11.5713   19.9854 H   0  0  0  0  0  0
  -29.8287  -11.7687   17.5504 H   0  0  0  0  0  0
  -29.6323  -13.4957   17.7159 H   0  0  0  0  0  0
  -27.9214  -11.3007   18.9140 H   0  0  0  0  0  0
  -27.3891  -12.5311   17.7983 H   0  0  0  0  0  0
  -27.6272  -14.2720   19.4852 H   0  0  0  0  0  0
  -28.7513  -12.1538   21.3693 H   0  0  0  0  0  0
  -28.3558  -13.7627   21.8379 H   0  0  0  0  0  0
  -25.2781   -9.5686   22.4732 H   0  0  0  0  0  0
  -23.9985   -7.4663   22.7477 H   0  0  0  0  0  0
  -21.0829   -8.8822   19.8967 H   0  0  0  0  0  0
  -22.3729  -10.9679   19.6129 H   0  0  0  0  0  0
  -21.2052   -7.6155   23.9730 H   0  0  0  0  0  0
  -21.1470   -6.0516   25.9085 H   0  0  0  0  0  0
  -22.0592   -2.7602   23.2846 H   0  0  0  0  0  0
  -22.4093  -11.9868   22.4780 H   0  0  0  0  0  0
  -21.1109  -13.1248   22.2656 H   0  0  0  0  0  0
  -24.6518  -15.8457   20.5647 H   0  0  0  0  0  0
  -26.2670  -15.6427   20.1057 H   0  0  0  0  0  0
  -26.7259  -32.5329   23.1032 H   0  0  0  0  0  0
  -25.0092  -33.9640   25.0346 H   0  0  0  0  0  0
  -22.7409  -31.2915   21.3831 H   0  0  0  0  0  0
  -23.3767  -35.9594   23.3279 H   0  0  0  0  0  0
  -24.3593  -36.8929   22.2063 H   0  0  0  0  0  0
  -23.7238  -37.6456   23.6694 H   0  0  0  0  0  0
  -26.1517  -31.5001   20.6190 H   0  0  0  0  0  0
  -26.8626  -30.7799   22.0289 H   0  0  0  0  0  0
  -28.1287  -28.8557   21.2249 H   0  0  0  0  0  0
  -25.9429  -25.8590   19.0141 H   0  0  0  0  0  0
  -23.9858  -27.2949   18.9864 H   0  0  0  0  0  0
  -23.8025  -30.5782   19.3997 H   0  0  0  0  0  0
  -22.7824  -29.2428   19.8382 H   0  0  0  0  0  0
  -25.1314  -36.1885   25.0809 H   0  0  0  0  0  0
  -21.0001  -28.3287   24.1371 H   0  0  0  0  0  0
  -20.5694  -26.2310   23.3623 H   0  0  0  0  0  0
  -21.6655  -26.7419   22.1195 H   0  0  0  0  0  0
  -19.6921  -25.6272   21.1260 H   0  0  0  0  0  0
  -19.6705  -27.3167   20.6740 H   0  0  0  0  0  0
  -17.4217  -26.6669   21.4022 H   0  0  0  0  0  0
  -18.0329  -26.0065   22.9020 H   0  0  0  0  0  0
  -19.7954  -30.7281   24.2230 H   0  0  0  0  0  0
  -17.5023  -31.6254   24.5164 H   0  0  0  0  0  0
  -15.5361  -30.2963   23.7664 H   0  0  0  0  0  0
  -15.8692  -28.0801   22.7076 H   0  0  0  0  0  0
  -24.5838  -30.7148   25.7753 H   0  0  0  0  0  0
  -24.8902  -32.2967   26.4823 H   0  0  0  0  0  0
  -25.7965  -30.8959   27.0229 H   0  0  0  0  0  0
  -26.2961  -29.6706   24.1293 H   0  0  0  0  0  0
  -27.3952  -29.7259   25.4862 H   0  0  0  0  0  0
  -27.8875  -30.4203   23.9610 H   0  0  0  0  0  0
  -27.2576  -33.3647   26.2067 H   0  0  0  0  0  0
  -28.3844  -32.6926   25.0371 H   0  0  0  0  0  0
  -28.0667  -31.8508   26.5472 H   0  0  0  0  0  0
  -28.2565  -38.0125   24.7529 H   0  0  0  0  0  0
  -28.1113  -36.2653   24.6240 H   0  0  0  0  0  0
  -27.2300  -37.1391   25.8853 H   0  0  0  0  0  0
  -20.9458  -29.8770   21.6823 H   0  0  0  0  0  0
  -26.0159  -38.2827   24.1420 H   0  0  0  0  0  0
  -30.6947  -21.9191   18.8161 H   0  0  0  0  0  0
  -28.0868  -19.0792   21.7387 H   0  0  0  0  0  0
  -29.2925  -17.1415   22.5099 H   0  0  0  0  0  0
  -29.4357  -15.4296   22.7371 H   0  0  0  0  0  0
  -28.0427  -16.0830   21.8648 H   0  0  0  0  0  0
  -30.1016  -23.8965   20.1933 H   0  0  0  0  0  0
  -29.2225  -23.6989   21.6498 H   0  0  0  0  0  0
  -30.6794  -17.7067   20.9008 H   0  0  0  0  0  0
  -28.9786  -17.4185   19.9163 H   0  0  0  0  0  0
  -27.1004  -24.4762   20.5016 H   0  0  0  0  0  0
  -27.9362  -24.5732   18.9792 H   0  0  0  0  0  0
  1 25  1  0  0  0
  1 30  2  0  0  0
  1 81  1  0  0  0
  2  3  1  0  0  0
  2 25  1  0  0  0
  2 82  1  0  0  0
  2 83  1  0  0  0
  3  4  1  0  0  0
  3 84  1  0  0  0
  3 85  1  0  0  0
  4  5  1  0  0  0
  4 86  1  0  0  0
  4 87  1  0  0  0
  5  6  1  0  0  0
  5 26  1  0  0  0
  5 88  1  0  0  0
  6 25  1  0  0  0
  6 89  1  0  0  0
  6 90  1  0  0  0
  7  8  2  0  0  0
  7 26  1  0  0  0
  7 29  1  0  0  0
  8  9  1  0  0  0
  8 22  1  0  0  0
  9 10  1  0  0  0
  9 27  2  0  0  0
 10 11  2  0  0  0
 10 15  1  0  0  0
 11 12  1  0  0  0
 11 91  1  0  0  0
 12 13  2  0  0  0
 12 92  1  0  0  0
 13 14  1  0  0  0
 13 31  1  0  0  0
 14 15  2  0  0  0
 14 93  1  0  0  0
 15 94  1  0  0  0
 16 17  2  0  0  0
 16 21  1  0  0  0
 16 31  1  0  0  0
 17 18  1  0  0  0
 17 95  1  0  0  0
 18 19  2  0  0  0
 18 96  1  0  0  0
 19 20  1  0  0  0
 19 24  1  0  0  0
 20 21  2  0  0  0
 20 97  1  0  0  0
 21 23  1  0  0  0
 22 28  1  0  0  0
 22 32  2  0  0  0
 26 27  1  0  0  0
 28 98  1  0  0  0
 28 99  1  0  0  0
 29100  1  0  0  0
 29101  1  0  0  0
 33 34  1  0  0  0
 33 66  1  0  0  0
 33 70  2  0  0  0
 34 36  1  0  0  0
 34 59  1  0  0  0
 34102  1  0  0  0
 35 44  2  0  0  0
 35 45  1  0  0  0
 35 68  1  0  0  0
 36 56  1  0  0  0
 36103  1  0  0  0
 37 39  1  0  0  0
 37 47  1  0  0  0
 37 66  1  0  0  0
 37104  1  0  0  0
 38 43  2  0  0  0
 38 46  1  0  0  0
 38 47  1  0  0  0
 39 64  1  0  0  0
 39 67  2  0  0  0
 40 52  1  0  0  0
 40 53  2  0  0  0
 40 58  1  0  0  0
 41105  1  0  0  0
 41106  1  0  0  0
 41107  1  0  0  0
 41 48  1  0  0  0
 42 43  1  0  0  0
 42 66  1  0  0  0
 42108  1  0  0  0
 42109  1  0  0  0
 43 44  1  0  0  0
 44110  1  0  0  0
 45 46  2  0  0  0
 45111  1  0  0  0
 46112  1  0  0  0
 47113  1  0  0  0
 47114  1  0  0  0
 48 56  1  0  0  0
 48 65  1  0  0  0
 48115  1  0  0  0
 49 50  1  0  0  0
 49 53  1  0  0  0
 49 64  1  0  0  0
 49116  1  0  0  0
 50 51  1  0  0  0
 50117  1  0  0  0
 50118  1  0  0  0
 51 52  1  0  0  0
 51119  1  0  0  0
 51120  1  0  0  0
 52121  1  0  0  0
 52122  1  0  0  0
 53 54  1  0  0  0
 54 55  2  0  0  0
 54123  1  0  0  0
 55 57  1  0  0  0
 55124  1  0  0  0
 56 69  2  0  0  0
 57 58  2  0  0  0
 57125  1  0  0  0
 58126  1  0  0  0
 59 60  1  0  0  0
 59 61  1  0  0  0
 59 62  1  0  0  0
 60127  1  0  0  0
 60128  1  0  0  0
 60129  1  0  0  0
 61130  1  0  0  0
 61131  1  0  0  0
 61132  1  0  0  0
 62133  1  0  0  0
 62134  1  0  0  0
 62135  1  0  0  0
 63 65  1  0  0  0
 63136  1  0  0  0
 63137  1  0  0  0
 63138  1  0  0  0
 64139  1  0  0  0
 65140  1  0  0  0
 68 78  1  0  0  0
 71 73  2  0  0  0
 71 80  1  0  0  0
 71141  1  0  0  0
 72 74  1  0  0  0
 72 79  2  0  0  0
 72142  1  0  0  0
 73 76  1  0  0  0
 73 79  1  0  0  0
 74 77  1  0  0  0
 74 80  2  0  0  0
 75 81  1  0  0  0
 75143  1  0  0  0
 75144  1  0  0  0
 75145  1  0  0  0
 76 78  1  0  0  0
 76146  1  0  0  0
 76147  1  0  0  0
 77 81  1  0  0  0
 77148  1  0  0  0
 77149  1  0  0  0
 78150  1  0  0  0
 78151  1  0  0  0
M  ISO  4   1 100  68 101  78 101  81 100
M  END
> <chiral flag>
0

> <version>
0

> <s_m_source_file>
/data/baiqing/PycharmProjects/Reinvent-master-3.2/result/LINK_invent/BTK/process_docking_weight1_custom_sum_contain_oxygen_bond_distance_aromatic_linkinvent_7_9_3/rearranged_h_0052.sdf

> <i_m_source_file_index>
41

> <r_mmod_Potential_Energy-OPLS-2005>
726.471252441406

> <r_mmod_Stretch_Energy-OPLS-2005>
213.810546875

> <r_mmod_Bend_Energy-OPLS-2005>
446.151306152344

> <r_mmod_Torsional_Energy-OPLS-2005>
245.261978149414

> <r_mmod_Improper_Torsional_Energy-OPLS-2005>
9.06958675384521

> <r_mmod_Van_der_Waal_Energy-OPLS-2005>
146.932205200195

> <r_mmod_Electrostatic_Energy-OPLS-2005>
-251.798492431641

> <r_mmod_Solvation_Energy-OPLS-2005>
-224.612686157227

> <b_mmod_Minimization_Converged-OPLS-2005>
0

> <r_mmod_RMS_Derivative-OPLS-2005>
1.98628091812134

$$$$
41
                    3D
 Structure written by MMmdl.
166174  0  0  1  0            999 V2000
  -30.6832  -14.5750   20.4786 C   0  0  0  0  0  0
  -30.4242  -12.3370   19.4500 C   0  0  0  0  0  0
  -29.4996  -12.4365   18.2182 C   0  0  0  0  0  0
  -28.0171  -12.3224   18.6277 C   0  0  0  0  0  0
  -27.6446  -13.2025   19.8537 C   0  0  2  0  0  0
  -28.6954  -13.0895   20.9793 C   0  0  0  0  0  0
  -25.2452  -13.8032   20.5707 C   0  0  0  0  0  0
  -24.1737  -13.0317   20.9219 C   0  0  0  0  0  0
  -24.6345  -11.6814   20.8771 C   0  0  0  0  0  0
  -23.9038  -10.4212   21.0415 C   0  0  0  0  0  0
  -24.3591   -9.4135   21.9193 C   0  0  0  0  0  0
  -23.6241   -8.2196   22.0769 C   0  0  0  0  0  0
  -22.4226   -8.0244   21.3560 C   0  0  0  0  0  0
  -21.9875   -9.0210   20.4652 C   0  0  0  0  0  0
  -22.7214  -10.2075   20.3049 C   0  0  0  0  0  0
  -21.6835   -6.0704   22.5293 C   0  0  0  0  0  0
  -21.4010   -6.5601   23.8221 C   0  0  0  0  0  0
  -21.3649   -5.6765   24.9182 C   0  0  0  0  0  0
  -21.6038   -4.3028   24.7258 C   0  0  0  0  0  0
  -21.8815   -3.8121   23.4379 C   0  0  0  0  0  0
  -21.9182   -4.6932   22.3427 C   0  0  0  0  0  0
  -22.7761  -13.5123   21.1878 C   0  0  0  0  0  0
  -22.1644   -4.2102   21.1011 F   0  0  0  0  0  0
  -21.5619   -3.4514   25.7777 F   0  0  0  0  0  0
  -30.0134  -13.3856   20.3998 N   0  0  0  0  0  0
  -26.2929  -12.9261   20.3328 N   0  0  0  0  0  0
  -25.9279  -11.6431   20.5829 N   0  0  0  0  0  0
  -22.0403  -12.8136   22.0467 N   0  0  0  0  0  0
  -25.3989  -15.1743   20.4144 N   0  0  0  0  0  0
  -31.8788  -14.6630   20.1858 O   0  0  0  0  0  0
  -21.6607   -6.8840   21.4250 O   0  0  0  0  0  0
  -22.3468  -14.5451   20.6739 O   0  0  0  0  0  0
  -24.6191  -31.8654   23.2068 C   0  0  0  0  0  0
  -25.9086  -32.4791   23.8361 C   0  0  1  0  0  0
  -27.2246  -27.3786   20.1105 C   0  0  0  0  0  0
  -25.5956  -33.8589   24.2318 N   0  0  0  0  0  0
  -23.4077  -30.4916   21.5471 C   0  0  2  0  0  0
  -24.8517  -28.9484   20.1139 C   0  0  0  0  0  0
  -22.7424  -29.4658   22.4932 C   0  0  0  0  0  0
  -18.0293  -28.1410   22.8477 C   0  0  0  0  0  0
  -24.1483  -36.7232   23.2634 C   0  0  0  0  0  0
  -25.9412  -30.8151   21.3689 C   0  0  0  0  0  0
  -26.0145  -29.4469   20.7106 C   0  0  0  0  0  0
  -27.2013  -28.6726   20.6984 C   0  0  0  0  0  0
  -26.0339  -26.8990   19.5183 C   0  0  0  0  0  0
  -24.8593  -27.6777   19.5142 C   0  0  0  0  0  0
  -23.6203  -29.8263   20.1603 C   0  0  0  0  0  0
  -25.4108  -36.3073   24.0338 C   0  0  1  0  0  0
  -20.5882  -28.3711   23.1282 C   0  0  2  0  0  0
  -20.6780  -26.9439   22.5408 C   0  0  0  0  0  0
  -19.5760  -26.6417   21.5207 C   0  0  0  0  0  0
  -18.1943  -26.7954   22.1620 C   0  0  0  0  0  0
  -19.1544  -28.8878   23.2876 C   0  0  0  0  0  0
  -18.9458  -30.1465   23.8903 C   0  0  0  0  0  0
  -17.6465  -30.6610   24.0578 C   0  0  0  0  0  0
  -25.9052  -34.9450   23.5110 C   0  0  0  0  0  0
  -16.5356  -29.9104   23.6349 C   0  0  0  0  0  0
  -16.7275  -28.6527   23.0356 C   0  0  0  0  0  0
  -26.4520  -31.6579   25.0693 C   0  0  0  0  0  0
  -25.3780  -31.3692   26.1434 C   0  0  0  0  0  0
  -27.0346  -30.3015   24.6077 C   0  0  0  0  0  0
  -27.6096  -32.4289   25.7459 C   0  0  0  0  0  0
  -27.5573  -37.1769   24.8470 C   0  0  0  0  0  0
  -21.4155  -29.3057   22.3662 N   0  0  0  0  0  0
  -26.4274  -37.3782   23.9428 N   0  0  0  0  0  0
  -24.6729  -31.0731   22.0983 N   0  0  0  0  0  0
  -23.4178  -28.8192   23.2985 O   0  0  0  0  0  0
  -28.4018  -26.6423   20.1471 O   0  0  0  0  0  0
  -26.5589  -34.8914   22.4659 O   0  0  0  0  0  0
  -23.5379  -32.1428   23.7466 O   0  0  0  0  0  0
  -29.2092  -19.1051   21.5554 C   0  0  0  0  0  0
  -29.7118  -20.4248   21.4910 C   0  0  0  0  0  0
  -30.1297  -18.0305   21.5842 C   0  0  0  0  0  0
  -31.8384  -19.5588   21.5226 C   0  0  0  0  0  0
  -33.3281  -19.8258   21.5399 C   0  0  0  0  0  0
  -28.1501  -16.9497   19.1449 C   0  0  0  0  0  0
  -30.5951  -17.1560   18.4601 C   0  0  0  0  0  0
  -28.8351  -21.6918   21.6381 C   0  0  0  0  0  0
  -29.7113  -16.5450   21.6699 C   0  0  0  0  0  0
  -28.8580  -22.7389   20.4715 C   0  0  0  0  0  0
  -28.2603  -24.1602   20.8025 C   0  0  0  0  0  0
  -28.4822  -25.2582   19.7054 C   0  0  0  0  0  0
  -29.5256  -16.2673   19.1333 C   0  0  0  0  0  0
  -31.0429  -20.6242   21.4659 N   0  0  0  0  0  0
  -31.4522  -18.2871   21.5988 N   0  0  0  0  0  0
  -29.9056  -15.6982   20.4562 N   0  0  0  0  0  0
  -31.4670  -12.4346   19.1417 H   0  0  0  0  0  0
  -30.3406  -11.3546   19.9163 H   0  0  0  0  0  0
  -29.7476  -11.6475   17.5071 H   0  0  0  0  0  0
  -29.6706  -13.3731   17.6913 H   0  0  0  0  0  0
  -27.8227  -11.2729   18.8516 H   0  0  0  0  0  0
  -27.3762  -12.5685   17.7800 H   0  0  0  0  0  0
  -27.6501  -14.2260   19.4942 H   0  0  0  0  0  0
  -28.6881  -12.0873   21.4115 H   0  0  0  0  0  0
  -28.4574  -13.7768   21.7939 H   0  0  0  0  0  0
  -25.2744   -9.5582   22.4753 H   0  0  0  0  0  0
  -23.9931   -7.4575   22.7465 H   0  0  0  0  0  0
  -21.0825   -8.8728   19.8943 H   0  0  0  0  0  0
  -22.3695  -10.9610   19.6147 H   0  0  0  0  0  0
  -21.2028   -7.6116   23.9719 H   0  0  0  0  0  0
  -21.1461   -6.0501   25.9078 H   0  0  0  0  0  0
  -22.0617   -2.7587   23.2916 H   0  0  0  0  0  0
  -22.3999  -11.9780   22.4835 H   0  0  0  0  0  0
  -21.1059  -13.1201   22.2758 H   0  0  0  0  0  0
  -24.6290  -15.8226   20.5385 H   0  0  0  0  0  0
  -26.2538  -15.6241   20.1190 H   0  0  0  0  0  0
  -26.7129  -32.5508   23.1090 H   0  0  0  0  0  0
  -25.0209  -33.9735   25.0540 H   0  0  0  0  0  0
  -22.6974  -31.3086   21.4086 H   0  0  0  0  0  0
  -23.3786  -35.9532   23.3316 H   0  0  0  0  0  0
  -24.3561  -36.8814   22.2039 H   0  0  0  0  0  0
  -23.7204  -37.6429   23.6619 H   0  0  0  0  0  0
  -26.0701  -31.5850   20.6073 H   0  0  0  0  0  0
  -26.8214  -30.8598   21.9959 H   0  0  0  0  0  0
  -28.1003  -29.0537   21.1614 H   0  0  0  0  0  0
  -25.9789  -25.9229   19.0623 H   0  0  0  0  0  0
  -23.9614  -27.2851   19.0568 H   0  0  0  0  0  0
  -23.7450  -30.6049   19.4063 H   0  0  0  0  0  0
  -22.7391  -29.2599   19.8559 H   0  0  0  0  0  0
  -25.1301  -36.1912   25.0838 H   0  0  0  0  0  0
  -20.9988  -28.3325   24.1391 H   0  0  0  0  0  0
  -20.5713  -26.2320   23.3606 H   0  0  0  0  0  0
  -21.6646  -26.7502   22.1180 H   0  0  0  0  0  0
  -19.6916  -25.6337   21.1213 H   0  0  0  0  0  0
  -19.6691  -27.3242   20.6740 H   0  0  0  0  0  0
  -17.4205  -26.6704   21.4018 H   0  0  0  0  0  0
  -18.0334  -26.0101   22.9015 H   0  0  0  0  0  0
  -19.7942  -30.7276   24.2273 H   0  0  0  0  0  0
  -17.5035  -31.6284   24.5187 H   0  0  0  0  0  0
  -15.5357  -30.3017   23.7676 H   0  0  0  0  0  0
  -15.8670  -28.0846   22.7081 H   0  0  0  0  0  0
  -24.5979  -30.7001   25.7773 H   0  0  0  0  0  0
  -24.8949  -32.2852   26.4849 H   0  0  0  0  0  0
  -25.8159  -30.8896   27.0197 H   0  0  0  0  0  0
  -26.2880  -29.6750   24.1172 H   0  0  0  0  0  0
  -27.4160  -29.7276   25.4531 H   0  0  0  0  0  0
  -27.8705  -30.4315   23.9193 H   0  0  0  0  0  0
  -27.2739  -33.3600   26.2029 H   0  0  0  0  0  0
  -28.3930  -32.6816   25.0299 H   0  0  0  0  0  0
  -28.0728  -31.8399   26.5384 H   0  0  0  0  0  0
  -28.2597  -38.0063   24.7577 H   0  0  0  0  0  0
  -28.1068  -36.2610   24.6255 H   0  0  0  0  0  0
  -27.2278  -37.1370   25.8866 H   0  0  0  0  0  0
  -20.9328  -29.8716   21.6819 H   0  0  0  0  0  0
  -26.0152  -38.2831   24.1531 H   0  0  0  0  0  0
  -28.1434  -18.9218   21.6095 H   0  0  0  0  0  0
  -33.5387  -20.8892   21.6466 H   0  0  0  0  0  0
  -33.7938  -19.4781   20.6187 H   0  0  0  0  0  0
  -33.7974  -19.3141   22.3787 H   0  0  0  0  0  0
  -27.6751  -16.8889   18.1629 H   0  0  0  0  0  0
  -28.2156  -18.0051   19.3947 H   0  0  0  0  0  0
  -27.4886  -16.4892   19.8651 H   0  0  0  0  0  0
  -30.2033  -17.5869   17.5382 H   0  0  0  0  0  0
  -31.4916  -16.5921   18.1979 H   0  0  0  0  0  0
  -30.9053  -18.0001   19.0704 H   0  0  0  0  0  0
  -29.1730  -22.1811   22.5532 H   0  0  0  0  0  0
  -27.8058  -21.3828   21.8333 H   0  0  0  0  0  0
  -30.2436  -16.0996   22.5117 H   0  0  0  0  0  0
  -28.6593  -16.4964   21.9534 H   0  0  0  0  0  0
  -28.3435  -22.3114   19.6093 H   0  0  0  0  0  0
  -29.8952  -22.8747   20.1622 H   0  0  0  0  0  0
  -28.7209  -24.5131   21.7244 H   0  0  0  0  0  0
  -27.1939  -24.0700   21.0185 H   0  0  0  0  0  0
  -27.8817  -25.0549   18.8193 H   0  0  0  0  0  0
  -29.5080  -25.1503   19.3548 H   0  0  0  0  0  0
  -29.4019  -15.4201   18.4601 H   0  0  0  0  0  0
  1 25  1  0  0  0
  1 30  2  0  0  0
  1 86  1  0  0  0
  2  3  1  0  0  0
  2 25  1  0  0  0
  2 87  1  0  0  0
  2 88  1  0  0  0
  3  4  1  0  0  0
  3 89  1  0  0  0
  3 90  1  0  0  0
  4  5  1  0  0  0
  4 91  1  0  0  0
  4 92  1  0  0  0
  5  6  1  0  0  0
  5 26  1  0  0  0
  5 93  1  0  0  0
  6 25  1  0  0  0
  6 94  1  0  0  0
  6 95  1  0  0  0
  7  8  2  0  0  0
  7 26  1  0  0  0
  7 29  1  0  0  0
  8  9  1  0  0  0
  8 22  1  0  0  0
  9 10  1  0  0  0
  9 27  2  0  0  0
 10 11  2  0  0  0
 10 15  1  0  0  0
 11 12  1  0  0  0
 11 96  1  0  0  0
 12 13  2  0  0  0
 12 97  1  0  0  0
 13 14  1  0  0  0
 13 31  1  0  0  0
 14 15  2  0  0  0
 14 98  1  0  0  0
 15 99  1  0  0  0
 16 17  2  0  0  0
 16 21  1  0  0  0
 16 31  1  0  0  0
 17 18  1  0  0  0
 17100  1  0  0  0
 18 19  2  0  0  0
 18101  1  0  0  0
 19 20  1  0  0  0
 19 24  1  0  0  0
 20 21  2  0  0  0
 20102  1  0  0  0
 21 23  1  0  0  0
 22 28  1  0  0  0
 22 32  2  0  0  0
 26 27  1  0  0  0
 28103  1  0  0  0
 28104  1  0  0  0
 29105  1  0  0  0
 29106  1  0  0  0
 33 34  1  0  0  0
 33 66  1  0  0  0
 33 70  2  0  0  0
 34 36  1  0  0  0
 34 59  1  0  0  0
 34107  1  0  0  0
 35 44  2  0  0  0
 35 45  1  0  0  0
 35 68  1  0  0  0
 36 56  1  0  0  0
 36108  1  0  0  0
 37 39  1  0  0  0
 37 47  1  0  0  0
 37 66  1  0  0  0
 37109  1  0  0  0
 38 43  2  0  0  0
 38 46  1  0  0  0
 38 47  1  0  0  0
 39 64  1  0  0  0
 39 67  2  0  0  0
 40 52  1  0  0  0
 40 53  2  0  0  0
 40 58  1  0  0  0
 41110  1  0  0  0
 41111  1  0  0  0
 41112  1  0  0  0
 41 48  1  0  0  0
 42 43  1  0  0  0
 42 66  1  0  0  0
 42113  1  0  0  0
 42114  1  0  0  0
 43 44  1  0  0  0
 44115  1  0  0  0
 45 46  2  0  0  0
 45116  1  0  0  0
 46117  1  0  0  0
 47118  1  0  0  0
 47119  1  0  0  0
 48 56  1  0  0  0
 48 65  1  0  0  0
 48120  1  0  0  0
 49 50  1  0  0  0
 49 53  1  0  0  0
 49 64  1  0  0  0
 49121  1  0  0  0
 50 51  1  0  0  0
 50122  1  0  0  0
 50123  1  0  0  0
 51 52  1  0  0  0
 51124  1  0  0  0
 51125  1  0  0  0
 52126  1  0  0  0
 52127  1  0  0  0
 53 54  1  0  0  0
 54 55  2  0  0  0
 54128  1  0  0  0
 55 57  1  0  0  0
 55129  1  0  0  0
 56 69  2  0  0  0
 57 58  2  0  0  0
 57130  1  0  0  0
 58131  1  0  0  0
 59 60  1  0  0  0
 59 61  1  0  0  0
 59 62  1  0  0  0
 60132  1  0  0  0
 60133  1  0  0  0
 60134  1  0  0  0
 61135  1  0  0  0
 61136  1  0  0  0
 61137  1  0  0  0
 62138  1  0  0  0
 62139  1  0  0  0
 62140  1  0  0  0
 63 65  1  0  0  0
 63141  1  0  0  0
 63142  1  0  0  0
 63143  1  0  0  0
 64144  1  0  0  0
 65145  1  0  0  0
 68 82  1  0  0  0
 71 72  2  0  0  0
 71 73  1  0  0  0
 71146  1  0  0  0
 72 78  1  0  0  0
 72 84  1  0  0  0
 73 79  1  0  0  0
 73 85  2  0  0  0
 74 75  1  0  0  0
 74 84  2  0  0  0
 74 85  1  0  0  0
 75147  1  0  0  0
 75148  1  0  0  0
 75149  1  0  0  0
 76150  1  0  0  0
 76151  1  0  0  0
 76152  1  0  0  0
 76 83  1  0  0  0
 77 83  1  0  0  0
 77153  1  0  0  0
 77154  1  0  0  0
 77155  1  0  0  0
 78 80  1  0  0  0
 78156  1  0  0  0
 78157  1  0  0  0
 79 86  1  0  0  0
 79158  1  0  0  0
 79159  1  0  0  0
 80 81  1  0  0  0
 80160  1  0  0  0
 80161  1  0  0  0
 81 82  1  0  0  0
 81162  1  0  0  0
 81163  1  0  0  0
 82164  1  0  0  0
 82165  1  0  0  0
 83 86  1  0  0  0
 83166  1  0  0  0
M  ISO  4   1 100  68 101  82 101  86 100
M  END
> <chiral flag>
0

> <version>
0

> <s_m_source_file>
/data/baiqing/PycharmProjects/Reinvent-master-3.2/result/LINK_invent/BTK/process_docking_weight1_custom_sum_contain_oxygen_bond_distance_aromatic_linkinvent_7_9_3/rearranged_h_0052.sdf

> <i_m_source_file_index>
42

> <r_mmod_Potential_Energy-OPLS-2005>
-307.342864990234

> <r_mmod_Stretch_Energy-OPLS-2005>
52.9201583862305

> <r_mmod_Bend_Energy-OPLS-2005>
126.802001953125

> <r_mmod_Torsional_Energy-OPLS-2005>
310.163513183594

> <r_mmod_Improper_Torsional_Energy-OPLS-2005>
13.731390953064

> <r_mmod_Van_der_Waal_Energy-OPLS-2005>
148.342834472656

> <r_mmod_Electrostatic_Energy-OPLS-2005>
-772.357666015625

> <r_mmod_Solvation_Energy-OPLS-2005>
-220.063919067383

> <b_mmod_Minimization_Converged-OPLS-2005>
0

> <r_mmod_RMS_Derivative-OPLS-2005>
4.6093168258667

$$$$
42
                    3D
 Structure written by MMmdl.
158166  0  0  1  0            999 V2000
  -30.6427  -14.5495   20.4784 C   0  0  0  0  0  0
  -30.4313  -12.3240   19.4532 C   0  0  0  0  0  0
  -29.5073  -12.4891   18.2257 C   0  0  0  0  0  0
  -28.0270  -12.3422   18.6316 C   0  0  0  0  0  0
  -27.6568  -13.2039   19.8685 C   0  0  2  0  0  0
  -28.6987  -13.0306   21.0001 C   0  0  0  0  0  0
  -25.2572  -13.8145   20.5669 C   0  0  0  0  0  0
  -24.1828  -13.0431   20.9190 C   0  0  0  0  0  0
  -24.6383  -11.6900   20.8748 C   0  0  0  0  0  0
  -23.9053  -10.4291   21.0418 C   0  0  0  0  0  0
  -24.3608   -9.4206   21.9193 C   0  0  0  0  0  0
  -23.6286   -8.2240   22.0758 C   0  0  0  0  0  0
  -22.4271   -8.0277   21.3547 C   0  0  0  0  0  0
  -21.9904   -9.0254   20.4651 C   0  0  0  0  0  0
  -22.7229  -10.2134   20.3063 C   0  0  0  0  0  0
  -21.6850   -6.0737   22.5283 C   0  0  0  0  0  0
  -21.4012   -6.5640   23.8215 C   0  0  0  0  0  0
  -21.3662   -5.6789   24.9179 C   0  0  0  0  0  0
  -21.6046   -4.3053   24.7224 C   0  0  0  0  0  0
  -21.8817   -3.8147   23.4343 C   0  0  0  0  0  0
  -21.9189   -4.6964   22.3403 C   0  0  0  0  0  0
  -22.7850  -13.5239   21.1845 C   0  0  0  0  0  0
  -22.1654   -4.2154   21.0978 F   0  0  0  0  0  0
  -21.5633   -3.4535   25.7736 F   0  0  0  0  0  0
  -30.0289  -13.3330   20.4473 N   0  0  0  0  0  0
  -26.2995  -12.9306   20.3323 N   0  0  0  0  0  0
  -25.9307  -11.6478   20.5763 N   0  0  0  0  0  0
  -22.0474  -12.8252   22.0401 N   0  0  0  0  0  0
  -25.4276  -15.1870   20.4067 N   0  0  0  0  0  0
  -31.8079  -14.7091   20.1068 O   0  0  0  0  0  0
  -21.6633   -6.8879   21.4242 O   0  0  0  0  0  0
  -22.3553  -14.5551   20.6689 O   0  0  0  0  0  0
  -24.6164  -31.8653   23.2069 C   0  0  0  0  0  0
  -25.9048  -32.4807   23.8374 C   0  0  1  0  0  0
  -27.2366  -27.4047   20.1011 C   0  0  0  0  0  0
  -25.5907  -33.8610   24.2304 N   0  0  0  0  0  0
  -23.4052  -30.4863   21.5486 C   0  0  2  0  0  0
  -24.8500  -28.9444   20.1134 C   0  0  0  0  0  0
  -22.7416  -29.4638   22.4990 C   0  0  0  0  0  0
  -18.0272  -28.1379   22.8491 C   0  0  0  0  0  0
  -24.1490  -36.7297   23.2638 C   0  0  0  0  0  0
  -25.9350  -30.8198   21.3640 C   0  0  0  0  0  0
  -26.0089  -29.4515   20.7112 C   0  0  0  0  0  0
  -27.1996  -28.6882   20.7015 C   0  0  0  0  0  0
  -26.0548  -26.9116   19.5029 C   0  0  0  0  0  0
  -24.8691  -27.6750   19.5075 C   0  0  0  0  0  0
  -23.6127  -29.8139   20.1643 C   0  0  0  0  0  0
  -25.4116  -36.3104   24.0334 C   0  0  1  0  0  0
  -20.5862  -28.3661   23.1318 C   0  0  2  0  0  0
  -20.6770  -26.9399   22.5418 C   0  0  0  0  0  0
  -19.5752  -26.6384   21.5214 C   0  0  0  0  0  0
  -18.1926  -26.7929   22.1619 C   0  0  0  0  0  0
  -19.1522  -28.8840   23.2900 C   0  0  0  0  0  0
  -18.9449  -30.1447   23.8907 C   0  0  0  0  0  0
  -17.6449  -30.6586   24.0564 C   0  0  0  0  0  0
  -25.9041  -34.9471   23.5115 C   0  0  0  0  0  0
  -16.5341  -29.9084   23.6334 C   0  0  0  0  0  0
  -16.7260  -28.6501   23.0354 C   0  0  0  0  0  0
  -26.4477  -31.6605   25.0716 C   0  0  0  0  0  0
  -25.3738  -31.3707   26.1457 C   0  0  0  0  0  0
  -27.0318  -30.3053   24.6105 C   0  0  0  0  0  0
  -27.6055  -32.4332   25.7469 C   0  0  0  0  0  0
  -27.5584  -37.1803   24.8466 C   0  0  0  0  0  0
  -21.4143  -29.3022   22.3723 N   0  0  0  0  0  0
  -26.4300  -37.3791   23.9405 N   0  0  0  0  0  0
  -24.6705  -31.0727   22.0983 N   0  0  0  0  0  0
  -23.4180  -28.8188   23.3048 O   0  0  0  0  0  0
  -28.4252  -26.6945   20.1439 O   0  0  0  0  0  0
  -26.5595  -34.8928   22.4672 O   0  0  0  0  0  0
  -23.5351  -32.1416   23.7455 O   0  0  0  0  0  0
  -28.9198  -19.2480   20.1410 C   0  0  0  0  0  0
  -29.7620  -18.1704   20.4879 C   0  0  0  0  0  0
  -29.2311  -20.5207   20.6480 C   0  0  0  0  0  0
  -31.0038  -19.5994   21.7706 C   0  0  0  0  0  0
  -32.1702  -19.7961   22.7149 C   0  0  0  0  0  0
  -30.4495  -16.8051   18.4847 C   0  0  0  0  0  0
  -28.1973  -24.1506   20.3445 C   0  0  0  0  0  0
  -28.5887  -25.4083   19.5070 C   0  0  0  0  0  0
  -29.0674  -22.8872   20.0344 C   0  0  0  0  0  0
  -29.6334  -16.8048   19.7946 C   0  0  2  0  0  0
  -30.8038  -18.3624   21.3181 N   0  0  0  0  0  0
  -30.2860  -20.6811   21.4679 N   0  0  0  0  0  0
  -29.7904  -15.5876   20.6383 N   0  0  0  0  0  0
  -28.4377  -21.6296   20.3704 O   0  0  0  0  0  0
  -31.4783  -12.4234   19.1594 H   0  0  0  0  0  0
  -30.3341  -11.3230   19.8768 H   0  0  0  0  0  0
  -29.7604  -11.7492   17.4654 H   0  0  0  0  0  0
  -29.6675  -13.4655   17.7671 H   0  0  0  0  0  0
  -27.8518  -11.2884   18.8510 H   0  0  0  0  0  0
  -27.3777  -12.5881   17.7908 H   0  0  0  0  0  0
  -27.6810  -14.2409   19.5367 H   0  0  0  0  0  0
  -28.6807  -12.0086   21.3814 H   0  0  0  0  0  0
  -28.4608  -13.6705   21.8517 H   0  0  0  0  0  0
  -25.2755   -9.5681   22.4766 H   0  0  0  0  0  0
  -23.9998   -7.4631   22.7475 H   0  0  0  0  0  0
  -21.0837   -8.8778   19.8955 H   0  0  0  0  0  0
  -22.3695  -10.9678   19.6172 H   0  0  0  0  0  0
  -21.2002   -7.6147   23.9724 H   0  0  0  0  0  0
  -21.1488   -6.0517   25.9083 H   0  0  0  0  0  0
  -22.0595   -2.7609   23.2840 H   0  0  0  0  0  0
  -22.4064  -11.9919   22.4817 H   0  0  0  0  0  0
  -21.1099  -13.1308   22.2595 H   0  0  0  0  0  0
  -24.6537  -15.8349   20.5063 H   0  0  0  0  0  0
  -26.2674  -15.6275   20.0564 H   0  0  0  0  0  0
  -26.7110  -32.5498   23.1125 H   0  0  0  0  0  0
  -25.0115  -33.9772   25.0490 H   0  0  0  0  0  0
  -22.6954  -31.3042   21.4090 H   0  0  0  0  0  0
  -23.3762  -35.9621   23.3315 H   0  0  0  0  0  0
  -24.3578  -36.8894   22.2048 H   0  0  0  0  0  0
  -23.7234  -37.6502   23.6645 H   0  0  0  0  0  0
  -26.0538  -31.5855   20.5963 H   0  0  0  0  0  0
  -26.8205  -30.8706   21.9858 H   0  0  0  0  0  0
  -28.0946  -29.0801   21.1646 H   0  0  0  0  0  0
  -26.0256  -25.9350   19.0428 H   0  0  0  0  0  0
  -23.9746  -27.2764   19.0487 H   0  0  0  0  0  0
  -23.7197  -30.5868   19.4025 H   0  0  0  0  0  0
  -22.7361  -29.2326   19.8716 H   0  0  0  0  0  0
  -25.1300  -36.1966   25.0831 H   0  0  0  0  0  0
  -20.9951  -28.3224   24.1439 H   0  0  0  0  0  0
  -20.5693  -26.2261   23.3603 H   0  0  0  0  0  0
  -21.6642  -26.7457   22.1204 H   0  0  0  0  0  0
  -19.6919  -25.6300   21.1238 H   0  0  0  0  0  0
  -19.6706  -27.3201   20.6752 H   0  0  0  0  0  0
  -17.4210  -26.6684   21.4007 H   0  0  0  0  0  0
  -18.0317  -26.0066   22.9008 H   0  0  0  0  0  0
  -19.7923  -30.7263   24.2283 H   0  0  0  0  0  0
  -17.5004  -31.6271   24.5157 H   0  0  0  0  0  0
  -15.5342  -30.2989   23.7657 H   0  0  0  0  0  0
  -15.8659  -28.0822   22.7070 H   0  0  0  0  0  0
  -24.5909  -30.7067   25.7771 H   0  0  0  0  0  0
  -24.8939  -32.2867   26.4919 H   0  0  0  0  0  0
  -25.8084  -30.8853   27.0204 H   0  0  0  0  0  0
  -26.2862  -29.6798   24.1182 H   0  0  0  0  0  0
  -27.4114  -29.7303   25.4559 H   0  0  0  0  0  0
  -27.8687  -30.4378   23.9244 H   0  0  0  0  0  0
  -27.2681  -33.3624   26.2072 H   0  0  0  0  0  0
  -28.3847  -32.6901   25.0281 H   0  0  0  0  0  0
  -28.0753  -31.8449   26.5361 H   0  0  0  0  0  0
  -28.2613  -38.0090   24.7517 H   0  0  0  0  0  0
  -28.1073  -36.2624   24.6304 H   0  0  0  0  0  0
  -27.2297  -37.1459   25.8868 H   0  0  0  0  0  0
  -20.9316  -29.8708   21.6907 H   0  0  0  0  0  0
  -26.0190  -38.2870   24.1409 H   0  0  0  0  0  0
  -28.0885  -19.1167   19.4622 H   0  0  0  0  0  0
  -33.1134  -19.7103   22.1762 H   0  0  0  0  0  0
  -32.1542  -19.0453   23.5046 H   0  0  0  0  0  0
  -32.1380  -20.7767   23.1894 H   0  0  0  0  0  0
  -31.5155  -16.9337   18.6765 H   0  0  0  0  0  0
  -30.1386  -17.6303   17.8435 H   0  0  0  0  0  0
  -30.3091  -15.8867   17.9156 H   0  0  0  0  0  0
  -27.1432  -23.9305   20.1758 H   0  0  0  0  0  0
  -28.2897  -24.3781   21.4068 H   0  0  0  0  0  0
  -28.1220  -25.3821   18.5219 H   0  0  0  0  0  0
  -29.6582  -25.3451   19.3047 H   0  0  0  0  0  0
  -29.2692  -22.8504   18.9632 H   0  0  0  0  0  0
  -30.0387  -23.0096   20.5136 H   0  0  0  0  0  0
  -28.5899  -16.7479   19.4825 H   0  0  0  0  0  0
  -28.9382  -15.3357   21.1123 H   0  0  0  0  0  0
  1 25  1  0  0  0
  1 30  2  0  0  0
  1 83  1  0  0  0
  2  3  1  0  0  0
  2 25  1  0  0  0
  2 85  1  0  0  0
  2 86  1  0  0  0
  3  4  1  0  0  0
  3 87  1  0  0  0
  3 88  1  0  0  0
  4  5  1  0  0  0
  4 89  1  0  0  0
  4 90  1  0  0  0
  5  6  1  0  0  0
  5 26  1  0  0  0
  5 91  1  0  0  0
  6 25  1  0  0  0
  6 92  1  0  0  0
  6 93  1  0  0  0
  7  8  2  0  0  0
  7 26  1  0  0  0
  7 29  1  0  0  0
  8  9  1  0  0  0
  8 22  1  0  0  0
  9 10  1  0  0  0
  9 27  2  0  0  0
 10 11  2  0  0  0
 10 15  1  0  0  0
 11 12  1  0  0  0
 11 94  1  0  0  0
 12 13  2  0  0  0
 12 95  1  0  0  0
 13 14  1  0  0  0
 13 31  1  0  0  0
 14 15  2  0  0  0
 14 96  1  0  0  0
 15 97  1  0  0  0
 16 17  2  0  0  0
 16 21  1  0  0  0
 16 31  1  0  0  0
 17 18  1  0  0  0
 17 98  1  0  0  0
 18 19  2  0  0  0
 18 99  1  0  0  0
 19 20  1  0  0  0
 19 24  1  0  0  0
 20 21  2  0  0  0
 20100  1  0  0  0
 21 23  1  0  0  0
 22 28  1  0  0  0
 22 32  2  0  0  0
 26 27  1  0  0  0
 28101  1  0  0  0
 28102  1  0  0  0
 29103  1  0  0  0
 29104  1  0  0  0
 33 34  1  0  0  0
 33 66  1  0  0  0
 33 70  2  0  0  0
 34 36  1  0  0  0
 34 59  1  0  0  0
 34105  1  0  0  0
 35 44  2  0  0  0
 35 45  1  0  0  0
 35 68  1  0  0  0
 36 56  1  0  0  0
 36106  1  0  0  0
 37 39  1  0  0  0
 37 47  1  0  0  0
 37 66  1  0  0  0
 37107  1  0  0  0
 38 43  2  0  0  0
 38 46  1  0  0  0
 38 47  1  0  0  0
 39 64  1  0  0  0
 39 67  2  0  0  0
 40 52  1  0  0  0
 40 53  2  0  0  0
 40 58  1  0  0  0
 41108  1  0  0  0
 41109  1  0  0  0
 41110  1  0  0  0
 41 48  1  0  0  0
 42 43  1  0  0  0
 42 66  1  0  0  0
 42111  1  0  0  0
 42112  1  0  0  0
 43 44  1  0  0  0
 44113  1  0  0  0
 45 46  2  0  0  0
 45114  1  0  0  0
 46115  1  0  0  0
 47116  1  0  0  0
 47117  1  0  0  0
 48 56  1  0  0  0
 48 65  1  0  0  0
 48118  1  0  0  0
 49 50  1  0  0  0
 49 53  1  0  0  0
 49 64  1  0  0  0
 49119  1  0  0  0
 50 51  1  0  0  0
 50120  1  0  0  0
 50121  1  0  0  0
 51 52  1  0  0  0
 51122  1  0  0  0
 51123  1  0  0  0
 52124  1  0  0  0
 52125  1  0  0  0
 53 54  1  0  0  0
 54 55  2  0  0  0
 54126  1  0  0  0
 55 57  1  0  0  0
 55127  1  0  0  0
 56 69  2  0  0  0
 57 58  2  0  0  0
 57128  1  0  0  0
 58129  1  0  0  0
 59 60  1  0  0  0
 59 61  1  0  0  0
 59 62  1  0  0  0
 60130  1  0  0  0
 60131  1  0  0  0
 60132  1  0  0  0
 61133  1  0  0  0
 61134  1  0  0  0
 61135  1  0  0  0
 62136  1  0  0  0
 62137  1  0  0  0
 62138  1  0  0  0
 63 65  1  0  0  0
 63139  1  0  0  0
 63140  1  0  0  0
 63141  1  0  0  0
 64142  1  0  0  0
 65143  1  0  0  0
 68 78  1  0  0  0
 71 72  2  0  0  0
 71 73  1  0  0  0
 71144  1  0  0  0
 72 80  1  0  0  0
 72 81  1  0  0  0
 73 82  2  0  0  0
 73 84  1  0  0  0
 74 75  1  0  0  0
 74 81  2  0  0  0
 74 82  1  0  0  0
 75145  1  0  0  0
 75146  1  0  0  0
 75147  1  0  0  0
 76148  1  0  0  0
 76149  1  0  0  0
 76150  1  0  0  0
 76 80  1  0  0  0
 77 78  1  0  0  0
 77 79  1  0  0  0
 77151  1  0  0  0
 77152  1  0  0  0
 78153  1  0  0  0
 78154  1  0  0  0
 79 84  1  0  0  0
 79155  1  0  0  0
 79156  1  0  0  0
 80 83  1  0  0  0
 80157  1  0  0  0
 83158  1  0  0  0
M  ISO  4   1 100  68 101  78 101  83 100
M  END
> <chiral flag>
0

> <version>
0

> <s_m_source_file>
/data/baiqing/PycharmProjects/Reinvent-master-3.2/result/LINK_invent/BTK/process_docking_weight1_custom_sum_contain_oxygen_bond_distance_aromatic_linkinvent_7_9_3/rearranged_h_0052.sdf

> <i_m_source_file_index>
43

> <r_mmod_Potential_Energy-OPLS-2005>
-632.141235351562

> <r_mmod_Stretch_Energy-OPLS-2005>
43.3256454467773

> <r_mmod_Bend_Energy-OPLS-2005>
128.633148193359

> <r_mmod_Torsional_Energy-OPLS-2005>
224.360626220703

> <r_mmod_Improper_Torsional_Energy-OPLS-2005>
10.8622055053711

> <r_mmod_Van_der_Waal_Energy-OPLS-2005>
157.775283813477

> <r_mmod_Electrostatic_Energy-OPLS-2005>
-982.146057128906

> <r_mmod_Solvation_Energy-OPLS-2005>
-238.46305847168

> <b_mmod_Minimization_Converged-OPLS-2005>
0

> <r_mmod_RMS_Derivative-OPLS-2005>
0.942422032356262

$$$$
43
                    3D
 Structure written by MMmdl.
181190  0  0  1  0            999 V2000
  -30.7767  -14.3313   20.7486 C   0  0  0  0  0  0
  -30.4132  -12.2931   19.3975 C   0  0  0  0  0  0
  -29.4824  -12.5354   18.1944 C   0  0  0  0  0  0
  -28.0096  -12.3686   18.6069 C   0  0  0  0  0  0
  -27.6594  -13.1922   19.8705 C   0  0  2  0  0  0
  -28.6852  -12.9369   20.9914 C   0  0  0  0  0  0
  -25.2485  -13.7997   20.5398 C   0  0  0  0  0  0
  -24.1786  -13.0357   20.9119 C   0  0  0  0  0  0
  -24.6362  -11.6839   20.8729 C   0  0  0  0  0  0
  -23.9025  -10.4258   21.0414 C   0  0  0  0  0  0
  -24.3588   -9.4185   21.9188 C   0  0  0  0  0  0
  -23.6271   -8.2222   22.0752 C   0  0  0  0  0  0
  -22.4251   -8.0259   21.3532 C   0  0  0  0  0  0
  -21.9872   -9.0236   20.4649 C   0  0  0  0  0  0
  -22.7195  -10.2117   20.3063 C   0  0  0  0  0  0
  -21.6840   -6.0721   22.5267 C   0  0  0  0  0  0
  -21.4004   -6.5634   23.8206 C   0  0  0  0  0  0
  -21.3648   -5.6784   24.9161 C   0  0  0  0  0  0
  -21.6046   -4.3048   24.7213 C   0  0  0  0  0  0
  -21.8823   -3.8140   23.4328 C   0  0  0  0  0  0
  -21.9205   -4.6956   22.3393 C   0  0  0  0  0  0
  -22.7835  -13.5197   21.1845 C   0  0  0  0  0  0
  -22.1675   -4.2144   21.0961 F   0  0  0  0  0  0
  -21.5624   -3.4533   25.7722 F   0  0  0  0  0  0
  -30.0434  -13.2167   20.4807 N   0  0  0  0  0  0
  -26.2975  -12.9214   20.3255 N   0  0  0  0  0  0
  -25.9284  -11.6402   20.5765 N   0  0  0  0  0  0
  -22.0497  -12.8196   22.0429 N   0  0  0  0  0  0
  -25.4062  -15.1603   20.3321 N   0  0  0  0  0  0
  -31.7281  -14.6930   20.0454 O   0  0  0  0  0  0
  -21.6614   -6.8855   21.4232 O   0  0  0  0  0  0
  -22.3536  -14.5543   20.6754 O   0  0  0  0  0  0
  -24.6033  -31.8733   23.2139 C   0  0  0  0  0  0
  -25.8951  -32.4833   23.8423 C   0  0  1  0  0  0
  -27.2592  -27.5106   20.0742 C   0  0  0  0  0  0
  -25.5850  -33.8638   24.2353 N   0  0  0  0  0  0
  -23.3903  -30.4886   21.5573 C   0  0  2  0  0  0
  -24.8433  -28.9590   20.1259 C   0  0  0  0  0  0
  -22.7343  -29.4653   22.5097 C   0  0  0  0  0  0
  -18.0234  -28.1349   22.8489 C   0  0  0  0  0  0
  -24.1505  -36.7366   23.2633 C   0  0  0  0  0  0
  -25.9122  -30.8574   21.3584 C   0  0  0  0  0  0
  -25.9955  -29.4958   20.7094 C   0  0  0  0  0  0
  -27.2052  -28.7790   20.6794 C   0  0  0  0  0  0
  -26.0877  -26.9619   19.5033 C   0  0  0  0  0  0
  -24.8797  -27.6865   19.5257 C   0  0  0  0  0  0
  -23.5944  -29.8076   20.1776 C   0  0  0  0  0  0
  -25.4107  -36.3120   24.0335 C   0  0  1  0  0  0
  -20.5813  -28.3615   23.1371 C   0  0  2  0  0  0
  -20.6732  -26.9369   22.5438 C   0  0  0  0  0  0
  -19.5739  -26.6362   21.5208 C   0  0  0  0  0  0
  -18.1900  -26.7903   22.1600 C   0  0  0  0  0  0
  -19.1474  -28.8802   23.2936 C   0  0  0  0  0  0
  -18.9407  -30.1412   23.8938 C   0  0  0  0  0  0
  -17.6406  -30.6570   24.0533 C   0  0  0  0  0  0
  -25.9039  -34.9477   23.5145 C   0  0  0  0  0  0
  -16.5296  -29.9051   23.6329 C   0  0  0  0  0  0
  -16.7217  -28.6475   23.0346 C   0  0  0  0  0  0
  -26.4427  -31.6562   25.0703 C   0  0  0  0  0  0
  -25.3718  -31.3656   26.1469 C   0  0  0  0  0  0
  -27.0206  -30.2992   24.6034 C   0  0  0  0  0  0
  -27.6054  -32.4230   25.7429 C   0  0  0  0  0  0
  -27.5609  -37.1824   24.8444 C   0  0  0  0  0  0
  -21.4080  -29.3003   22.3821 N   0  0  0  0  0  0
  -26.4314  -37.3781   23.9398 N   0  0  0  0  0  0
  -24.6533  -31.0853   22.1025 N   0  0  0  0  0  0
  -23.4133  -28.8212   23.3133 O   0  0  0  0  0  0
  -28.4761  -26.8862   20.0077 O   0  0  0  0  0  0
  -26.5631  -34.8904   22.4725 O   0  0  0  0  0  0
  -23.5246  -32.1469   23.7560 O   0  0  0  0  0  0
  -28.4280  -24.5180   18.3285 C   0  0  0  0  0  0
  -28.1073  -23.4082   17.5221 C   0  0  0  0  0  0
  -27.5796  -23.3435   20.2807 C   0  0  0  0  0  0
  -28.1698  -24.4793   19.7137 C   0  0  0  0  0  0
  -27.5394  -22.2494   18.0970 C   0  0  0  0  0  0
  -27.2773  -22.2201   19.4882 C   0  0  0  0  0  0
  -28.6699  -18.4900   21.9131 C   0  0  0  0  0  0
  -29.4633  -19.6741   21.8983 C   0  0  0  0  0  0
  -27.4863  -18.8787   21.3382 C   0  0  0  0  0  0
  -27.2371  -21.0562   17.2105 C   0  0  0  0  0  0
  -31.9274  -19.9881   21.4022 C   0  0  0  0  0  0
  -24.9685  -18.7049   21.8107 C   0  0  0  0  0  0
  -31.7682  -14.9604   23.8852 C   0  0  0  0  0  0
  -29.0494  -17.1273   22.4441 C   0  0  0  0  0  0
  -26.6737  -21.0125   20.1891 C   0  0  0  0  0  0
  -28.5654  -25.6190   20.6247 C   0  0  0  0  0  0
  -30.8351  -19.9071   22.4770 C   0  0  0  0  0  0
  -26.2150  -18.1108   21.1406 C   0  0  0  0  0  0
  -30.4673  -14.5457   23.1782 C   0  0  0  0  0  0
  -30.2363  -16.5296   21.6603 C   0  0  0  0  0  0
  -28.8482  -20.6689   21.2847 N   0  0  0  0  0  0
  -27.6465  -20.1778   20.8993 N   0  0  0  0  0  0
  -30.3610  -15.0709   21.8039 N   0  0  0  0  0  0
  -31.4559  -12.4010   19.0967 H   0  0  0  0  0  0
  -30.3098  -11.2659   19.7496 H   0  0  0  0  0  0
  -29.7253  -11.8456   17.3854 H   0  0  0  0  0  0
  -29.6408  -13.5394   17.7994 H   0  0  0  0  0  0
  -27.8350  -11.3088   18.7942 H   0  0  0  0  0  0
  -27.3493  -12.6412   17.7823 H   0  0  0  0  0  0
  -27.7205  -14.2456   19.6003 H   0  0  0  0  0  0
  -28.6332  -11.9000   21.3241 H   0  0  0  0  0  0
  -28.4026  -13.5317   21.8579 H   0  0  0  0  0  0
  -25.2749   -9.5660   22.4739 H   0  0  0  0  0  0
  -23.9993   -7.4599   22.7456 H   0  0  0  0  0  0
  -21.0799   -8.8749   19.8947 H   0  0  0  0  0  0
  -22.3659  -10.9651   19.6166 H   0  0  0  0  0  0
  -21.1985   -7.6144   23.9694 H   0  0  0  0  0  0
  -21.1464   -6.0515   25.9061 H   0  0  0  0  0  0
  -22.0617   -2.7606   23.2825 H   0  0  0  0  0  0
  -22.4116  -11.9843   22.4779 H   0  0  0  0  0  0
  -21.1140  -13.1247   22.2705 H   0  0  0  0  0  0
  -24.6189  -15.7975   20.3695 H   0  0  0  0  0  0
  -26.2434  -15.5737   19.9437 H   0  0  0  0  0  0
  -26.7017  -32.5557   23.1207 H   0  0  0  0  0  0
  -24.9868  -33.9818   25.0394 H   0  0  0  0  0  0
  -22.6748  -31.3017   21.4175 H   0  0  0  0  0  0
  -23.3737  -35.9731   23.3261 H   0  0  0  0  0  0
  -24.3633  -36.8997   22.2059 H   0  0  0  0  0  0
  -23.7295  -37.6581   23.6673 H   0  0  0  0  0  0
  -26.0121  -31.6280   20.5915 H   0  0  0  0  0  0
  -26.8022  -30.9089   21.9725 H   0  0  0  0  0  0
  -28.1033  -29.2050   21.1047 H   0  0  0  0  0  0
  -26.1068  -26.0019   19.0092 H   0  0  0  0  0  0
  -23.9918  -27.2673   19.0733 H   0  0  0  0  0  0
  -23.6743  -30.5724   19.4047 H   0  0  0  0  0  0
  -22.7275  -29.2041   19.9032 H   0  0  0  0  0  0
  -25.1273  -36.2007   25.0833 H   0  0  0  0  0  0
  -20.9869  -28.3158   24.1501 H   0  0  0  0  0  0
  -20.5628  -26.2209   23.3595 H   0  0  0  0  0  0
  -21.6607  -26.7433   22.1246 H   0  0  0  0  0  0
  -19.6903  -25.6285   21.1216 H   0  0  0  0  0  0
  -19.6683  -27.3192   20.6761 H   0  0  0  0  0  0
  -17.4174  -26.6627   21.3992 H   0  0  0  0  0  0
  -18.0310  -26.0041   22.9003 H   0  0  0  0  0  0
  -19.7879  -30.7211   24.2333 H   0  0  0  0  0  0
  -17.4955  -31.6259   24.5112 H   0  0  0  0  0  0
  -15.5296  -30.2929   23.7686 H   0  0  0  0  0  0
  -15.8620  -28.0792   22.7046 H   0  0  0  0  0  0
  -24.5897  -30.6997   25.7813 H   0  0  0  0  0  0
  -24.8890  -32.2784   26.4964 H   0  0  0  0  0  0
  -25.8063  -30.8798   27.0201 H   0  0  0  0  0  0
  -26.2716  -29.6807   24.1082 H   0  0  0  0  0  0
  -27.3949  -29.7168   25.4459 H   0  0  0  0  0  0
  -27.8565  -30.4268   23.9151 H   0  0  0  0  0  0
  -27.2744  -33.3502   26.2107 H   0  0  0  0  0  0
  -28.3807  -32.6808   25.0207 H   0  0  0  0  0  0
  -28.0795  -31.8277   26.5239 H   0  0  0  0  0  0
  -28.2596  -38.0160   24.7518 H   0  0  0  0  0  0
  -28.1128  -36.2680   24.6197 H   0  0  0  0  0  0
  -27.2353  -37.1404   25.8859 H   0  0  0  0  0  0
  -20.9248  -29.8676   21.7007 H   0  0  0  0  0  0
  -26.0202  -38.2869   24.1358 H   0  0  0  0  0  0
  -28.8763  -25.3953   17.8846 H   0  0  0  0  0  0
  -28.3163  -23.4489   16.4616 H   0  0  0  0  0  0
  -27.3906  -23.3132   21.3453 H   0  0  0  0  0  0
  -27.6035  -21.2160   16.1972 H   0  0  0  0  0  0
  -26.1618  -20.8820   17.1534 H   0  0  0  0  0  0
  -27.7211  -20.1587   17.5984 H   0  0  0  0  0  0
  -32.9055  -20.1458   21.8607 H   0  0  0  0  0  0
  -31.7436  -20.8187   20.7203 H   0  0  0  0  0  0
  -31.9744  -19.0700   20.8153 H   0  0  0  0  0  0
  -24.1292  -18.0131   21.7326 H   0  0  0  0  0  0
  -24.6474  -19.6349   21.3483 H   0  0  0  0  0  0
  -25.1451  -18.8961   22.8675 H   0  0  0  0  0  0
  -32.6459  -14.5602   23.3775 H   0  0  0  0  0  0
  -31.7819  -14.5825   24.9068 H   0  0  0  0  0  0
  -31.8753  -16.0439   23.9447 H   0  0  0  0  0  0
  -28.2101  -16.4347   22.3883 H   0  0  0  0  0  0
  -29.2976  -17.1935   23.5041 H   0  0  0  0  0  0
  -26.1147  -20.3919   19.4883 H   0  0  0  0  0  0
  -25.9512  -21.3815   20.9158 H   0  0  0  0  0  0
  -27.9819  -25.5961   21.5472 H   0  0  0  0  0  0
  -29.6038  -25.4648   20.9205 H   0  0  0  0  0  0
  -31.0819  -19.1201   23.1893 H   0  0  0  0  0  0
  -30.8366  -20.8319   23.0550 H   0  0  0  0  0  0
  -26.3483  -17.1246   21.5671 H   0  0  0  0  0  0
  -26.0342  -17.9636   20.0754 H   0  0  0  0  0  0
  -29.6046  -14.8585   23.7638 H   0  0  0  0  0  0
  -30.4237  -13.4546   23.1700 H   0  0  0  0  0  0
  -31.1745  -17.0161   21.9275 H   0  0  0  0  0  0
  -30.0766  -16.7540   20.6034 H   0  0  0  0  0  0
  1 25  1  0  0  0
  1 30  2  0  0  0
  1 93  1  0  0  0
  2  3  1  0  0  0
  2 25  1  0  0  0
  2 94  1  0  0  0
  2 95  1  0  0  0
  3  4  1  0  0  0
  3 96  1  0  0  0
  3 97  1  0  0  0
  4  5  1  0  0  0
  4 98  1  0  0  0
  4 99  1  0  0  0
  5  6  1  0  0  0
  5 26  1  0  0  0
  5100  1  0  0  0
  6 25  1  0  0  0
  6101  1  0  0  0
  6102  1  0  0  0
  7  8  2  0  0  0
  7 26  1  0  0  0
  7 29  1  0  0  0
  8  9  1  0  0  0
  8 22  1  0  0  0
  9 10  1  0  0  0
  9 27  2  0  0  0
 10 11  2  0  0  0
 10 15  1  0  0  0
 11 12  1  0  0  0
 11103  1  0  0  0
 12 13  2  0  0  0
 12104  1  0  0  0
 13 14  1  0  0  0
 13 31  1  0  0  0
 14 15  2  0  0  0
 14105  1  0  0  0
 15106  1  0  0  0
 16 17  2  0  0  0
 16 21  1  0  0  0
 16 31  1  0  0  0
 17 18  1  0  0  0
 17107  1  0  0  0
 18 19  2  0  0  0
 18108  1  0  0  0
 19 20  1  0  0  0
 19 24  1  0  0  0
 20 21  2  0  0  0
 20109  1  0  0  0
 21 23  1  0  0  0
 22 28  1  0  0  0
 22 32  2  0  0  0
 26 27  1  0  0  0
 28110  1  0  0  0
 28111  1  0  0  0
 29112  1  0  0  0
 29113  1  0  0  0
 33 34  1  0  0  0
 33 66  1  0  0  0
 33 70  2  0  0  0
 34 36  1  0  0  0
 34 59  1  0  0  0
 34114  1  0  0  0
 35 44  2  0  0  0
 35 45  1  0  0  0
 35 68  1  0  0  0
 36 56  1  0  0  0
 36115  1  0  0  0
 37 39  1  0  0  0
 37 47  1  0  0  0
 37 66  1  0  0  0
 37116  1  0  0  0
 38 43  2  0  0  0
 38 46  1  0  0  0
 38 47  1  0  0  0
 39 64  1  0  0  0
 39 67  2  0  0  0
 40 52  1  0  0  0
 40 53  2  0  0  0
 40 58  1  0  0  0
 41117  1  0  0  0
 41118  1  0  0  0
 41119  1  0  0  0
 41 48  1  0  0  0
 42 43  1  0  0  0
 42 66  1  0  0  0
 42120  1  0  0  0
 42121  1  0  0  0
 43 44  1  0  0  0
 44122  1  0  0  0
 45 46  2  0  0  0
 45123  1  0  0  0
 46124  1  0  0  0
 47125  1  0  0  0
 47126  1  0  0  0
 48 56  1  0  0  0
 48 65  1  0  0  0
 48127  1  0  0  0
 49 50  1  0  0  0
 49 53  1  0  0  0
 49 64  1  0  0  0
 49128  1  0  0  0
 50 51  1  0  0  0
 50129  1  0  0  0
 50130  1  0  0  0
 51 52  1  0  0  0
 51131  1  0  0  0
 51132  1  0  0  0
 52133  1  0  0  0
 52134  1  0  0  0
 53 54  1  0  0  0
 54 55  2  0  0  0
 54135  1  0  0  0
 55 57  1  0  0  0
 55136  1  0  0  0
 56 69  2  0  0  0
 57 58  2  0  0  0
 57137  1  0  0  0
 58138  1  0  0  0
 59 60  1  0  0  0
 59 61  1  0  0  0
 59 62  1  0  0  0
 60139  1  0  0  0
 60140  1  0  0  0
 60141  1  0  0  0
 61142  1  0  0  0
 61143  1  0  0  0
 61144  1  0  0  0
 62145  1  0  0  0
 62146  1  0  0  0
 62147  1  0  0  0
 63 65  1  0  0  0
 63148  1  0  0  0
 63149  1  0  0  0
 63150  1  0  0  0
 64151  1  0  0  0
 65152  1  0  0  0
 68 86  1  0  0  0
 71 72  2  0  0  0
 71 74  1  0  0  0
 71153  1  0  0  0
 72 75  1  0  0  0
 72154  1  0  0  0
 73 74  2  0  0  0
 73 76  1  0  0  0
 73155  1  0  0  0
 74 86  1  0  0  0
 75 76  2  0  0  0
 75 80  1  0  0  0
 76 85  1  0  0  0
 77 78  1  0  0  0
 77 79  2  0  0  0
 77 84  1  0  0  0
 78 87  1  0  0  0
 78 91  2  0  0  0
 79 88  1  0  0  0
 79 92  1  0  0  0
 80156  1  0  0  0
 80157  1  0  0  0
 80158  1  0  0  0
 81 87  1  0  0  0
 81159  1  0  0  0
 81160  1  0  0  0
 81161  1  0  0  0
 82 88  1  0  0  0
 82162  1  0  0  0
 82163  1  0  0  0
 82164  1  0  0  0
 83 89  1  0  0  0
 83165  1  0  0  0
 83166  1  0  0  0
 83167  1  0  0  0
 84 90  1  0  0  0
 84168  1  0  0  0
 84169  1  0  0  0
 85 92  1  0  0  0
 85170  1  0  0  0
 85171  1  0  0  0
 86172  1  0  0  0
 86173  1  0  0  0
 87174  1  0  0  0
 87175  1  0  0  0
 88176  1  0  0  0
 88177  1  0  0  0
 89 93  1  0  0  0
 89178  1  0  0  0
 89179  1  0  0  0
 90 93  1  0  0  0
 90180  1  0  0  0
 90181  1  0  0  0
 91 92  1  0  0  0
M  ISO  4   1 100  68 101  86 101  93 100
M  END
> <chiral flag>
0

> <version>
0

> <s_m_source_file>
/data/baiqing/PycharmProjects/Reinvent-master-3.2/result/LINK_invent/BTK/process_docking_weight1_custom_sum_contain_oxygen_bond_distance_aromatic_linkinvent_7_9_3/rearranged_h_0052.sdf

> <i_m_source_file_index>
44

> <r_mmod_Potential_Energy-OPLS-2005>
132.093902587891

> <r_mmod_Stretch_Energy-OPLS-2005>
33.6267204284668

> <r_mmod_Bend_Energy-OPLS-2005>
92.8757476806641

> <r_mmod_Torsional_Energy-OPLS-2005>
325.760223388672

> <r_mmod_Improper_Torsional_Energy-OPLS-2005>
3.9019923210144

> <r_mmod_Van_der_Waal_Energy-OPLS-2005>
146.389785766602

> <r_mmod_Electrostatic_Energy-OPLS-2005>
-289.052185058594

> <r_mmod_Solvation_Energy-OPLS-2005>
-192.271789550781

> <b_mmod_Minimization_Converged-OPLS-2005>
0

> <r_mmod_RMS_Derivative-OPLS-2005>
2.97935509681702

$$$$
44
                    3D
 Structure written by MMmdl.
165173  0  0  1  0            999 V2000
  -30.2225  -13.4017   19.7883 C   0  0  0  0  0  0
  -31.1064  -14.5077   19.4534 C   0  0  0  0  0  0
  -29.0682  -15.2002   19.0934 C   0  0  0  0  0  0
  -27.8156  -14.0336   18.8461 C   0  0  0  0  0  0
  -27.7669  -13.0719   20.0827 C   0  0  2  0  0  0
  -29.2604  -12.0937   20.3656 C   0  0  0  0  0  0
  -25.3126  -13.7159   20.6182 C   0  0  0  0  0  0
  -24.2062  -12.9778   20.9121 C   0  0  0  0  0  0
  -24.6466  -11.6229   20.8566 C   0  0  0  0  0  0
  -23.8954  -10.3906   21.0303 C   0  0  0  0  0  0
  -24.3492   -9.3923   21.9165 C   0  0  0  0  0  0
  -23.6133   -8.2030   22.0776 C   0  0  0  0  0  0
  -22.4127   -8.0134   21.3538 C   0  0  0  0  0  0
  -21.9750   -9.0083   20.4626 C   0  0  0  0  0  0
  -22.7118  -10.1901   20.2970 C   0  0  0  0  0  0
  -21.6764   -6.0657   22.5292 C   0  0  0  0  0  0
  -21.3947   -6.5589   23.8218 C   0  0  0  0  0  0
  -21.3645   -5.6761   24.9190 C   0  0  0  0  0  0
  -21.6051   -4.3028   24.7249 C   0  0  0  0  0  0
  -21.8832   -3.8105   23.4376 C   0  0  0  0  0  0
  -21.9169   -4.6904   22.3421 C   0  0  0  0  0  0
  -22.8132  -13.4914   21.1746 C   0  0  0  0  0  0
  -22.1648   -4.2106   21.0997 F   0  0  0  0  0  0
  -21.5644   -3.4518   25.7764 F   0  0  0  0  0  0
  -30.8784  -12.7893   20.1060 N   0  0  0  0  0  0
  -26.3627  -12.7884   20.4060 N   0  0  0  0  0  0
  -25.9437  -11.5273   20.5717 N   0  0  0  0  0  0
  -22.0626  -12.8083   22.0323 N   0  0  0  0  0  0
  -25.4742  -15.1028   20.5438 N   0  0  0  0  0  0
  -29.9610  -14.0468   21.0884 O   0  0  0  0  0  0
  -21.6483   -6.8765   21.4248 O   0  0  0  0  0  0
  -22.3966  -14.5305   20.6609 O   0  0  0  0  0  0
  -24.6622  -31.8262   23.1732 C   0  0  0  0  0  0
  -25.9315  -32.4602   23.8184 C   0  0  1  0  0  0
  -27.2471  -27.0408   19.9706 C   0  0  0  0  0  0
  -25.5988  -33.8415   24.2103 N   0  0  0  0  0  0
  -23.4712  -30.4433   21.5282 C   0  0  2  0  0  0
  -24.9136  -28.8460   20.1028 C   0  0  0  0  0  0
  -22.7660  -29.4457   22.4829 C   0  0  0  0  0  0
  -18.0321  -28.1403   22.8474 C   0  0  0  0  0  0
  -24.1490  -36.7202   23.2648 C   0  0  0  0  0  0
  -26.0425  -30.6471   21.3928 C   0  0  0  0  0  0
  -26.1104  -29.2536   20.7057 C   0  0  0  0  0  0
  -27.2709  -28.3629   20.6309 C   0  0  0  0  0  0
  -25.9961  -26.7549   19.3883 C   0  0  0  0  0  0
  -24.8703  -27.6065   19.4504 C   0  0  0  0  0  0
  -23.6989  -29.7654   20.1536 C   0  0  0  0  0  0
  -25.4130  -36.2974   24.0307 C   0  0  1  0  0  0
  -20.5944  -28.3734   23.1205 C   0  0  2  0  0  0
  -20.6788  -26.9421   22.5397 C   0  0  0  0  0  0
  -19.5758  -26.6379   21.5208 C   0  0  0  0  0  0
  -18.1946  -26.7940   22.1626 C   0  0  0  0  0  0
  -19.1582  -28.8892   23.2832 C   0  0  0  0  0  0
  -18.9490  -30.1488   23.8860 C   0  0  0  0  0  0
  -17.6481  -30.6591   24.0559 C   0  0  0  0  0  0
  -25.9099  -34.9354   23.5024 C   0  0  0  0  0  0
  -16.5374  -29.9079   23.6338 C   0  0  0  0  0  0
  -16.7305  -28.6502   23.0356 C   0  0  0  0  0  0
  -26.4572  -31.6536   25.0702 C   0  0  0  0  0  0
  -25.3699  -31.3763   26.1358 C   0  0  0  0  0  0
  -27.0474  -30.2912   24.6415 C   0  0  0  0  0  0
  -27.6079  -32.4331   25.7499 C   0  0  0  0  0  0
  -27.5571  -37.1758   24.8471 C   0  0  0  0  0  0
  -21.4334  -29.3040   22.3578 N   0  0  0  0  0  0
  -26.4279  -37.3707   23.9414 N   0  0  0  0  0  0
  -24.7476  -30.9954   22.0853 N   0  0  0  0  0  0
  -23.4232  -28.8007   23.3034 O   0  0  0  0  0  0
  -28.2995  -26.0074   19.8557 O   0  0  0  0  0  0
  -26.5701  -34.8887   22.4614 O   0  0  0  0  0  0
  -23.5703  -32.1221   23.6857 O   0  0  0  0  0  0
  -30.6529  -17.3359   17.8266 C   0  0  0  0  0  0
  -29.2152  -18.2309   16.5692 C   0  0  0  0  0  0
  -30.2352  -16.2100   16.9891 C   0  0  0  0  0  0
  -31.5427  -11.1814   17.5430 C   0  0  0  0  0  0
  -31.4329  -20.6043   18.1152 C   0  0  0  0  0  0
  -29.9536  -19.7285   19.9178 C   0  0  0  0  0  0
  -30.2778  -14.4402   16.9417 C   0  0  0  0  0  0
  -29.1512  -23.0889   19.1361 C   0  0  0  0  0  0
  -28.9951  -21.5237   18.3131 C   0  0  0  0  0  0
  -30.1748  -11.8730   17.4107 C   0  0  0  0  0  0
  -28.1360  -24.5356   19.1871 C   0  0  0  0  0  0
  -30.0160  -20.0904   18.4233 C   0  0  0  0  0  0
  -29.3263  -16.9255   16.1712 N   0  0  0  0  0  0
  -29.9288  -18.6324   17.6460 N   0  0  0  0  0  0
  -30.0922  -13.1782   18.1068 N   0  0  0  0  0  0
  -31.6319  -15.2160   20.1402 H   0  0  0  0  0  0
  -31.8917  -14.6148   18.6728 H   0  0  0  0  0  0
  -28.7748  -15.6608   20.0427 H   0  0  0  0  0  0
  -28.7418  -16.1250   18.6439 H   0  0  0  0  0  0
  -27.7938  -13.4898   17.9012 H   0  0  0  0  0  0
  -26.9106  -14.6112   18.7037 H   0  0  0  0  0  0
  -27.7995  -13.7740   20.9125 H   0  0  0  0  0  0
  -29.1640  -11.1461   19.8284 H   0  0  0  0  0  0
  -29.2125  -11.7330   21.4009 H   0  0  0  0  0  0
  -25.2652   -9.5394   22.4709 H   0  0  0  0  0  0
  -23.9815   -7.4432   22.7524 H   0  0  0  0  0  0
  -21.0658   -8.8594   19.8961 H   0  0  0  0  0  0
  -22.3629  -10.9431   19.6044 H   0  0  0  0  0  0
  -21.1905   -7.6094   23.9701 H   0  0  0  0  0  0
  -21.1461   -6.0494   25.9092 H   0  0  0  0  0  0
  -22.0638   -2.7571   23.2883 H   0  0  0  0  0  0
  -22.4083  -11.9684   22.4722 H   0  0  0  0  0  0
  -21.1318  -13.1317   22.2532 H   0  0  0  0  0  0
  -24.7036  -15.7510   20.6630 H   0  0  0  0  0  0
  -26.3510  -15.5596   20.3245 H   0  0  0  0  0  0
  -26.7386  -32.5142   23.0900 H   0  0  0  0  0  0
  -25.0084  -33.9495   25.0221 H   0  0  0  0  0  0
  -22.7829  -31.2749   21.3641 H   0  0  0  0  0  0
  -23.3770  -35.9515   23.3281 H   0  0  0  0  0  0
  -24.3567  -36.8872   22.2067 H   0  0  0  0  0  0
  -23.7225  -37.6377   23.6717 H   0  0  0  0  0  0
  -26.2248  -31.4062   20.6307 H   0  0  0  0  0  0
  -26.9013  -30.6876   22.0515 H   0  0  0  0  0  0
  -28.1909  -28.6766   21.1042 H   0  0  0  0  0  0
  -25.8570  -25.8242   18.8595 H   0  0  0  0  0  0
  -23.9529  -27.2874   18.9757 H   0  0  0  0  0  0
  -23.8468  -30.5366   19.3964 H   0  0  0  0  0  0
  -22.8073  -29.2186   19.8412 H   0  0  0  0  0  0
  -25.1325  -36.1776   25.0799 H   0  0  0  0  0  0
  -21.0041  -28.3316   24.1325 H   0  0  0  0  0  0
  -20.5648  -26.2349   23.3629 H   0  0  0  0  0  0
  -21.6650  -26.7382   22.1209 H   0  0  0  0  0  0
  -19.6901  -25.6282   21.1253 H   0  0  0  0  0  0
  -19.6689  -27.3176   20.6726 H   0  0  0  0  0  0
  -17.4209  -26.6696   21.4037 H   0  0  0  0  0  0
  -18.0341  -26.0095   22.9034 H   0  0  0  0  0  0
  -19.7963  -30.7320   24.2211 H   0  0  0  0  0  0
  -17.5025  -31.6265   24.5166 H   0  0  0  0  0  0
  -15.5369  -30.2958   23.7679 H   0  0  0  0  0  0
  -15.8714  -28.0803   22.7078 H   0  0  0  0  0  0
  -24.5913  -30.7083   25.7656 H   0  0  0  0  0  0
  -24.8847  -32.2950   26.4664 H   0  0  0  0  0  0
  -25.7930  -30.9008   27.0215 H   0  0  0  0  0  0
  -26.3142  -29.6582   24.1406 H   0  0  0  0  0  0
  -27.4009  -29.7283   25.5064 H   0  0  0  0  0  0
  -27.9080  -30.4114   23.9831 H   0  0  0  0  0  0
  -27.2677  -33.3684   26.1956 H   0  0  0  0  0  0
  -28.3951  -32.6799   25.0361 H   0  0  0  0  0  0
  -28.0682  -31.8527   26.5508 H   0  0  0  0  0  0
  -28.2572  -38.0070   24.7522 H   0  0  0  0  0  0
  -28.1087  -36.2594   24.6299 H   0  0  0  0  0  0
  -27.2288  -37.1397   25.8876 H   0  0  0  0  0  0
  -20.9577  -29.8767   21.6744 H   0  0  0  0  0  0
  -26.0131  -38.2769   24.1423 H   0  0  0  0  0  0
  -31.3475  -17.2820   18.6539 H   0  0  0  0  0  0
  -28.5569  -18.9203   16.0592 H   0  0  0  0  0  0
  -31.6029  -10.3233   16.8732 H   0  0  0  0  0  0
  -31.7211  -10.8060   18.5501 H   0  0  0  0  0  0
  -32.3591  -11.8562   17.2855 H   0  0  0  0  0  0
  -31.6849  -21.4793   18.7154 H   0  0  0  0  0  0
  -31.5251  -20.8883   17.0669 H   0  0  0  0  0  0
  -32.1922  -19.8470   18.3156 H   0  0  0  0  0  0
  -30.1442  -20.5958   20.5502 H   0  0  0  0  0  0
  -30.6843  -18.9679   20.1922 H   0  0  0  0  0  0
  -28.9667  -19.3439   20.1779 H   0  0  0  0  0  0
  -31.2177  -14.1873   16.4497 H   0  0  0  0  0  0
  -29.5329  -14.1787   16.1907 H   0  0  0  0  0  0
  -30.1321  -23.4564   18.8326 H   0  0  0  0  0  0
  -29.2874  -22.8282   20.1857 H   0  0  0  0  0  0
  -28.9459  -21.7638   17.2507 H   0  0  0  0  0  0
  -27.9877  -21.1752   18.5457 H   0  0  0  0  0  0
  -29.3720  -11.2107   17.7250 H   0  0  0  0  0  0
  -29.9868  -12.0170   16.3461 H   0  0  0  0  0  0
  -27.1869  -24.1702   19.5811 H   0  0  0  0  0  0
  -27.9256  -24.7563   18.1407 H   0  0  0  0  0  0
  1 25  1  0  0  0
  1 30  2  0  0  0
  1 85  1  0  0  0
  2  3  1  0  0  0
  2 25  1  0  0  0
  2 86  1  0  0  0
  2 87  1  0  0  0
  3  4  1  0  0  0
  3 88  1  0  0  0
  3 89  1  0  0  0
  4  5  1  0  0  0
  4 90  1  0  0  0
  4 91  1  0  0  0
  5  6  1  0  0  0
  5 26  1  0  0  0
  5 92  1  0  0  0
  6 25  1  0  0  0
  6 93  1  0  0  0
  6 94  1  0  0  0
  7  8  2  0  0  0
  7 26  1  0  0  0
  7 29  1  0  0  0
  8  9  1  0  0  0
  8 22  1  0  0  0
  9 10  1  0  0  0
  9 27  2  0  0  0
 10 11  2  0  0  0
 10 15  1  0  0  0
 11 12  1  0  0  0
 11 95  1  0  0  0
 12 13  2  0  0  0
 12 96  1  0  0  0
 13 14  1  0  0  0
 13 31  1  0  0  0
 14 15  2  0  0  0
 14 97  1  0  0  0
 15 98  1  0  0  0
 16 17  2  0  0  0
 16 21  1  0  0  0
 16 31  1  0  0  0
 17 18  1  0  0  0
 17 99  1  0  0  0
 18 19  2  0  0  0
 18100  1  0  0  0
 19 20  1  0  0  0
 19 24  1  0  0  0
 20 21  2  0  0  0
 20101  1  0  0  0
 21 23  1  0  0  0
 22 28  1  0  0  0
 22 32  2  0  0  0
 26 27  1  0  0  0
 28102  1  0  0  0
 28103  1  0  0  0
 29104  1  0  0  0
 29105  1  0  0  0
 33 34  1  0  0  0
 33 66  1  0  0  0
 33 70  2  0  0  0
 34 36  1  0  0  0
 34 59  1  0  0  0
 34106  1  0  0  0
 35 44  2  0  0  0
 35 45  1  0  0  0
 35 68  1  0  0  0
 36 56  1  0  0  0
 36107  1  0  0  0
 37 39  1  0  0  0
 37 47  1  0  0  0
 37 66  1  0  0  0
 37108  1  0  0  0
 38 43  2  0  0  0
 38 46  1  0  0  0
 38 47  1  0  0  0
 39 64  1  0  0  0
 39 67  2  0  0  0
 40 52  1  0  0  0
 40 53  2  0  0  0
 40 58  1  0  0  0
 41109  1  0  0  0
 41110  1  0  0  0
 41111  1  0  0  0
 41 48  1  0  0  0
 42 43  1  0  0  0
 42 66  1  0  0  0
 42112  1  0  0  0
 42113  1  0  0  0
 43 44  1  0  0  0
 44114  1  0  0  0
 45 46  2  0  0  0
 45115  1  0  0  0
 46116  1  0  0  0
 47117  1  0  0  0
 47118  1  0  0  0
 48 56  1  0  0  0
 48 65  1  0  0  0
 48119  1  0  0  0
 49 50  1  0  0  0
 49 53  1  0  0  0
 49 64  1  0  0  0
 49120  1  0  0  0
 50 51  1  0  0  0
 50121  1  0  0  0
 50122  1  0  0  0
 51 52  1  0  0  0
 51123  1  0  0  0
 51124  1  0  0  0
 52125  1  0  0  0
 52126  1  0  0  0
 53 54  1  0  0  0
 54 55  2  0  0  0
 54127  1  0  0  0
 55 57  1  0  0  0
 55128  1  0  0  0
 56 69  2  0  0  0
 57 58  2  0  0  0
 57129  1  0  0  0
 58130  1  0  0  0
 59 60  1  0  0  0
 59 61  1  0  0  0
 59 62  1  0  0  0
 60131  1  0  0  0
 60132  1  0  0  0
 60133  1  0  0  0
 61134  1  0  0  0
 61135  1  0  0  0
 61136  1  0  0  0
 62137  1  0  0  0
 62138  1  0  0  0
 62139  1  0  0  0
 63 65  1  0  0  0
 63140  1  0  0  0
 63141  1  0  0  0
 63142  1  0  0  0
 64143  1  0  0  0
 65144  1  0  0  0
 68 81  1  0  0  0
 71 73  2  0  0  0
 71 84  1  0  0  0
 71145  1  0  0  0
 72 83  2  0  0  0
 72 84  1  0  0  0
 72146  1  0  0  0
 73 77  1  0  0  0
 73 83  1  0  0  0
 74 80  1  0  0  0
 74147  1  0  0  0
 74148  1  0  0  0
 74149  1  0  0  0
 75150  1  0  0  0
 75151  1  0  0  0
 75152  1  0  0  0
 75 82  1  0  0  0
 76 82  1  0  0  0
 76153  1  0  0  0
 76154  1  0  0  0
 76155  1  0  0  0
 77 85  1  0  0  0
 77156  1  0  0  0
 77157  1  0  0  0
 78 79  1  0  0  0
 78 81  1  0  0  0
 78158  1  0  0  0
 78159  1  0  0  0
 79 82  1  0  0  0
 79160  1  0  0  0
 79161  1  0  0  0
 80 85  1  0  0  0
 80162  1  0  0  0
 80163  1  0  0  0
 81164  1  0  0  0
 81165  1  0  0  0
 82 84  1  0  0  0
M  ISO  4   1 100  68 101  81 101  85 100
M  END
> <chiral flag>
0

> <version>
0

> <s_m_source_file>
/data/baiqing/PycharmProjects/Reinvent-master-3.2/result/LINK_invent/BTK/process_docking_weight1_custom_sum_contain_oxygen_bond_distance_aromatic_linkinvent_7_9_3/rearranged_h_0052.sdf

> <i_m_source_file_index>
45

> <r_mmod_Potential_Energy-OPLS-2005>
7442.97314453125

> <r_mmod_Stretch_Energy-OPLS-2005>
2366.78784179688

> <r_mmod_Bend_Energy-OPLS-2005>
1259.81359863281

> <r_mmod_Torsional_Energy-OPLS-2005>
366.83984375

> <r_mmod_Improper_Torsional_Energy-OPLS-2005>
4.42149782180786

> <r_mmod_Van_der_Waal_Energy-OPLS-2005>
1281.05139160156

> <r_mmod_Electrostatic_Energy-OPLS-2005>
-336.955413818359

> <r_mmod_Solvation_Energy-OPLS-2005>
-219.296966552734

> <b_mmod_Minimization_Converged-OPLS-2005>
0

> <r_mmod_RMS_Derivative-OPLS-2005>
1.9599175453186

$$$$
45
                    3D
 Structure written by MMmdl.
163171  0  0  1  0            999 V2000
  -30.6092  -14.7688   20.4907 C   0  0  0  0  0  0
  -30.4345  -12.4745   19.4847 C   0  0  0  0  0  0
  -29.5162  -12.5266   18.2434 C   0  0  0  0  0  0
  -28.0455  -12.3302   18.6535 C   0  0  0  0  0  0
  -27.6457  -13.2266   19.8546 C   0  0  2  0  0  0
  -28.6839  -13.1473   20.9924 C   0  0  0  0  0  0
  -25.2548  -13.8179   20.5691 C   0  0  0  0  0  0
  -24.1820  -13.0453   20.9181 C   0  0  0  0  0  0
  -24.6399  -11.6914   20.8759 C   0  0  0  0  0  0
  -23.9067  -10.4289   21.0418 C   0  0  0  0  0  0
  -24.3613   -9.4183   21.9179 C   0  0  0  0  0  0
  -23.6273   -8.2229   22.0753 C   0  0  0  0  0  0
  -22.4261   -8.0278   21.3540 C   0  0  0  0  0  0
  -21.9910   -9.0254   20.4645 C   0  0  0  0  0  0
  -22.7246  -10.2129   20.3058 C   0  0  0  0  0  0
  -21.6847   -6.0738   22.5274 C   0  0  0  0  0  0
  -21.4009   -6.5646   23.8205 C   0  0  0  0  0  0
  -21.3655   -5.6801   24.9169 C   0  0  0  0  0  0
  -21.6031   -4.3060   24.7221 C   0  0  0  0  0  0
  -21.8809   -3.8153   23.4342 C   0  0  0  0  0  0
  -21.9184   -4.6967   22.3401 C   0  0  0  0  0  0
  -22.7842  -13.5235   21.1857 C   0  0  0  0  0  0
  -22.1652   -4.2155   21.0977 F   0  0  0  0  0  0
  -21.5630   -3.4547   25.7732 F   0  0  0  0  0  0
  -29.9879  -13.5307   20.4286 N   0  0  0  0  0  0
  -26.2960  -12.9369   20.3267 N   0  0  0  0  0  0
  -25.9320  -11.6517   20.5725 N   0  0  0  0  0  0
  -22.0497  -12.8217   22.0406 N   0  0  0  0  0  0
  -25.4334  -15.1901   20.4136 N   0  0  0  0  0  0
  -31.7412  -14.8957   20.0117 O   0  0  0  0  0  0
  -21.6624   -6.8881   21.4238 O   0  0  0  0  0  0
  -22.3514  -14.5541   20.6705 O   0  0  0  0  0  0
  -24.6320  -31.8503   23.1932 C   0  0  0  0  0  0
  -25.9133  -32.4735   23.8302 C   0  0  1  0  0  0
  -27.2342  -27.2477   20.1134 C   0  0  0  0  0  0
  -25.5914  -33.8537   24.2231 N   0  0  0  0  0  0
  -23.4308  -30.4685   21.5351 C   0  0  2  0  0  0
  -24.8821  -28.9050   20.1045 C   0  0  0  0  0  0
  -22.7475  -29.4593   22.4888 C   0  0  0  0  0  0
  -18.0266  -28.1393   22.8477 C   0  0  0  0  0  0
  -24.1487  -36.7277   23.2643 C   0  0  0  0  0  0
  -25.9765  -30.7533   21.3769 C   0  0  0  0  0  0
  -26.0488  -29.3724   20.7212 C   0  0  0  0  0  0
  -27.2193  -28.5487   20.7268 C   0  0  0  0  0  0
  -26.0448  -26.8455   19.4707 C   0  0  0  0  0  0
  -24.8841  -27.6489   19.4733 C   0  0  0  0  0  0
  -23.6520  -29.7939   20.1523 C   0  0  0  0  0  0
  -25.4109  -36.3066   24.0332 C   0  0  1  0  0  0
  -20.5858  -28.3744   23.1245 C   0  0  2  0  0  0
  -20.6771  -26.9466   22.5363 C   0  0  0  0  0  0
  -19.5718  -26.6367   21.5225 C   0  0  0  0  0  0
  -18.1930  -26.7900   22.1683 C   0  0  0  0  0  0
  -19.1506  -28.8887   23.2858 C   0  0  0  0  0  0
  -18.9407  -30.1487   23.8863 C   0  0  0  0  0  0
  -17.6398  -30.6602   24.0512 C   0  0  0  0  0  0
  -25.9049  -34.9433   23.5089 C   0  0  0  0  0  0
  -16.5300  -29.9075   23.6289 C   0  0  0  0  0  0
  -16.7237  -28.6478   23.0335 C   0  0  0  0  0  0
  -26.4500  -31.6573   25.0708 C   0  0  0  0  0  0
  -25.3734  -31.3739   26.1450 C   0  0  0  0  0  0
  -27.0351  -30.2974   24.6230 C   0  0  0  0  0  0
  -27.6047  -32.4317   25.7487 C   0  0  0  0  0  0
  -27.5572  -37.1797   24.8471 C   0  0  0  0  0  0
  -21.4167  -29.3129   22.3661 N   0  0  0  0  0  0
  -26.4282  -37.3764   23.9417 N   0  0  0  0  0  0
  -24.6988  -31.0443   22.0914 N   0  0  0  0  0  0
  -23.4149  -28.8116   23.3001 O   0  0  0  0  0  0
  -28.3361  -26.3652   20.2181 O   0  0  0  0  0  0
  -26.5650  -34.8911   22.4673 O   0  0  0  0  0  0
  -23.5464  -32.1341   23.7204 O   0  0  0  0  0  0
  -27.3371  -22.8487   19.1600 C   0  0  0  0  0  0
  -28.3392  -23.6522   19.6497 C   0  0  0  0  0  0
  -28.7470  -21.3912   20.1754 C   0  0  0  0  0  0
  -30.5436  -20.6007   21.7436 C   0  0  0  0  0  0
  -28.2244  -19.7240   22.0067 C   0  0  0  0  0  0
  -26.6760  -20.4348   19.1114 C   0  0  0  0  0  0
  -29.6261  -16.0294   22.3507 C   0  0  0  0  0  0
  -28.5955  -25.1891   19.3215 C   0  0  0  0  0  0
  -29.8562  -18.6926   20.2273 C   0  0  0  0  0  0
  -29.3802  -17.1077   20.0974 C   0  0  0  0  0  0
  -29.3098  -20.0893   20.9582 C   0  0  0  0  0  0
  -27.5959  -21.5237   19.4711 N   0  0  0  0  0  0
  -29.1838  -22.7006   20.2649 N   0  3  0  0  0  0
  -29.8931  -15.8963   20.9154 N   0  0  0  0  0  0
  -31.4774  -12.5954   19.1891 H   0  0  0  0  0  0
  -30.3752  -11.4922   19.9572 H   0  0  0  0  0  0
  -29.8093  -11.7579   17.5274 H   0  0  0  0  0  0
  -29.6334  -13.4845   17.7325 H   0  0  0  0  0  0
  -27.9170  -11.2787   18.9157 H   0  0  0  0  0  0
  -27.3830  -12.5136   17.8079 H   0  0  0  0  0  0
  -27.6464  -14.2521   19.4839 H   0  0  0  0  0  0
  -28.7285  -12.1402   21.4092 H   0  0  0  0  0  0
  -28.3776  -13.7897   21.8140 H   0  0  0  0  0  0
  -25.2764   -9.5644   22.4743 H   0  0  0  0  0  0
  -23.9967   -7.4624   22.7486 H   0  0  0  0  0  0
  -21.0835   -8.8774   19.8960 H   0  0  0  0  0  0
  -22.3701  -10.9664   19.6166 H   0  0  0  0  0  0
  -21.1996   -7.6158   23.9698 H   0  0  0  0  0  0
  -21.1497   -6.0546   25.9068 H   0  0  0  0  0  0
  -22.0595   -2.7617   23.2843 H   0  0  0  0  0  0
  -22.4129  -11.9853   22.4742 H   0  0  0  0  0  0
  -21.1118  -13.1235   22.2661 H   0  0  0  0  0  0
  -24.6823  -15.8595   20.5355 H   0  0  0  0  0  0
  -26.3012  -15.6161   20.1163 H   0  0  0  0  0  0
  -26.7198  -32.5367   23.1045 H   0  0  0  0  0  0
  -25.0059  -33.9667   25.0377 H   0  0  0  0  0  0
  -22.7313  -31.2922   21.3798 H   0  0  0  0  0  0
  -23.3747  -35.9609   23.3303 H   0  0  0  0  0  0
  -24.3583  -36.8897   22.2059 H   0  0  0  0  0  0
  -23.7240  -37.6478   23.6660 H   0  0  0  0  0  0
  -26.1163  -31.5068   20.6009 H   0  0  0  0  0  0
  -26.8540  -30.8058   22.0100 H   0  0  0  0  0  0
  -28.1066  -28.8935   21.2393 H   0  0  0  0  0  0
  -25.9857  -25.8748   18.9991 H   0  0  0  0  0  0
  -23.9900  -27.2809   18.9892 H   0  0  0  0  0  0
  -23.7779  -30.5653   19.3908 H   0  0  0  0  0  0
  -22.7706  -29.2263   19.8502 H   0  0  0  0  0  0
  -25.1288  -36.1912   25.0823 H   0  0  0  0  0  0
  -20.9932  -28.3313   24.1371 H   0  0  0  0  0  0
  -21.6623  -26.7556   22.1066 H   0  0  0  0  0  0
  -20.5763  -26.2348   23.3571 H   0  0  0  0  0  0
  -19.6880  -25.6258   21.1303 H   0  0  0  0  0  0
  -19.6602  -27.3126   20.6712 H   0  0  0  0  0  0
  -17.4154  -26.6548   21.4148 H   0  0  0  0  0  0
  -18.0405  -26.0093   22.9146 H   0  0  0  0  0  0
  -19.7866  -30.7341   24.2217 H   0  0  0  0  0  0
  -17.4916  -31.6295   24.5082 H   0  0  0  0  0  0
  -15.5295  -30.2962   23.7600 H   0  0  0  0  0  0
  -15.8636  -28.0768   22.7077 H   0  0  0  0  0  0
  -24.5904  -30.7085   25.7804 H   0  0  0  0  0  0
  -24.8926  -32.2909   26.4863 H   0  0  0  0  0  0
  -25.8059  -30.8943   27.0241 H   0  0  0  0  0  0
  -26.2942  -29.6721   24.1236 H   0  0  0  0  0  0
  -27.3999  -29.7243   25.4768 H   0  0  0  0  0  0
  -27.8833  -30.4239   23.9496 H   0  0  0  0  0  0
  -27.2650  -33.3624   26.2043 H   0  0  0  0  0  0
  -28.3874  -32.6861   25.0328 H   0  0  0  0  0  0
  -28.0695  -31.8455   26.5431 H   0  0  0  0  0  0
  -28.2594  -38.0092   24.7502 H   0  0  0  0  0  0
  -28.1063  -36.2618   24.6305 H   0  0  0  0  0  0
  -27.2295  -37.1462   25.8878 H   0  0  0  0  0  0
  -20.9385  -29.8899   21.6871 H   0  0  0  0  0  0
  -26.0161  -38.2834   24.1414 H   0  0  0  0  0  0
  -26.4705  -23.1296   18.5766 H   0  0  0  0  0  0
  -30.2989  -21.4470   22.3851 H   0  0  0  0  0  0
  -30.9750  -19.8435   22.3987 H   0  0  0  0  0  0
  -31.3357  -20.9085   21.0599 H   0  0  0  0  0  0
  -27.9277  -20.5951   22.5929 H   0  0  0  0  0  0
  -28.5589  -18.9673   22.7164 H   0  0  0  0  0  0
  -27.3232  -19.3328   21.5362 H   0  0  0  0  0  0
  -26.2948  -20.6050   18.1032 H   0  0  0  0  0  0
  -25.8439  -20.4274   19.8138 H   0  0  0  0  0  0
  -27.1516  -19.4632   19.1221 H   0  0  0  0  0  0
  -30.3064  -16.7511   22.8003 H   0  0  0  0  0  0
  -29.7696  -15.0939   22.8931 H   0  0  0  0  0  0
  -28.6041  -16.3634   22.5303 H   0  0  0  0  0  0
  -28.1215  -25.3915   18.3604 H   0  0  0  0  0  0
  -29.6599  -25.2591   19.0968 H   0  0  0  0  0  0
  -29.9967  -18.3285   21.2352 H   0  0  0  0  0  0
  -28.9993  -18.8260   19.5878 H   0  0  0  0  0  0
  -29.5368  -16.8235   19.0545 H   0  0  0  0  0  0
  -28.2934  -17.0641   20.2158 H   0  0  0  0  0  0
  -30.0403  -22.9617   20.7364 H   0  0  0  0  0  0
  1 25  1  0  0  0
  1 30  2  0  0  0
  1 84  1  0  0  0
  2  3  1  0  0  0
  2 25  1  0  0  0
  2 85  1  0  0  0
  2 86  1  0  0  0
  3  4  1  0  0  0
  3 87  1  0  0  0
  3 88  1  0  0  0
  4  5  1  0  0  0
  4 89  1  0  0  0
  4 90  1  0  0  0
  5  6  1  0  0  0
  5 26  1  0  0  0
  5 91  1  0  0  0
  6 25  1  0  0  0
  6 92  1  0  0  0
  6 93  1  0  0  0
  7  8  2  0  0  0
  7 26  1  0  0  0
  7 29  1  0  0  0
  8  9  1  0  0  0
  8 22  1  0  0  0
  9 10  1  0  0  0
  9 27  2  0  0  0
 10 11  2  0  0  0
 10 15  1  0  0  0
 11 12  1  0  0  0
 11 94  1  0  0  0
 12 13  2  0  0  0
 12 95  1  0  0  0
 13 14  1  0  0  0
 13 31  1  0  0  0
 14 15  2  0  0  0
 14 96  1  0  0  0
 15 97  1  0  0  0
 16 17  2  0  0  0
 16 21  1  0  0  0
 16 31  1  0  0  0
 17 18  1  0  0  0
 17 98  1  0  0  0
 18 19  2  0  0  0
 18 99  1  0  0  0
 19 20  1  0  0  0
 19 24  1  0  0  0
 20 21  2  0  0  0
 20100  1  0  0  0
 21 23  1  0  0  0
 22 28  1  0  0  0
 22 32  2  0  0  0
 26 27  1  0  0  0
 28101  1  0  0  0
 28102  1  0  0  0
 29103  1  0  0  0
 29104  1  0  0  0
 33 34  1  0  0  0
 33 66  1  0  0  0
 33 70  2  0  0  0
 34 36  1  0  0  0
 34 59  1  0  0  0
 34105  1  0  0  0
 35 44  2  0  0  0
 35 45  1  0  0  0
 35 68  1  0  0  0
 36 56  1  0  0  0
 36106  1  0  0  0
 37 39  1  0  0  0
 37 47  1  0  0  0
 37 66  1  0  0  0
 37107  1  0  0  0
 38 43  2  0  0  0
 38 46  1  0  0  0
 38 47  1  0  0  0
 39 64  1  0  0  0
 39 67  2  0  0  0
 40 52  1  0  0  0
 40 53  2  0  0  0
 40 58  1  0  0  0
 41108  1  0  0  0
 41109  1  0  0  0
 41110  1  0  0  0
 41 48  1  0  0  0
 42 43  1  0  0  0
 42 66  1  0  0  0
 42111  1  0  0  0
 42112  1  0  0  0
 43 44  1  0  0  0
 44113  1  0  0  0
 45 46  2  0  0  0
 45114  1  0  0  0
 46115  1  0  0  0
 47116  1  0  0  0
 47117  1  0  0  0
 48 56  1  0  0  0
 48 65  1  0  0  0
 48118  1  0  0  0
 49 50  1  0  0  0
 49 53  1  0  0  0
 49 64  1  0  0  0
 49119  1  0  0  0
 50 51  1  0  0  0
 50120  1  0  0  0
 50121  1  0  0  0
 51 52  1  0  0  0
 51122  1  0  0  0
 51123  1  0  0  0
 52124  1  0  0  0
 52125  1  0  0  0
 53 54  1  0  0  0
 54 55  2  0  0  0
 54126  1  0  0  0
 55 57  1  0  0  0
 55127  1  0  0  0
 56 69  2  0  0  0
 57 58  2  0  0  0
 57128  1  0  0  0
 58129  1  0  0  0
 59 60  1  0  0  0
 59 61  1  0  0  0
 59 62  1  0  0  0
 60130  1  0  0  0
 60131  1  0  0  0
 60132  1  0  0  0
 61133  1  0  0  0
 61134  1  0  0  0
 61135  1  0  0  0
 62136  1  0  0  0
 62137  1  0  0  0
 62138  1  0  0  0
 63 65  1  0  0  0
 63139  1  0  0  0
 63140  1  0  0  0
 63141  1  0  0  0
 64142  1  0  0  0
 65143  1  0  0  0
 68 78  1  0  0  0
 71 72  2  0  0  0
 71 82  1  0  0  0
 71144  1  0  0  0
 72 78  1  0  0  0
 72 83  1  0  0  0
 73 81  1  0  0  0
 73 82  1  0  0  0
 73 83  2  0  0  0
 74145  1  0  0  0
 74146  1  0  0  0
 74147  1  0  0  0
 74 81  1  0  0  0
 75 81  1  0  0  0
 75148  1  0  0  0
 75149  1  0  0  0
 75150  1  0  0  0
 76 82  1  0  0  0
 76151  1  0  0  0
 76152  1  0  0  0
 76153  1  0  0  0
 77 84  1  0  0  0
 77154  1  0  0  0
 77155  1  0  0  0
 77156  1  0  0  0
 78157  1  0  0  0
 78158  1  0  0  0
 79 80  1  0  0  0
 79 81  1  0  0  0
 79159  1  0  0  0
 79160  1  0  0  0
 80 84  1  0  0  0
 80161  1  0  0  0
 80162  1  0  0  0
 83163  1  0  0  0
M  CHG  1  83   1
M  ISO  4   1 100  68 101  78 101  84 100
M  END
> <chiral flag>
0

> <version>
0

> <s_m_source_file>
/data/baiqing/PycharmProjects/Reinvent-master-3.2/result/LINK_invent/BTK/process_docking_weight1_custom_sum_contain_oxygen_bond_distance_aromatic_linkinvent_7_9_3/rearranged_h_0052.sdf

> <i_m_source_file_index>
46

> <r_mmod_Potential_Energy-OPLS-2005>
642.437561035156

> <r_mmod_Stretch_Energy-OPLS-2005>
167.89875793457

> <r_mmod_Bend_Energy-OPLS-2005>
468.954193115234

> <r_mmod_Torsional_Energy-OPLS-2005>
342.563262939453

> <r_mmod_Improper_Torsional_Energy-OPLS-2005>
6.72209310531616

> <r_mmod_Van_der_Waal_Energy-OPLS-2005>
132.925750732422

> <r_mmod_Electrostatic_Energy-OPLS-2005>
-161.873886108398

> <r_mmod_Solvation_Energy-OPLS-2005>
-408.251617431641

> <b_mmod_Minimization_Converged-OPLS-2005>
0

> <r_mmod_RMS_Derivative-OPLS-2005>
2.92206764221191

$$$$
46
                    3D
 Structure written by MMmdl.
154162  0  0  1  0            999 V2000
  -30.5444  -14.8806   20.4383 C   0  0  0  0  0  0
  -30.4402  -12.5538   19.4797 C   0  0  0  0  0  0
  -29.5143  -12.5463   18.2414 C   0  0  0  0  0  0
  -28.0383  -12.3553   18.6453 C   0  0  0  0  0  0
  -27.6299  -13.2535   19.8453 C   0  0  2  0  0  0
  -28.6759  -13.2283   20.9794 C   0  0  0  0  0  0
  -25.2434  -13.8237   20.5671 C   0  0  0  0  0  0
  -24.1774  -13.0451   20.9227 C   0  0  0  0  0  0
  -24.6401  -11.6929   20.8766 C   0  0  0  0  0  0
  -23.9092  -10.4291   21.0413 C   0  0  0  0  0  0
  -24.3633   -9.4210   21.9194 C   0  0  0  0  0  0
  -23.6303   -8.2253   22.0754 C   0  0  0  0  0  0
  -22.4278   -8.0308   21.3562 C   0  0  0  0  0  0
  -21.9930   -9.0276   20.4655 C   0  0  0  0  0  0
  -22.7270  -10.2143   20.3059 C   0  0  0  0  0  0
  -21.6852   -6.0745   22.5288 C   0  0  0  0  0  0
  -21.4017   -6.5643   23.8227 C   0  0  0  0  0  0
  -21.3655   -5.6789   24.9193 C   0  0  0  0  0  0
  -21.6038   -4.3052   24.7228 C   0  0  0  0  0  0
  -21.8828   -3.8154   23.4351 C   0  0  0  0  0  0
  -21.9201   -4.6975   22.3414 C   0  0  0  0  0  0
  -22.7788  -13.5207   21.1900 C   0  0  0  0  0  0
  -22.1671   -4.2171   21.0990 F   0  0  0  0  0  0
  -21.5630   -3.4539   25.7739 F   0  0  0  0  0  0
  -29.9623  -13.6236   20.3955 N   0  0  0  0  0  0
  -26.2877  -12.9487   20.3260 N   0  0  0  0  0  0
  -25.9341  -11.6607   20.5765 N   0  0  0  0  0  0
  -22.0413  -12.8191   22.0440 N   0  0  0  0  0  0
  -25.4055  -15.1975   20.4025 N   0  0  0  0  0  0
  -31.7366  -14.9840   20.1324 O   0  0  0  0  0  0
  -21.6649   -6.8902   21.4246 O   0  0  0  0  0  0
  -22.3465  -14.5524   20.6771 O   0  0  0  0  0  0
  -24.6455  -31.8512   23.1947 C   0  0  0  0  0  0
  -25.9245  -32.4723   23.8326 C   0  0  1  0  0  0
  -27.1802  -27.1440   20.1199 C   0  0  0  0  0  0
  -25.6000  -33.8538   24.2256 N   0  0  0  0  0  0
  -23.4427  -30.4781   21.5473 C   0  0  2  0  0  0
  -24.8801  -28.9200   20.1062 C   0  0  0  0  0  0
  -22.7544  -29.4606   22.4898 C   0  0  0  0  0  0
  -18.0308  -28.1426   22.8517 C   0  0  0  0  0  0
  -24.1502  -36.7248   23.2634 C   0  0  0  0  0  0
  -26.0048  -30.7163   21.4028 C   0  0  0  0  0  0
  -26.0635  -29.3378   20.7262 C   0  0  0  0  0  0
  -27.2173  -28.4647   20.7225 C   0  0  0  0  0  0
  -25.9724  -26.8482   19.4426 C   0  0  0  0  0  0
  -24.8455  -27.6883   19.4500 C   0  0  0  0  0  0
  -23.6642  -29.8275   20.1594 C   0  0  0  0  0  0
  -25.4135  -36.3044   24.0315 C   0  0  1  0  0  0
  -20.5913  -28.3756   23.1237 C   0  0  2  0  0  0
  -20.6771  -26.9476   22.5382 C   0  0  0  0  0  0
  -19.5714  -26.6386   21.5242 C   0  0  0  0  0  0
  -18.1963  -26.7910   22.1787 C   0  0  0  0  0  0
  -19.1578  -28.8920   23.2821 C   0  0  0  0  0  0
  -18.9506  -30.1500   23.8876 C   0  0  0  0  0  0
  -17.6505  -30.6615   24.0571 C   0  0  0  0  0  0
  -25.9094  -34.9414   23.5089 C   0  0  0  0  0  0
  -16.5385  -29.9127   23.6356 C   0  0  0  0  0  0
  -16.7293  -28.6526   23.0425 C   0  0  0  0  0  0
  -26.4553  -31.6591   25.0780 C   0  0  0  0  0  0
  -25.3717  -31.3761   26.1455 C   0  0  0  0  0  0
  -27.0449  -30.2987   24.6400 C   0  0  0  0  0  0
  -27.6084  -32.4361   25.7560 C   0  0  0  0  0  0
  -27.5582  -37.1790   24.8482 C   0  0  0  0  0  0
  -21.4244  -29.3103   22.3625 N   0  0  0  0  0  0
  -26.4311  -37.3743   23.9400 N   0  0  0  0  0  0
  -24.7184  -31.0343   22.1017 N   0  0  0  0  0  0
  -23.4198  -28.8130   23.3031 O   0  0  0  0  0  0
  -28.1924  -26.1181   20.2091 O   0  0  0  0  0  0
  -26.5647  -34.8883   22.4652 O   0  0  0  0  0  0
  -23.5587  -32.1432   23.7151 O   0  0  0  0  0  0
  -29.2412  -21.4282   21.4526 C   0  0  0  0  0  0
  -29.0110  -20.3491   20.5206 C   0  0  0  0  0  0
  -28.2354  -22.1169   19.0793 C   0  0  0  0  0  0
  -28.4556  -23.1992   20.0219 C   0  0  0  0  0  0
  -27.5904  -22.3614   17.7225 C   0  0  0  0  0  0
  -28.9749  -18.5630   22.4451 C   0  0  0  0  0  0
  -27.7837  -24.6849   19.7966 C   0  0  0  0  0  0
  -29.9547  -17.5437   20.2839 C   0  0  0  0  0  0
  -28.9872  -18.7441   20.9116 C   0  0  1  0  0  0
  -28.9792  -22.7805   21.2244 N   0  0  0  0  0  0
  -28.5061  -20.7721   19.3170 N   0  0  0  0  0  0
  -29.7325  -16.0189   20.6070 N   0  0  0  0  0  0
  -31.4740  -12.7121   19.1634 H   0  0  0  0  0  0
  -30.4309  -11.5889   19.9861 H   0  0  0  0  0  0
  -29.8147  -11.7672   17.5394 H   0  0  0  0  0  0
  -29.6218  -13.4930   17.7084 H   0  0  0  0  0  0
  -27.8894  -11.3052   18.8940 H   0  0  0  0  0  0
  -27.3880  -12.5612   17.7920 H   0  0  0  0  0  0
  -27.6026  -14.2713   19.4566 H   0  0  0  0  0  0
  -28.7476  -12.2351   21.4253 H   0  0  0  0  0  0
  -28.3901  -13.9076   21.7852 H   0  0  0  0  0  0
  -25.2779   -9.5681   22.4775 H   0  0  0  0  0  0
  -24.0021   -7.4624   22.7441 H   0  0  0  0  0  0
  -21.0889   -8.8810   19.8938 H   0  0  0  0  0  0
  -22.3757  -10.9689   19.6169 H   0  0  0  0  0  0
  -21.2005   -7.6152   23.9751 H   0  0  0  0  0  0
  -21.1459   -6.0511   25.9101 H   0  0  0  0  0  0
  -22.0599   -2.7617   23.2848 H   0  0  0  0  0  0
  -22.4030  -11.9843   22.4831 H   0  0  0  0  0  0
  -21.1013  -13.1205   22.2643 H   0  0  0  0  0  0
  -24.6222  -15.8375   20.4943 H   0  0  0  0  0  0
  -26.2342  -15.6380   20.0249 H   0  0  0  0  0  0
  -26.7327  -32.5300   23.1062 H   0  0  0  0  0  0
  -25.0166  -33.9696   25.0414 H   0  0  0  0  0  0
  -22.7405  -31.3052   21.4069 H   0  0  0  0  0  0
  -23.3786  -35.9567   23.3318 H   0  0  0  0  0  0
  -24.3569  -36.8863   22.2043 H   0  0  0  0  0  0
  -23.7244  -37.6439   23.6668 H   0  0  0  0  0  0
  -26.1847  -31.4812   20.6462 H   0  0  0  0  0  0
  -26.8658  -30.7382   22.0613 H   0  0  0  0  0  0
  -28.1145  -28.7693   21.2413 H   0  0  0  0  0  0
  -25.8233  -25.9234   18.9053 H   0  0  0  0  0  0
  -23.9424  -27.3684   18.9489 H   0  0  0  0  0  0
  -23.8083  -30.6194   19.4244 H   0  0  0  0  0  0
  -22.7735  -29.2902   19.8329 H   0  0  0  0  0  0
  -25.1328  -36.1887   25.0811 H   0  0  0  0  0  0
  -20.9979  -28.3371   24.1371 H   0  0  0  0  0  0
  -21.6623  -26.7483   22.1172 H   0  0  0  0  0  0
  -20.5691  -26.2386   23.3621 H   0  0  0  0  0  0
  -19.6877  -25.6275   21.1346 H   0  0  0  0  0  0
  -19.6561  -27.3133   20.6710 H   0  0  0  0  0  0
  -17.4113  -26.6435   21.4372 H   0  0  0  0  0  0
  -18.0584  -26.0162   22.9342 H   0  0  0  0  0  0
  -19.7992  -30.7326   24.2261 H   0  0  0  0  0  0
  -17.5081  -31.6316   24.5164 H   0  0  0  0  0  0
  -15.5393  -30.3044   23.7713 H   0  0  0  0  0  0
  -15.8673  -28.0806   22.7223 H   0  0  0  0  0  0
  -24.5879  -30.7154   25.7736 H   0  0  0  0  0  0
  -24.8925  -32.2934   26.4884 H   0  0  0  0  0  0
  -25.7960  -30.8894   27.0250 H   0  0  0  0  0  0
  -26.3102  -29.6680   24.1382 H   0  0  0  0  0  0
  -27.4029  -29.7303   25.4996 H   0  0  0  0  0  0
  -27.9020  -30.4236   23.9777 H   0  0  0  0  0  0
  -27.2698  -33.3684   26.2099 H   0  0  0  0  0  0
  -28.3906  -32.6907   25.0393 H   0  0  0  0  0  0
  -28.0769  -31.8531   26.5509 H   0  0  0  0  0  0
  -28.2636  -38.0047   24.7483 H   0  0  0  0  0  0
  -28.1045  -36.2579   24.6402 H   0  0  0  0  0  0
  -27.2274  -37.1527   25.8876 H   0  0  0  0  0  0
  -20.9450  -29.8838   21.6820 H   0  0  0  0  0  0
  -26.0197  -38.2827   24.1365 H   0  0  0  0  0  0
  -29.5676  -21.1933   22.4561 H   0  0  0  0  0  0
  -27.2273  -21.4283   17.2883 H   0  0  0  0  0  0
  -28.3126  -22.7959   17.0312 H   0  0  0  0  0  0
  -26.7298  -23.0265   17.7859 H   0  0  0  0  0  0
  -28.2152  -19.1851   22.9207 H   0  0  0  0  0  0
  -29.9424  -18.8089   22.8855 H   0  0  0  0  0  0
  -28.7448  -17.5322   22.7214 H   0  0  0  0  0  0
  -26.7903  -24.5143   20.2102 H   0  0  0  0  0  0
  -27.6705  -24.7777   18.7201 H   0  0  0  0  0  0
  -29.8851  -17.6263   19.1979 H   0  0  0  0  0  0
  -30.9920  -17.7812   20.5216 H   0  0  0  0  0  0
  -27.9848  -18.4498   20.5979 H   0  0  0  0  0  0
  -28.7827  -15.7769   20.8426 H   0  0  0  0  0  0
  1 25  1  0  0  0
  1 30  2  0  0  0
  1 82  1  0  0  0
  2  3  1  0  0  0
  2 25  1  0  0  0
  2 83  1  0  0  0
  2 84  1  0  0  0
  3  4  1  0  0  0
  3 85  1  0  0  0
  3 86  1  0  0  0
  4  5  1  0  0  0
  4 87  1  0  0  0
  4 88  1  0  0  0
  5  6  1  0  0  0
  5 26  1  0  0  0
  5 89  1  0  0  0
  6 25  1  0  0  0
  6 90  1  0  0  0
  6 91  1  0  0  0
  7  8  2  0  0  0
  7 26  1  0  0  0
  7 29  1  0  0  0
  8  9  1  0  0  0
  8 22  1  0  0  0
  9 10  1  0  0  0
  9 27  2  0  0  0
 10 11  2  0  0  0
 10 15  1  0  0  0
 11 12  1  0  0  0
 11 92  1  0  0  0
 12 13  2  0  0  0
 12 93  1  0  0  0
 13 14  1  0  0  0
 13 31  1  0  0  0
 14 15  2  0  0  0
 14 94  1  0  0  0
 15 95  1  0  0  0
 16 17  2  0  0  0
 16 21  1  0  0  0
 16 31  1  0  0  0
 17 18  1  0  0  0
 17 96  1  0  0  0
 18 19  2  0  0  0
 18 97  1  0  0  0
 19 20  1  0  0  0
 19 24  1  0  0  0
 20 21  2  0  0  0
 20 98  1  0  0  0
 21 23  1  0  0  0
 22 28  1  0  0  0
 22 32  2  0  0  0
 26 27  1  0  0  0
 28 99  1  0  0  0
 28100  1  0  0  0
 29101  1  0  0  0
 29102  1  0  0  0
 33 34  1  0  0  0
 33 66  1  0  0  0
 33 70  2  0  0  0
 34 36  1  0  0  0
 34 59  1  0  0  0
 34103  1  0  0  0
 35 44  2  0  0  0
 35 45  1  0  0  0
 35 68  1  0  0  0
 36 56  1  0  0  0
 36104  1  0  0  0
 37 39  1  0  0  0
 37 47  1  0  0  0
 37 66  1  0  0  0
 37105  1  0  0  0
 38 43  2  0  0  0
 38 46  1  0  0  0
 38 47  1  0  0  0
 39 64  1  0  0  0
 39 67  2  0  0  0
 40 52  1  0  0  0
 40 53  2  0  0  0
 40 58  1  0  0  0
 41106  1  0  0  0
 41107  1  0  0  0
 41108  1  0  0  0
 41 48  1  0  0  0
 42 43  1  0  0  0
 42 66  1  0  0  0
 42109  1  0  0  0
 42110  1  0  0  0
 43 44  1  0  0  0
 44111  1  0  0  0
 45 46  2  0  0  0
 45112  1  0  0  0
 46113  1  0  0  0
 47114  1  0  0  0
 47115  1  0  0  0
 48 56  1  0  0  0
 48 65  1  0  0  0
 48116  1  0  0  0
 49 50  1  0  0  0
 49 53  1  0  0  0
 49 64  1  0  0  0
 49117  1  0  0  0
 50 51  1  0  0  0
 50118  1  0  0  0
 50119  1  0  0  0
 51 52  1  0  0  0
 51120  1  0  0  0
 51121  1  0  0  0
 52122  1  0  0  0
 52123  1  0  0  0
 53 54  1  0  0  0
 54 55  2  0  0  0
 54124  1  0  0  0
 55 57  1  0  0  0
 55125  1  0  0  0
 56 69  2  0  0  0
 57 58  2  0  0  0
 57126  1  0  0  0
 58127  1  0  0  0
 59 60  1  0  0  0
 59 61  1  0  0  0
 59 62  1  0  0  0
 60128  1  0  0  0
 60129  1  0  0  0
 60130  1  0  0  0
 61131  1  0  0  0
 61132  1  0  0  0
 61133  1  0  0  0
 62134  1  0  0  0
 62135  1  0  0  0
 62136  1  0  0  0
 63 65  1  0  0  0
 63137  1  0  0  0
 63138  1  0  0  0
 63139  1  0  0  0
 64140  1  0  0  0
 65141  1  0  0  0
 68 77  1  0  0  0
 71 72  2  0  0  0
 71 80  1  0  0  0
 71142  1  0  0  0
 72 79  1  0  0  0
 72 81  1  0  0  0
 73 74  1  0  0  0
 73 75  1  0  0  0
 73 81  2  0  0  0
 74 77  1  0  0  0
 74 80  2  0  0  0
 75143  1  0  0  0
 75144  1  0  0  0
 75145  1  0  0  0
 76146  1  0  0  0
 76147  1  0  0  0
 76148  1  0  0  0
 76 79  1  0  0  0
 77149  1  0  0  0
 77150  1  0  0  0
 78 79  1  0  0  0
 78 82  1  0  0  0
 78151  1  0  0  0
 78152  1  0  0  0
 79153  1  0  0  0
 82154  1  0  0  0
M  ISO  4   1 100  68 101  77 101  82 100
M  END
> <chiral flag>
0

> <version>
0

> <s_m_source_file>
/data/baiqing/PycharmProjects/Reinvent-master-3.2/result/LINK_invent/BTK/process_docking_weight1_custom_sum_contain_oxygen_bond_distance_aromatic_linkinvent_7_9_3/rearranged_h_0052.sdf

> <i_m_source_file_index>
47

> <r_mmod_Potential_Energy-OPLS-2005>
479.769226074219

> <r_mmod_Stretch_Energy-OPLS-2005>
215.765899658203

> <r_mmod_Bend_Energy-OPLS-2005>
252.421203613281

> <r_mmod_Torsional_Energy-OPLS-2005>
213.511169433594

> <r_mmod_Improper_Torsional_Energy-OPLS-2005>
9.71566200256348

> <r_mmod_Van_der_Waal_Energy-OPLS-2005>
149.670516967773

> <r_mmod_Electrostatic_Energy-OPLS-2005>
-302.896606445312

> <r_mmod_Solvation_Energy-OPLS-2005>
-232.616302490234

> <b_mmod_Minimization_Converged-OPLS-2005>
0

> <r_mmod_RMS_Derivative-OPLS-2005>
5.16702032089233

$$$$
47
                    3D
 Structure written by MMmdl.
153161  0  0  1  0            999 V2000
  -30.5448  -15.0344   20.3830 C   0  0  0  0  0  0
  -30.4397  -12.6411   19.5082 C   0  0  0  0  0  0
  -29.5276  -12.5446   18.2609 C   0  0  0  0  0  0
  -28.0625  -12.3152   18.6799 C   0  0  0  0  0  0
  -27.6263  -13.2591   19.8305 C   0  0  2  0  0  0
  -28.6725  -13.3473   20.9648 C   0  0  0  0  0  0
  -25.2459  -13.8254   20.5720 C   0  0  0  0  0  0
  -24.1784  -13.0472   20.9204 C   0  0  0  0  0  0
  -24.6407  -11.6945   20.8732 C   0  0  0  0  0  0
  -23.9092  -10.4301   21.0376 C   0  0  0  0  0  0
  -24.3650   -9.4209   21.9144 C   0  0  0  0  0  0
  -23.6308   -8.2239   22.0746 C   0  0  0  0  0  0
  -22.4284   -8.0258   21.3535 C   0  0  0  0  0  0
  -21.9923   -9.0247   20.4641 C   0  0  0  0  0  0
  -22.7262  -10.2116   20.3026 C   0  0  0  0  0  0
  -21.6861   -6.0722   22.5255 C   0  0  0  0  0  0
  -21.4030   -6.5625   23.8201 C   0  0  0  0  0  0
  -21.3676   -5.6783   24.9167 C   0  0  0  0  0  0
  -21.6044   -4.3043   24.7213 C   0  0  0  0  0  0
  -21.8814   -3.8125   23.4337 C   0  0  0  0  0  0
  -21.9205   -4.6947   22.3393 C   0  0  0  0  0  0
  -22.7789  -13.5204   21.1849 C   0  0  0  0  0  0
  -22.1649   -4.2122   21.0972 F   0  0  0  0  0  0
  -21.5650   -3.4535   25.7740 F   0  0  0  0  0  0
  -29.9406  -13.7672   20.3547 N   0  0  0  0  0  0
  -26.2894  -12.9503   20.3244 N   0  0  0  0  0  0
  -25.9344  -11.6637   20.5731 N   0  0  0  0  0  0
  -22.0463  -12.8197   22.0424 N   0  0  0  0  0  0
  -25.4128  -15.1975   20.4111 N   0  0  0  0  0  0
  -31.7518  -15.0613   20.1298 O   0  0  0  0  0  0
  -21.6636   -6.8849   21.4221 O   0  0  0  0  0  0
  -22.3454  -14.5513   20.6682 O   0  0  0  0  0  0
  -24.6456  -31.8395   23.1806 C   0  0  0  0  0  0
  -25.9207  -32.4662   23.8228 C   0  0  1  0  0  0
  -27.2358  -27.0808   20.1726 C   0  0  0  0  0  0
  -25.5944  -33.8475   24.2115 N   0  0  0  0  0  0
  -23.4570  -30.4508   21.5272 C   0  0  2  0  0  0
  -24.9135  -28.8588   20.1165 C   0  0  0  0  0  0
  -22.7608  -29.4506   22.4847 C   0  0  0  0  0  0
  -18.0310  -28.1416   22.8487 C   0  0  0  0  0  0
  -24.1495  -36.7218   23.2662 C   0  0  0  0  0  0
  -26.0154  -30.6941   21.3946 C   0  0  0  0  0  0
  -26.0855  -29.2954   20.7443 C   0  0  0  0  0  0
  -27.2400  -28.4206   20.7564 C   0  0  0  0  0  0
  -26.0353  -26.7507   19.5078 C   0  0  0  0  0  0
  -24.9016  -27.6014   19.4854 C   0  0  0  0  0  0
  -23.6906  -29.7681   20.1502 C   0  0  0  0  0  0
  -25.4133  -36.3009   24.0313 C   0  0  1  0  0  0
  -20.5932  -28.3745   23.1226 C   0  0  2  0  0  0
  -20.6784  -26.9425   22.5439 C   0  0  0  0  0  0
  -19.5754  -26.6381   21.5245 C   0  0  0  0  0  0
  -18.1940  -26.7954   22.1637 C   0  0  0  0  0  0
  -19.1578  -28.8892   23.2855 C   0  0  0  0  0  0
  -18.9502  -30.1496   23.8875 C   0  0  0  0  0  0
  -17.6491  -30.6606   24.0572 C   0  0  0  0  0  0
  -25.9084  -34.9399   23.5025 C   0  0  0  0  0  0
  -16.5382  -29.9097   23.6352 C   0  0  0  0  0  0
  -16.7307  -28.6523   23.0367 C   0  0  0  0  0  0
  -26.4490  -31.6592   25.0720 C   0  0  0  0  0  0
  -25.3658  -31.3832   26.1385 C   0  0  0  0  0  0
  -27.0362  -30.2989   24.6380 C   0  0  0  0  0  0
  -27.6031  -32.4370   25.7472 C   0  0  0  0  0  0
  -27.5564  -37.1752   24.8461 C   0  0  0  0  0  0
  -21.4303  -29.3044   22.3590 N   0  0  0  0  0  0
  -26.4272  -37.3741   23.9408 N   0  0  0  0  0  0
  -24.7242  -31.0167   22.0888 N   0  0  0  0  0  0
  -23.4203  -28.8094   23.3062 O   0  0  0  0  0  0
  -28.3338  -26.1281   20.1636 O   0  0  0  0  0  0
  -26.5699  -34.8929   22.4635 O   0  0  0  0  0  0
  -23.5558  -32.1313   23.6966 O   0  0  0  0  0  0
  -27.4426  -23.7265   20.9490 C   0  0  0  0  0  0
  -28.3348  -24.6362   20.2754 C   0  0  0  0  0  0
  -29.2865  -23.6481   19.8765 C   0  0  0  0  0  0
  -30.5571  -23.9443   19.1349 C   0  0  0  0  0  0
  -31.1037  -21.0187   20.8871 C   0  0  0  0  0  0
  -29.2406  -19.2447   20.4375 C   0  0  0  0  0  0
  -30.2075  -17.8150   20.3069 C   0  0  0  0  0  0
  -29.7716  -20.8605   20.1351 C   0  0  1  0  0  0
  -27.7994  -22.4068   20.9470 N   0  0  0  0  0  0
  -28.9747  -22.2670   20.2718 N   0  0  0  0  0  0
  -29.8009  -16.2639   20.4808 N   0  0  0  0  0  0
  -31.4751  -12.7947   19.1941 H   0  0  0  0  0  0
  -30.4360  -11.7048   20.0735 H   0  0  0  0  0  0
  -29.8655  -11.7426   17.6046 H   0  0  0  0  0  0
  -29.5983  -13.4687   17.6811 H   0  0  0  0  0  0
  -27.9703  -11.2765   19.0010 H   0  0  0  0  0  0
  -27.3986  -12.4239   17.8179 H   0  0  0  0  0  0
  -27.5710  -14.2461   19.3739 H   0  0  0  0  0  0
  -28.7791  -12.3962   21.4870 H   0  0  0  0  0  0
  -28.3623  -14.0793   21.7106 H   0  0  0  0  0  0
  -25.2793   -9.5686   22.4727 H   0  0  0  0  0  0
  -24.0020   -7.4641   22.7483 H   0  0  0  0  0  0
  -21.0844   -8.8751   19.8959 H   0  0  0  0  0  0
  -22.3701  -10.9649   19.6126 H   0  0  0  0  0  0
  -21.2000   -7.6135   23.9690 H   0  0  0  0  0  0
  -21.1528   -6.0520   25.9078 H   0  0  0  0  0  0
  -22.0588   -2.7582   23.2839 H   0  0  0  0  0  0
  -22.4118  -11.9909   22.4874 H   0  0  0  0  0  0
  -21.1053  -13.1194   22.2609 H   0  0  0  0  0  0
  -24.6520  -15.8598   20.5251 H   0  0  0  0  0  0
  -26.2635  -15.6299   20.0746 H   0  0  0  0  0  0
  -26.7309  -32.5231   23.0994 H   0  0  0  0  0  0
  -25.0006  -33.9582   25.0190 H   0  0  0  0  0  0
  -22.7648  -31.2789   21.3648 H   0  0  0  0  0  0
  -23.3752  -35.9539   23.3311 H   0  0  0  0  0  0
  -24.3596  -36.8873   22.2085 H   0  0  0  0  0  0
  -23.7246  -37.6409   23.6711 H   0  0  0  0  0  0
  -26.1875  -31.4445   20.6225 H   0  0  0  0  0  0
  -26.8771  -30.7370   22.0484 H   0  0  0  0  0  0
  -28.1351  -28.7546   21.2616 H   0  0  0  0  0  0
  -25.9621  -25.7896   19.0172 H   0  0  0  0  0  0
  -24.0072  -27.2643   18.9784 H   0  0  0  0  0  0
  -23.8289  -30.5378   19.3896 H   0  0  0  0  0  0
  -22.8038  -29.2116   19.8417 H   0  0  0  0  0  0
  -25.1336  -36.1811   25.0800 H   0  0  0  0  0  0
  -21.0043  -28.3347   24.1334 H   0  0  0  0  0  0
  -20.5684  -26.2365   23.3676 H   0  0  0  0  0  0
  -21.6655  -26.7422   22.1242 H   0  0  0  0  0  0
  -19.6910  -25.6286   21.1287 H   0  0  0  0  0  0
  -19.6676  -27.3195   20.6780 H   0  0  0  0  0  0
  -17.4225  -26.6753   21.4029 H   0  0  0  0  0  0
  -18.0287  -26.0093   22.9032 H   0  0  0  0  0  0
  -19.7988  -30.7342   24.2194 H   0  0  0  0  0  0
  -17.5045  -31.6266   24.5211 H   0  0  0  0  0  0
  -15.5380  -30.2992   23.7657 H   0  0  0  0  0  0
  -15.8721  -28.0827   22.7056 H   0  0  0  0  0  0
  -24.5831  -30.7201   25.7701 H   0  0  0  0  0  0
  -24.8845  -32.3031   26.4708 H   0  0  0  0  0  0
  -25.7884  -30.9070   27.0245 H   0  0  0  0  0  0
  -26.3036  -29.6688   24.1354 H   0  0  0  0  0  0
  -27.3904  -29.7308   25.4993 H   0  0  0  0  0  0
  -27.8955  -30.4181   23.9786 H   0  0  0  0  0  0
  -27.2638  -33.3683   26.1992 H   0  0  0  0  0  0
  -28.3820  -32.6914   25.0285 H   0  0  0  0  0  0
  -28.0720  -31.8564   26.5409 H   0  0  0  0  0  0
  -28.2580  -38.0054   24.7502 H   0  0  0  0  0  0
  -28.1047  -36.2578   24.6262 H   0  0  0  0  0  0
  -27.2294  -37.1415   25.8873 H   0  0  0  0  0  0
  -20.9519  -29.8700   21.6717 H   0  0  0  0  0  0
  -26.0103  -38.2793   24.1422 H   0  0  0  0  0  0
  -26.5420  -23.9842   21.4836 H   0  0  0  0  0  0
  -30.8303  -23.1322   18.4593 H   0  0  0  0  0  0
  -31.3841  -24.1033   19.8265 H   0  0  0  0  0  0
  -30.4742  -24.8560   18.5441 H   0  0  0  0  0  0
  -31.5878  -21.9770   20.7050 H   0  0  0  0  0  0
  -31.8164  -20.2501   20.5874 H   0  0  0  0  0  0
  -30.9491  -20.9351   21.9620 H   0  0  0  0  0  0
  -28.8391  -19.2350   21.4516 H   0  0  0  0  0  0
  -28.3658  -19.0974   19.8054 H   0  0  0  0  0  0
  -30.6822  -17.8659   19.3247 H   0  0  0  0  0  0
  -31.0321  -17.9491   21.0117 H   0  0  0  0  0  0
  -30.0454  -20.8391   19.0778 H   0  0  0  0  0  0
  -28.8156  -16.1102   20.6373 H   0  0  0  0  0  0
  1 25  1  0  0  0
  1 30  2  0  0  0
  1 81  1  0  0  0
  2  3  1  0  0  0
  2 25  1  0  0  0
  2 82  1  0  0  0
  2 83  1  0  0  0
  3  4  1  0  0  0
  3 84  1  0  0  0
  3 85  1  0  0  0
  4  5  1  0  0  0
  4 86  1  0  0  0
  4 87  1  0  0  0
  5  6  1  0  0  0
  5 26  1  0  0  0
  5 88  1  0  0  0
  6 25  1  0  0  0
  6 89  1  0  0  0
  6 90  1  0  0  0
  7  8  2  0  0  0
  7 26  1  0  0  0
  7 29  1  0  0  0
  8  9  1  0  0  0
  8 22  1  0  0  0
  9 10  1  0  0  0
  9 27  2  0  0  0
 10 11  2  0  0  0
 10 15  1  0  0  0
 11 12  1  0  0  0
 11 91  1  0  0  0
 12 13  2  0  0  0
 12 92  1  0  0  0
 13 14  1  0  0  0
 13 31  1  0  0  0
 14 15  2  0  0  0
 14 93  1  0  0  0
 15 94  1  0  0  0
 16 17  2  0  0  0
 16 21  1  0  0  0
 16 31  1  0  0  0
 17 18  1  0  0  0
 17 95  1  0  0  0
 18 19  2  0  0  0
 18 96  1  0  0  0
 19 20  1  0  0  0
 19 24  1  0  0  0
 20 21  2  0  0  0
 20 97  1  0  0  0
 21 23  1  0  0  0
 22 28  1  0  0  0
 22 32  2  0  0  0
 26 27  1  0  0  0
 28 98  1  0  0  0
 28 99  1  0  0  0
 29100  1  0  0  0
 29101  1  0  0  0
 33 34  1  0  0  0
 33 66  1  0  0  0
 33 70  2  0  0  0
 34 36  1  0  0  0
 34 59  1  0  0  0
 34102  1  0  0  0
 35 44  2  0  0  0
 35 45  1  0  0  0
 35 68  1  0  0  0
 36 56  1  0  0  0
 36103  1  0  0  0
 37 39  1  0  0  0
 37 47  1  0  0  0
 37 66  1  0  0  0
 37104  1  0  0  0
 38 43  2  0  0  0
 38 46  1  0  0  0
 38 47  1  0  0  0
 39 64  1  0  0  0
 39 67  2  0  0  0
 40 52  1  0  0  0
 40 53  2  0  0  0
 40 58  1  0  0  0
 41105  1  0  0  0
 41106  1  0  0  0
 41107  1  0  0  0
 41 48  1  0  0  0
 42 43  1  0  0  0
 42 66  1  0  0  0
 42108  1  0  0  0
 42109  1  0  0  0
 43 44  1  0  0  0
 44110  1  0  0  0
 45 46  2  0  0  0
 45111  1  0  0  0
 46112  1  0  0  0
 47113  1  0  0  0
 47114  1  0  0  0
 48 56  1  0  0  0
 48 65  1  0  0  0
 48115  1  0  0  0
 49 50  1  0  0  0
 49 53  1  0  0  0
 49 64  1  0  0  0
 49116  1  0  0  0
 50 51  1  0  0  0
 50117  1  0  0  0
 50118  1  0  0  0
 51 52  1  0  0  0
 51119  1  0  0  0
 51120  1  0  0  0
 52121  1  0  0  0
 52122  1  0  0  0
 53 54  1  0  0  0
 54 55  2  0  0  0
 54123  1  0  0  0
 55 57  1  0  0  0
 55124  1  0  0  0
 56 69  2  0  0  0
 57 58  2  0  0  0
 57125  1  0  0  0
 58126  1  0  0  0
 59 60  1  0  0  0
 59 61  1  0  0  0
 59 62  1  0  0  0
 60127  1  0  0  0
 60128  1  0  0  0
 60129  1  0  0  0
 61130  1  0  0  0
 61131  1  0  0  0
 61132  1  0  0  0
 62133  1  0  0  0
 62134  1  0  0  0
 62135  1  0  0  0
 63 65  1  0  0  0
 63136  1  0  0  0
 63137  1  0  0  0
 63138  1  0  0  0
 64139  1  0  0  0
 65140  1  0  0  0
 68 72  1  0  0  0
 71 72  1  0  0  0
 71 79  2  0  0  0
 71141  1  0  0  0
 72 73  2  0  0  0
 73 74  1  0  0  0
 73 80  1  0  0  0
 74142  1  0  0  0
 74143  1  0  0  0
 74144  1  0  0  0
 75145  1  0  0  0
 75146  1  0  0  0
 75147  1  0  0  0
 75 78  1  0  0  0
 76 77  1  0  0  0
 76 78  1  0  0  0
 76148  1  0  0  0
 76149  1  0  0  0
 77 81  1  0  0  0
 77150  1  0  0  0
 77151  1  0  0  0
 78 80  1  0  0  0
 78152  1  0  0  0
 79 80  1  0  0  0
 81153  1  0  0  0
M  ISO  4   1 100  68 101  72 101  81 100
M  END
> <chiral flag>
0

> <version>
0

> <s_m_source_file>
/data/baiqing/PycharmProjects/Reinvent-master-3.2/result/LINK_invent/BTK/process_docking_weight1_custom_sum_contain_oxygen_bond_distance_aromatic_linkinvent_7_9_3/rearranged_h_0052.sdf

> <i_m_source_file_index>
48

> <r_mmod_Potential_Energy-OPLS-2005>
597.294921875

> <r_mmod_Stretch_Energy-OPLS-2005>
325.934326171875

> <r_mmod_Bend_Energy-OPLS-2005>
292.522247314453

> <r_mmod_Torsional_Energy-OPLS-2005>
224.942077636719

> <r_mmod_Improper_Torsional_Energy-OPLS-2005>
4.97633934020996

> <r_mmod_Van_der_Waal_Energy-OPLS-2005>
102.479827880859

> <r_mmod_Electrostatic_Energy-OPLS-2005>
-372.656494140625

> <r_mmod_Solvation_Energy-OPLS-2005>
-222.268859863281

> <b_mmod_Minimization_Converged-OPLS-2005>
0

> <r_mmod_RMS_Derivative-OPLS-2005>
5.54255437850952

$$$$
48
                    3D
 Structure written by MMmdl.
165174  0  0  1  0            999 V2000
  -30.5745  -14.7672   20.5135 C   0  0  0  0  0  0
  -30.4229  -12.4615   19.5315 C   0  0  0  0  0  0
  -29.5208  -12.5135   18.2746 C   0  0  0  0  0  0
  -28.0446  -12.3273   18.6728 C   0  0  0  0  0  0
  -27.6406  -13.2279   19.8671 C   0  0  2  0  0  0
  -28.6655  -13.1807   21.0236 C   0  0  0  0  0  0
  -25.2481  -13.8186   20.5717 C   0  0  0  0  0  0
  -24.1780  -13.0466   20.9225 C   0  0  0  0  0  0
  -24.6344  -11.6923   20.8743 C   0  0  0  0  0  0
  -23.9011  -10.4294   21.0409 C   0  0  0  0  0  0
  -24.3580   -9.4208   21.9189 C   0  0  0  0  0  0
  -23.6284   -8.2227   22.0735 C   0  0  0  0  0  0
  -22.4273   -8.0234   21.3521 C   0  0  0  0  0  0
  -21.9912   -9.0208   20.4634 C   0  0  0  0  0  0
  -22.7197  -10.2107   20.3062 C   0  0  0  0  0  0
  -21.6858   -6.0676   22.5252 C   0  0  0  0  0  0
  -21.4002   -6.5612   23.8167 C   0  0  0  0  0  0
  -21.3695   -5.6791   24.9158 C   0  0  0  0  0  0
  -21.6059   -4.3052   24.7227 C   0  0  0  0  0  0
  -21.8804   -3.8113   23.4367 C   0  0  0  0  0  0
  -21.9187   -4.6903   22.3397 C   0  0  0  0  0  0
  -22.7797  -13.5227   21.1883 C   0  0  0  0  0  0
  -22.1658   -4.2092   21.0981 F   0  0  0  0  0  0
  -21.5652   -3.4562   25.7754 F   0  0  0  0  0  0
  -29.9740  -13.5275   20.4585 N   0  0  0  0  0  0
  -26.2904  -12.9399   20.3356 N   0  0  0  0  0  0
  -25.9276  -11.6546   20.5751 N   0  0  0  0  0  0
  -22.0448  -12.8225   22.0441 N   0  0  0  0  0  0
  -25.4209  -15.1915   20.4057 N   0  0  0  0  0  0
  -31.7454  -14.8946   20.1298 O   0  0  0  0  0  0
  -21.6640   -6.8838   21.4208 O   0  0  0  0  0  0
  -22.3498  -14.5566   20.6740 O   0  0  0  0  0  0
  -24.6345  -31.8499   23.1866 C   0  0  0  0  0  0
  -25.9081  -32.4739   23.8189 C   0  0  1  0  0  0
  -27.2472  -27.2780   20.1363 C   0  0  0  0  0  0
  -25.5848  -33.8542   24.2132 N   0  0  0  0  0  0
  -23.4399  -30.4706   21.5228 C   0  0  2  0  0  0
  -24.8853  -28.9065   20.1109 C   0  0  0  0  0  0
  -22.7626  -29.4720   22.4945 C   0  0  0  0  0  0
  -18.0446  -28.1448   22.8523 C   0  0  0  0  0  0
  -24.1460  -36.7277   23.2637 C   0  0  0  0  0  0
  -25.9771  -30.7820   21.3558 C   0  0  0  0  0  0
  -26.0570  -29.4008   20.7040 C   0  0  0  0  0  0
  -27.2387  -28.5984   20.7025 C   0  0  0  0  0  0
  -26.0523  -26.8397   19.5377 C   0  0  0  0  0  0
  -24.8866  -27.6355   19.5173 C   0  0  0  0  0  0
  -23.6478  -29.7800   20.1498 C   0  0  0  0  0  0
  -25.4102  -36.3099   24.0307 C   0  0  1  0  0  0
  -20.6166  -28.3566   23.1059 C   0  0  2  0  0  0
  -20.7220  -26.9597   22.4466 C   0  0  0  0  0  0
  -19.5876  -26.6872   21.4626 C   0  0  0  0  0  0
  -18.2031  -26.8306   22.1099 C   0  0  0  0  0  0
  -19.1780  -28.8780   23.2926 C   0  0  0  0  0  0
  -18.9822  -30.1386   23.9028 C   0  0  0  0  0  0
  -17.6847  -30.6629   24.0758 C   0  0  0  0  0  0
  -25.9034  -34.9430   23.5061 C   0  0  0  0  0  0
  -16.5680  -29.9194   23.6569 C   0  0  0  0  0  0
  -16.7477  -28.6591   23.0598 C   0  0  0  0  0  0
  -26.4456  -31.6627   25.0609 C   0  0  0  0  0  0
  -25.3719  -31.3819   26.1392 C   0  0  0  0  0  0
  -27.0403  -30.3072   24.6190 C   0  0  0  0  0  0
  -27.6018  -32.4392   25.7355 C   0  0  0  0  0  0
  -27.5562  -37.1793   24.8464 C   0  0  0  0  0  0
  -21.4421  -29.2949   22.3490 N   0  0  0  0  0  0
  -26.4255  -37.3826   23.9434 N   0  0  0  0  0  0
  -24.7005  -31.0535   22.0780 N   0  0  0  0  0  0
  -23.4310  -28.8416   23.3219 O   0  0  0  0  0  0
  -28.3772  -26.4321   20.1133 O   0  0  0  0  0  0
  -26.5719  -34.8918   22.4722 O   0  0  0  0  0  0
  -23.5490  -32.1255   23.7177 O   0  0  0  0  0  0
  -24.2695  -20.2498   20.2416 C   0  0  0  0  0  0
  -25.2433  -20.8283   19.4103 C   0  0  0  0  0  0
  -26.0026  -18.9475   21.3735 C   0  0  0  0  0  0
  -24.6507  -19.3068   21.2278 C   0  0  0  0  0  0
  -26.6083  -20.5378   19.5997 C   0  0  0  0  0  0
  -26.9817  -19.6228   20.6186 C   0  0  0  0  0  0
  -28.5976  -20.9116   20.0306 C   0  0  0  0  0  0
  -23.6251  -18.7287   22.1769 C   0  0  0  0  0  0
  -29.7601  -18.9484   22.6811 C   0  0  0  0  0  0
  -28.9655  -22.2742   20.7430 C   0  0  0  0  0  0
  -28.6135  -23.6931   19.9809 C   0  0  0  0  0  0
  -29.9521  -17.3669   20.4595 C   0  0  0  0  0  0
  -28.3431  -25.0817   20.7740 C   0  0  0  0  0  0
  -29.1583  -18.5088   21.3284 C   0  0  2  0  0  0
  -27.7233  -21.1116   19.0446 N   0  0  0  0  0  0
  -28.3847  -19.6442   20.6242 N   0  0  0  0  0  0
  -29.7817  -15.8733   20.8005 N   0  0  0  0  0  0
  -31.4756  -12.5617   19.2725 H   0  0  0  0  0  0
  -30.3219  -11.4900   20.0186 H   0  0  0  0  0  0
  -29.8179  -11.7490   17.5523 H   0  0  0  0  0  0
  -29.6493  -13.4718   17.7688 H   0  0  0  0  0  0
  -27.9089  -11.2812   18.9357 H   0  0  0  0  0  0
  -27.3961  -12.5048   17.8158 H   0  0  0  0  0  0
  -27.6350  -14.2414   19.4726 H   0  0  0  0  0  0
  -28.6935  -12.1865   21.4660 H   0  0  0  0  0  0
  -28.3877  -13.8649   21.8338 H   0  0  0  0  0  0
  -25.2694   -9.5702   22.4818 H   0  0  0  0  0  0
  -23.9976   -7.4602   22.7483 H   0  0  0  0  0  0
  -21.0829   -8.8698   19.8953 H   0  0  0  0  0  0
  -22.3597  -10.9639   19.6206 H   0  0  0  0  0  0
  -21.1965   -7.6129   23.9645 H   0  0  0  0  0  0
  -21.1575   -6.0554   25.9067 H   0  0  0  0  0  0
  -22.0562   -2.7579   23.2877 H   0  0  0  0  0  0
  -22.4053  -11.9919   22.4925 H   0  0  0  0  0  0
  -21.1005  -13.1156   22.2582 H   0  0  0  0  0  0
  -24.6435  -15.8397   20.4623 H   0  0  0  0  0  0
  -26.2726  -15.6204   20.0723 H   0  0  0  0  0  0
  -26.7111  -32.5420   23.0903 H   0  0  0  0  0  0
  -24.9779  -33.9643   25.0103 H   0  0  0  0  0  0
  -22.7404  -31.2872   21.3543 H   0  0  0  0  0  0
  -23.3737  -35.9600   23.3323 H   0  0  0  0  0  0
  -24.3460  -36.8899   22.2036 H   0  0  0  0  0  0
  -23.7152  -37.6452   23.6657 H   0  0  0  0  0  0
  -26.1087  -31.5509   20.5896 H   0  0  0  0  0  0
  -26.8580  -30.8397   21.9845 H   0  0  0  0  0  0
  -28.1437  -28.9702   21.1672 H   0  0  0  0  0  0
  -26.0152  -25.8607   19.0894 H   0  0  0  0  0  0
  -23.9861  -27.2344   19.0739 H   0  0  0  0  0  0
  -23.7259  -30.5323   19.3602 H   0  0  0  0  0  0
  -22.7741  -29.1787   19.8839 H   0  0  0  0  0  0
  -25.1307  -36.1929   25.0795 H   0  0  0  0  0  0
  -21.0480  -28.2738   24.1038 H   0  0  0  0  0  0
  -20.7480  -26.1745   23.2015 H   0  0  0  0  0  0
  -21.6811  -26.8534   21.9341 H   0  0  0  0  0  0
  -19.7078  -25.6968   21.0262 H   0  0  0  0  0  0
  -19.6760  -27.4063   20.6449 H   0  0  0  0  0  0
  -17.4492  -26.7731   21.3206 H   0  0  0  0  0  0
  -18.0002  -26.0214   22.8024 H   0  0  0  0  0  0
  -19.8351  -30.7200   24.2192 H   0  0  0  0  0  0
  -17.5627  -31.6352   24.5295 H   0  0  0  0  0  0
  -15.5686  -30.3182   23.7791 H   0  0  0  0  0  0
  -15.8664  -28.1101   22.7505 H   0  0  0  0  0  0
  -24.5834  -30.7222   25.7755 H   0  0  0  0  0  0
  -24.8944  -32.3028   26.4794 H   0  0  0  0  0  0
  -25.8036  -30.9000   27.0182 H   0  0  0  0  0  0
  -26.3055  -29.6685   24.1286 H   0  0  0  0  0  0
  -27.4217  -29.7501   25.4752 H   0  0  0  0  0  0
  -27.8843  -30.4406   23.9415 H   0  0  0  0  0  0
  -27.2639  -33.3722   26.1912 H   0  0  0  0  0  0
  -28.3822  -32.6908   25.0145 H   0  0  0  0  0  0
  -28.0696  -31.8496   26.5272 H   0  0  0  0  0  0
  -28.2668  -38.0031   24.7569 H   0  0  0  0  0  0
  -28.1012  -36.2580   24.6284 H   0  0  0  0  0  0
  -27.2289  -37.1454   25.8876 H   0  0  0  0  0  0
  -20.9911  -29.7716   21.5832 H   0  0  0  0  0  0
  -26.0151  -38.2913   24.1469 H   0  0  0  0  0  0
  -23.2395  -20.5738   20.1545 H   0  0  0  0  0  0
  -24.9638  -21.5850   18.6898 H   0  0  0  0  0  0
  -26.2885  -18.2554   22.1499 H   0  0  0  0  0  0
  -22.6421  -18.6651   21.7076 H   0  0  0  0  0  0
  -23.5490  -19.3736   23.0548 H   0  0  0  0  0  0
  -23.8973  -17.7265   22.5210 H   0  0  0  0  0  0
  -30.0349  -18.0841   23.2853 H   0  0  0  0  0  0
  -29.0152  -19.4874   23.2695 H   0  0  0  0  0  0
  -30.6279  -19.6041   22.5911 H   0  0  0  0  0  0
  -30.0225  -22.2608   21.0191 H   0  0  0  0  0  0
  -28.4105  -22.2785   21.6826 H   0  0  0  0  0  0
  -27.6773  -23.5660   19.4412 H   0  0  0  0  0  0
  -29.3548  -23.8652   19.2002 H   0  0  0  0  0  0
  -31.0210  -17.6011   20.4069 H   0  0  0  0  0  0
  -29.5877  -17.4691   19.4290 H   0  0  0  0  0  0
  -29.0917  -25.1498   21.5627 H   0  0  0  0  0  0
  -27.3869  -24.9873   21.2903 H   0  0  0  0  0  0
  -28.3663  -17.8601   21.6927 H   0  0  0  0  0  0
  -28.8516  -15.6376   21.1068 H   0  0  0  0  0  0
  1 25  1  0  0  0
  1 30  2  0  0  0
  1 87  1  0  0  0
  2  3  1  0  0  0
  2 25  1  0  0  0
  2 88  1  0  0  0
  2 89  1  0  0  0
  3  4  1  0  0  0
  3 90  1  0  0  0
  3 91  1  0  0  0
  4  5  1  0  0  0
  4 92  1  0  0  0
  4 93  1  0  0  0
  5  6  1  0  0  0
  5 26  1  0  0  0
  5 94  1  0  0  0
  6 25  1  0  0  0
  6 95  1  0  0  0
  6 96  1  0  0  0
  7  8  2  0  0  0
  7 26  1  0  0  0
  7 29  1  0  0  0
  8  9  1  0  0  0
  8 22  1  0  0  0
  9 10  1  0  0  0
  9 27  2  0  0  0
 10 11  2  0  0  0
 10 15  1  0  0  0
 11 12  1  0  0  0
 11 97  1  0  0  0
 12 13  2  0  0  0
 12 98  1  0  0  0
 13 14  1  0  0  0
 13 31  1  0  0  0
 14 15  2  0  0  0
 14 99  1  0  0  0
 15100  1  0  0  0
 16 17  2  0  0  0
 16 21  1  0  0  0
 16 31  1  0  0  0
 17 18  1  0  0  0
 17101  1  0  0  0
 18 19  2  0  0  0
 18102  1  0  0  0
 19 20  1  0  0  0
 19 24  1  0  0  0
 20 21  2  0  0  0
 20103  1  0  0  0
 21 23  1  0  0  0
 22 28  1  0  0  0
 22 32  2  0  0  0
 26 27  1  0  0  0
 28104  1  0  0  0
 28105  1  0  0  0
 29106  1  0  0  0
 29107  1  0  0  0
 33 34  1  0  0  0
 33 66  1  0  0  0
 33 70  2  0  0  0
 34 36  1  0  0  0
 34 59  1  0  0  0
 34108  1  0  0  0
 35 44  2  0  0  0
 35 45  1  0  0  0
 35 68  1  0  0  0
 36 56  1  0  0  0
 36109  1  0  0  0
 37 39  1  0  0  0
 37 47  1  0  0  0
 37 66  1  0  0  0
 37110  1  0  0  0
 38 43  2  0  0  0
 38 46  1  0  0  0
 38 47  1  0  0  0
 39 64  1  0  0  0
 39 67  2  0  0  0
 40 52  1  0  0  0
 40 53  2  0  0  0
 40 58  1  0  0  0
 41111  1  0  0  0
 41112  1  0  0  0
 41113  1  0  0  0
 41 48  1  0  0  0
 42 43  1  0  0  0
 42 66  1  0  0  0
 42114  1  0  0  0
 42115  1  0  0  0
 43 44  1  0  0  0
 44116  1  0  0  0
 45 46  2  0  0  0
 45117  1  0  0  0
 46118  1  0  0  0
 47119  1  0  0  0
 47120  1  0  0  0
 48 56  1  0  0  0
 48 65  1  0  0  0
 48121  1  0  0  0
 49 50  1  0  0  0
 49 53  1  0  0  0
 49 64  1  0  0  0
 49122  1  0  0  0
 50 51  1  0  0  0
 50123  1  0  0  0
 50124  1  0  0  0
 51 52  1  0  0  0
 51125  1  0  0  0
 51126  1  0  0  0
 52127  1  0  0  0
 52128  1  0  0  0
 53 54  1  0  0  0
 54 55  2  0  0  0
 54129  1  0  0  0
 55 57  1  0  0  0
 55130  1  0  0  0
 56 69  2  0  0  0
 57 58  2  0  0  0
 57131  1  0  0  0
 58132  1  0  0  0
 59 60  1  0  0  0
 59 61  1  0  0  0
 59 62  1  0  0  0
 60133  1  0  0  0
 60134  1  0  0  0
 60135  1  0  0  0
 61136  1  0  0  0
 61137  1  0  0  0
 61138  1  0  0  0
 62139  1  0  0  0
 62140  1  0  0  0
 62141  1  0  0  0
 63 65  1  0  0  0
 63142  1  0  0  0
 63143  1  0  0  0
 63144  1  0  0  0
 64145  1  0  0  0
 65146  1  0  0  0
 68 83  1  0  0  0
 71 72  2  0  0  0
 71 74  1  0  0  0
 71147  1  0  0  0
 72 75  1  0  0  0
 72148  1  0  0  0
 73 74  2  0  0  0
 73 76  1  0  0  0
 73149  1  0  0  0
 74 78  1  0  0  0
 75 76  2  0  0  0
 75 85  1  0  0  0
 76 86  1  0  0  0
 77 80  1  0  0  0
 77 85  2  0  0  0
 77 86  1  0  0  0
 78150  1  0  0  0
 78151  1  0  0  0
 78152  1  0  0  0
 79153  1  0  0  0
 79154  1  0  0  0
 79155  1  0  0  0
 79 84  1  0  0  0
 80 81  1  0  0  0
 80156  1  0  0  0
 80157  1  0  0  0
 81 83  1  0  0  0
 81158  1  0  0  0
 81159  1  0  0  0
 82 84  1  0  0  0
 82 87  1  0  0  0
 82160  1  0  0  0
 82161  1  0  0  0
 83162  1  0  0  0
 83163  1  0  0  0
 84 86  1  0  0  0
 84164  1  0  0  0
 87165  1  0  0  0
M  ISO  4   1 100  68 101  83 101  87 100
M  END
> <chiral flag>
0

> <version>
0

> <s_m_source_file>
/data/baiqing/PycharmProjects/Reinvent-master-3.2/result/LINK_invent/BTK/process_docking_weight1_custom_sum_contain_oxygen_bond_distance_aromatic_linkinvent_7_9_3/rearranged_h_0052.sdf

> <i_m_source_file_index>
49

> <r_mmod_Potential_Energy-OPLS-2005>
381.8505859375

> <r_mmod_Stretch_Energy-OPLS-2005>
149.778564453125

> <r_mmod_Bend_Energy-OPLS-2005>
239.810028076172

> <r_mmod_Torsional_Energy-OPLS-2005>
419.990905761719

> <r_mmod_Improper_Torsional_Energy-OPLS-2005>
21.305871963501

> <r_mmod_Van_der_Waal_Energy-OPLS-2005>
127.160774230957

> <r_mmod_Electrostatic_Energy-OPLS-2005>
-444.869537353516

> <r_mmod_Solvation_Energy-OPLS-2005>
-219.730438232422

> <b_mmod_Minimization_Converged-OPLS-2005>
0

> <r_mmod_RMS_Derivative-OPLS-2005>
12.9772911071777

$$$$
49
                    3D
 Structure written by MMmdl.
167175  0  0  1  0            999 V2000
  -30.3553  -15.3226   20.3421 C   0  0  0  0  0  0
  -30.4767  -12.8538   19.4934 C   0  0  0  0  0  0
  -29.5412  -12.6067   18.2740 C   0  0  0  0  0  0
  -28.0829  -12.3236   18.6955 C   0  0  0  0  0  0
  -27.6315  -13.2510   19.8502 C   0  0  2  0  0  0
  -28.6962  -13.3366   20.9615 C   0  0  0  0  0  0
  -25.2469  -13.8131   20.5632 C   0  0  0  0  0  0
  -24.1812  -13.0415   20.9189 C   0  0  0  0  0  0
  -24.6428  -11.6879   20.8774 C   0  0  0  0  0  0
  -23.9080  -10.4305   21.0418 C   0  0  0  0  0  0
  -24.3617   -9.4239   21.9208 C   0  0  0  0  0  0
  -23.6303   -8.2272   22.0771 C   0  0  0  0  0  0
  -22.4301   -8.0289   21.3547 C   0  0  0  0  0  0
  -21.9930   -9.0272   20.4652 C   0  0  0  0  0  0
  -22.7225  -10.2178   20.3075 C   0  0  0  0  0  0
  -21.6875   -6.0738   22.5271 C   0  0  0  0  0  0
  -21.4028   -6.5650   23.8203 C   0  0  0  0  0  0
  -21.3660   -5.6788   24.9149 C   0  0  0  0  0  0
  -21.6039   -4.3057   24.7202 C   0  0  0  0  0  0
  -21.8814   -3.8147   23.4329 C   0  0  0  0  0  0
  -21.9221   -4.6964   22.3381 C   0  0  0  0  0  0
  -22.7844  -13.5222   21.1824 C   0  0  0  0  0  0
  -22.1713   -4.2155   21.0962 F   0  0  0  0  0  0
  -21.5614   -3.4533   25.7716 F   0  0  0  0  0  0
  -29.8964  -13.9579   20.3529 N   0  0  0  0  0  0
  -26.2965  -12.9372   20.3389 N   0  0  0  0  0  0
  -25.9383  -11.6527   20.5796 N   0  0  0  0  0  0
  -22.0486  -12.8281   22.0420 N   0  0  0  0  0  0
  -25.4068  -15.1804   20.3677 N   0  0  0  0  0  0
  -31.5803  -15.3471   20.1442 O   0  0  0  0  0  0
  -21.6680   -6.8861   21.4233 O   0  0  0  0  0  0
  -22.3588  -14.5571   20.6681 O   0  0  0  0  0  0
  -24.6652  -31.8207   23.1643 C   0  0  0  0  0  0
  -25.9326  -32.4558   23.8140 C   0  0  1  0  0  0
  -27.2449  -26.9236   20.1811 C   0  0  0  0  0  0
  -25.5988  -33.8369   24.2051 N   0  0  0  0  0  0
  -23.4822  -30.4260   21.5155 C   0  0  2  0  0  0
  -24.9378  -28.8048   20.1153 C   0  0  0  0  0  0
  -22.7697  -29.4391   22.4787 C   0  0  0  0  0  0
  -18.0340  -28.1377   22.8456 C   0  0  0  0  0  0
  -24.1512  -36.7195   23.2643 C   0  0  0  0  0  0
  -26.0498  -30.6263   21.3945 C   0  0  0  0  0  0
  -26.1233  -29.2143   20.7393 C   0  0  0  0  0  0
  -27.2723  -28.2996   20.7339 C   0  0  0  0  0  0
  -26.0210  -26.6578   19.5300 C   0  0  0  0  0  0
  -24.9119  -27.5457   19.4896 C   0  0  0  0  0  0
  -23.7221  -29.7315   20.1467 C   0  0  0  0  0  0
  -25.4146  -36.2946   24.0293 C   0  0  1  0  0  0
  -20.5958  -28.3708   23.1186 C   0  0  2  0  0  0
  -20.6809  -26.9383   22.5398 C   0  0  0  0  0  0
  -19.5781  -26.6340   21.5217 C   0  0  0  0  0  0
  -18.1960  -26.7907   22.1625 C   0  0  0  0  0  0
  -19.1597  -28.8873   23.2801 C   0  0  0  0  0  0
  -18.9499  -30.1476   23.8805 C   0  0  0  0  0  0
  -17.6483  -30.6563   24.0525 C   0  0  0  0  0  0
  -25.9109  -34.9325   23.5002 C   0  0  0  0  0  0
  -16.5375  -29.9030   23.6330 C   0  0  0  0  0  0
  -16.7320  -28.6462   23.0336 C   0  0  0  0  0  0
  -26.4575  -31.6481   25.0657 C   0  0  0  0  0  0
  -25.3729  -31.3692   26.1334 C   0  0  0  0  0  0
  -27.0489  -30.2849   24.6384 C   0  0  0  0  0  0
  -27.6054  -32.4301   25.7473 C   0  0  0  0  0  0
  -27.5580  -37.1752   24.8455 C   0  0  0  0  0  0
  -21.4360  -29.3005   22.3550 N   0  0  0  0  0  0
  -26.4286  -37.3683   23.9402 N   0  0  0  0  0  0
  -24.7539  -30.9841   22.0796 N   0  0  0  0  0  0
  -23.4227  -28.7983   23.3066 O   0  0  0  0  0  0
  -28.2986  -25.8625   20.1507 O   0  0  0  0  0  0
  -26.5709  -34.8870   22.4595 O   0  0  0  0  0  0
  -23.5715  -32.1212   23.6700 O   0  0  0  0  0  0
  -28.8823  -19.7007   19.7362 C   0  0  0  0  0  0
  -29.2128  -21.0582   20.1836 C   0  0  0  0  0  0
  -30.4039  -19.2649   21.2038 C   0  0  0  0  0  0
  -33.6557  -17.5532   22.4763 C   0  0  0  0  0  0
  -28.0426  -22.6033   18.4262 C   0  0  0  0  0  0
  -30.2976  -23.2145   19.2008 C   0  0  0  0  0  0
  -28.6725  -16.7171   18.9112 C   0  0  0  0  0  0
  -28.3464  -16.6927   21.4127 C   0  0  0  0  0  0
  -31.3835  -18.6553   22.1543 C   0  0  0  0  0  0
  -32.6986  -18.2301   21.4873 C   0  0  0  0  0  0
  -28.2322  -24.2295   20.4615 C   0  0  0  0  0  0
  -28.9171  -22.7374   19.6880 C   0  0  0  0  0  0
  -29.3818  -16.8440   20.2802 C   0  0  0  0  0  0
  -29.6202  -18.5636   20.3451 N   0  0  0  0  0  0
  -30.1787  -20.6340   21.1010 N   0  3  0  0  0  0
  -31.4666  -13.1199   19.1201 H   0  0  0  0  0  0
  -30.6363  -11.9353   20.0602 H   0  0  0  0  0  0
  -29.9181  -11.7883   17.6609 H   0  0  0  0  0  0
  -29.5635  -13.4954   17.6406 H   0  0  0  0  0  0
  -28.0138  -11.2818   19.0161 H   0  0  0  0  0  0
  -27.4146  -12.4306   17.8401 H   0  0  0  0  0  0
  -27.5589  -14.2376   19.4076 H   0  0  0  0  0  0
  -28.9135  -12.3313   21.3317 H   0  0  0  0  0  0
  -28.3606  -13.8754   21.8454 H   0  0  0  0  0  0
  -25.2754   -9.5756   22.4795 H   0  0  0  0  0  0
  -24.0014   -7.4684   22.7507 H   0  0  0  0  0  0
  -21.0871   -8.8776   19.8963 H   0  0  0  0  0  0
  -22.3654  -10.9730   19.6194 H   0  0  0  0  0  0
  -21.2059   -7.6162   23.9697 H   0  0  0  0  0  0
  -21.1475   -6.0531   25.9052 H   0  0  0  0  0  0
  -22.0612   -2.7619   23.2810 H   0  0  0  0  0  0
  -22.4066  -11.9931   22.4801 H   0  0  0  0  0  0
  -21.1149  -13.1392   22.2636 H   0  0  0  0  0  0
  -24.6260  -15.8259   20.3948 H   0  0  0  0  0  0
  -26.2284  -15.5744   19.9299 H   0  0  0  0  0  0
  -26.7365  -32.5097   23.0841 H   0  0  0  0  0  0
  -25.0099  -33.9427   25.0174 H   0  0  0  0  0  0
  -22.7953  -31.2556   21.3381 H   0  0  0  0  0  0
  -23.3794  -35.9514   23.3260 H   0  0  0  0  0  0
  -24.3585  -36.8894   22.2064 H   0  0  0  0  0  0
  -23.7263  -37.6358   23.6745 H   0  0  0  0  0  0
  -26.2278  -31.3700   20.6165 H   0  0  0  0  0  0
  -26.9094  -30.6839   22.0497 H   0  0  0  0  0  0
  -28.1814  -28.6303   21.2132 H   0  0  0  0  0  0
  -25.9088  -25.7002   19.0413 H   0  0  0  0  0  0
  -24.0120  -27.2223   18.9832 H   0  0  0  0  0  0
  -23.8676  -30.4959   19.3819 H   0  0  0  0  0  0
  -22.8375  -29.1745   19.8358 H   0  0  0  0  0  0
  -25.1357  -36.1734   25.0779 H   0  0  0  0  0  0
  -21.0029  -28.3287   24.1319 H   0  0  0  0  0  0
  -20.5656  -26.2325   23.3647 H   0  0  0  0  0  0
  -21.6669  -26.7322   22.1221 H   0  0  0  0  0  0
  -19.6915  -25.6237   21.1272 H   0  0  0  0  0  0
  -19.6709  -27.3136   20.6727 H   0  0  0  0  0  0
  -17.4232  -26.6641   21.4020 H   0  0  0  0  0  0
  -18.0314  -26.0069   22.9031 H   0  0  0  0  0  0
  -19.7970  -30.7333   24.2091 H   0  0  0  0  0  0
  -17.5024  -31.6233   24.5162 H   0  0  0  0  0  0
  -15.5364  -30.2890   23.7710 H   0  0  0  0  0  0
  -15.8730  -28.0769   22.7039 H   0  0  0  0  0  0
  -24.5928  -30.7020   25.7627 H   0  0  0  0  0  0
  -24.8910  -32.2874   26.4679 H   0  0  0  0  0  0
  -25.8000  -30.8895   27.0150 H   0  0  0  0  0  0
  -26.3138  -29.6498   24.1405 H   0  0  0  0  0  0
  -27.4042  -29.7216   25.5015 H   0  0  0  0  0  0
  -27.9080  -30.4015   23.9784 H   0  0  0  0  0  0
  -27.2597  -33.3639   26.1921 H   0  0  0  0  0  0
  -28.3943  -32.6791   25.0362 H   0  0  0  0  0  0
  -28.0667  -31.8520   26.5495 H   0  0  0  0  0  0
  -28.2543  -38.0091   24.7538 H   0  0  0  0  0  0
  -28.1139  -36.2618   24.6275 H   0  0  0  0  0  0
  -27.2295  -37.1372   25.8851 H   0  0  0  0  0  0
  -20.9615  -29.8722   21.6701 H   0  0  0  0  0  0
  -26.0140  -38.2742   24.1406 H   0  0  0  0  0  0
  -28.1479  -19.4711   18.9789 H   0  0  0  0  0  0
  -34.6096  -17.3147   21.9978 H   0  0  0  0  0  0
  -33.2371  -16.6229   22.8684 H   0  0  0  0  0  0
  -33.8649  -18.2117   23.3215 H   0  0  0  0  0  0
  -28.4771  -21.9153   17.6972 H   0  0  0  0  0  0
  -27.9214  -23.5664   17.9255 H   0  0  0  0  0  0
  -27.0481  -22.2407   18.6797 H   0  0  0  0  0  0
  -30.7101  -22.5465   18.4432 H   0  0  0  0  0  0
  -31.0124  -23.2719   20.0195 H   0  0  0  0  0  0
  -30.2324  -24.2092   18.7559 H   0  0  0  0  0  0
  -27.6098  -16.9512   18.9817 H   0  0  0  0  0  0
  -28.7590  -15.7353   18.4481 H   0  0  0  0  0  0
  -29.1095  -17.4068   18.1866 H   0  0  0  0  0  0
  -28.8309  -16.6541   22.3919 H   0  0  0  0  0  0
  -27.7294  -15.8105   21.3021 H   0  0  0  0  0  0
  -27.6533  -17.5404   21.4256 H   0  0  0  0  0  0
  -30.8909  -17.8071   22.6283 H   0  0  0  0  0  0
  -31.5692  -19.3911   22.9349 H   0  0  0  0  0  0
  -32.4913  -17.5460   20.6701 H   0  0  0  0  0  0
  -33.1822  -19.0920   21.0285 H   0  0  0  0  0  0
  -28.6858  -24.2136   21.4542 H   0  0  0  0  0  0
  -27.1799  -24.0144   20.6492 H   0  0  0  0  0  0
  -30.7046  -21.2921   21.6618 H   0  0  0  0  0  0
  1 25  1  0  0  0
  1 30  2  0  0  0
  1 83  1  0  0  0
  2  3  1  0  0  0
  2 25  1  0  0  0
  2 86  1  0  0  0
  2 87  1  0  0  0
  3  4  1  0  0  0
  3 88  1  0  0  0
  3 89  1  0  0  0
  4  5  1  0  0  0
  4 90  1  0  0  0
  4 91  1  0  0  0
  5  6  1  0  0  0
  5 26  1  0  0  0
  5 92  1  0  0  0
  6 25  1  0  0  0
  6 93  1  0  0  0
  6 94  1  0  0  0
  7  8  2  0  0  0
  7 26  1  0  0  0
  7 29  1  0  0  0
  8  9  1  0  0  0
  8 22  1  0  0  0
  9 10  1  0  0  0
  9 27  2  0  0  0
 10 11  2  0  0  0
 10 15  1  0  0  0
 11 12  1  0  0  0
 11 95  1  0  0  0
 12 13  2  0  0  0
 12 96  1  0  0  0
 13 14  1  0  0  0
 13 31  1  0  0  0
 14 15  2  0  0  0
 14 97  1  0  0  0
 15 98  1  0  0  0
 16 17  2  0  0  0
 16 21  1  0  0  0
 16 31  1  0  0  0
 17 18  1  0  0  0
 17 99  1  0  0  0
 18 19  2  0  0  0
 18100  1  0  0  0
 19 20  1  0  0  0
 19 24  1  0  0  0
 20 21  2  0  0  0
 20101  1  0  0  0
 21 23  1  0  0  0
 22 28  1  0  0  0
 22 32  2  0  0  0
 26 27  1  0  0  0
 28102  1  0  0  0
 28103  1  0  0  0
 29104  1  0  0  0
 29105  1  0  0  0
 33 34  1  0  0  0
 33 66  1  0  0  0
 33 70  2  0  0  0
 34 36  1  0  0  0
 34 59  1  0  0  0
 34106  1  0  0  0
 35 44  2  0  0  0
 35 45  1  0  0  0
 35 68  1  0  0  0
 36 56  1  0  0  0
 36107  1  0  0  0
 37 39  1  0  0  0
 37 47  1  0  0  0
 37 66  1  0  0  0
 37108  1  0  0  0
 38 43  2  0  0  0
 38 46  1  0  0  0
 38 47  1  0  0  0
 39 64  1  0  0  0
 39 67  2  0  0  0
 40 52  1  0  0  0
 40 53  2  0  0  0
 40 58  1  0  0  0
 41109  1  0  0  0
 41110  1  0  0  0
 41111  1  0  0  0
 41 48  1  0  0  0
 42 43  1  0  0  0
 42 66  1  0  0  0
 42112  1  0  0  0
 42113  1  0  0  0
 43 44  1  0  0  0
 44114  1  0  0  0
 45 46  2  0  0  0
 45115  1  0  0  0
 46116  1  0  0  0
 47117  1  0  0  0
 47118  1  0  0  0
 48 56  1  0  0  0
 48 65  1  0  0  0
 48119  1  0  0  0
 49 50  1  0  0  0
 49 53  1  0  0  0
 49 64  1  0  0  0
 49120  1  0  0  0
 50 51  1  0  0  0
 50121  1  0  0  0
 50122  1  0  0  0
 51 52  1  0  0  0
 51123  1  0  0  0
 51124  1  0  0  0
 52125  1  0  0  0
 52126  1  0  0  0
 53 54  1  0  0  0
 54 55  2  0  0  0
 54127  1  0  0  0
 55 57  1  0  0  0
 55128  1  0  0  0
 56 69  2  0  0  0
 57 58  2  0  0  0
 57129  1  0  0  0
 58130  1  0  0  0
 59 60  1  0  0  0
 59 61  1  0  0  0
 59 62  1  0  0  0
 60131  1  0  0  0
 60132  1  0  0  0
 60133  1  0  0  0
 61134  1  0  0  0
 61135  1  0  0  0
 61136  1  0  0  0
 62137  1  0  0  0
 62138  1  0  0  0
 62139  1  0  0  0
 63 65  1  0  0  0
 63140  1  0  0  0
 63141  1  0  0  0
 63142  1  0  0  0
 64143  1  0  0  0
 65144  1  0  0  0
 68 81  1  0  0  0
 71 72  2  0  0  0
 71 84  1  0  0  0
 71145  1  0  0  0
 72 82  1  0  0  0
 72 85  1  0  0  0
 73 79  1  0  0  0
 73 84  1  0  0  0
 73 85  2  0  0  0
 74 80  1  0  0  0
 74146  1  0  0  0
 74147  1  0  0  0
 74148  1  0  0  0
 75149  1  0  0  0
 75150  1  0  0  0
 75151  1  0  0  0
 75 82  1  0  0  0
 76 82  1  0  0  0
 76152  1  0  0  0
 76153  1  0  0  0
 76154  1  0  0  0
 77155  1  0  0  0
 77156  1  0  0  0
 77157  1  0  0  0
 77 83  1  0  0  0
 78 83  1  0  0  0
 78158  1  0  0  0
 78159  1  0  0  0
 78160  1  0  0  0
 79 80  1  0  0  0
 79161  1  0  0  0
 79162  1  0  0  0
 80163  1  0  0  0
 80164  1  0  0  0
 81 82  1  0  0  0
 81165  1  0  0  0
 81166  1  0  0  0
 83 84  1  0  0  0
 85167  1  0  0  0
M  CHG  1  85   1
M  ISO  4   1 100  68 101  81 101  83 100
M  END
> <chiral flag>
0

> <version>
0

> <s_m_source_file>
/data/baiqing/PycharmProjects/Reinvent-master-3.2/result/LINK_invent/BTK/process_docking_weight1_custom_sum_contain_oxygen_bond_distance_aromatic_linkinvent_7_9_3/rearranged_h_0052.sdf

> <i_m_source_file_index>
50

> <r_mmod_Potential_Energy-OPLS-2005>
1503.599609375

> <r_mmod_Stretch_Energy-OPLS-2005>
665.807983398438

> <r_mmod_Bend_Energy-OPLS-2005>
517.576965332031

> <r_mmod_Torsional_Energy-OPLS-2005>
286.17431640625

> <r_mmod_Improper_Torsional_Energy-OPLS-2005>
10.0933933258057

> <r_mmod_Van_der_Waal_Energy-OPLS-2005>
105.154937744141

> <r_mmod_Electrostatic_Energy-OPLS-2005>
-172.545318603516

> <r_mmod_Solvation_Energy-OPLS-2005>
-381.005279541016

> <b_mmod_Minimization_Converged-OPLS-2005>
0

> <r_mmod_RMS_Derivative-OPLS-2005>
5.75441122055054

$$$$
50
                    3D
 Structure written by MMmdl.
166174  0  0  1  0            999 V2000
  -30.7379  -14.4281   20.5692 C   0  0  0  0  0  0
  -30.4077  -12.2788   19.4168 C   0  0  0  0  0  0
  -29.4888  -12.5096   18.2007 C   0  0  0  0  0  0
  -28.0087  -12.3797   18.6092 C   0  0  0  0  0  0
  -27.6614  -13.2095   19.8757 C   0  0  2  0  0  0
  -28.7056  -12.9852   20.9937 C   0  0  0  0  0  0
  -25.2590  -13.8176   20.5695 C   0  0  0  0  0  0
  -24.1843  -13.0441   20.9177 C   0  0  0  0  0  0
  -24.6386  -11.6899   20.8704 C   0  0  0  0  0  0
  -23.9056  -10.4292   21.0376 C   0  0  0  0  0  0
  -24.3617   -9.4219   21.9165 C   0  0  0  0  0  0
  -23.6309   -8.2245   22.0742 C   0  0  0  0  0  0
  -22.4284   -8.0274   21.3545 C   0  0  0  0  0  0
  -21.9906   -9.0241   20.4646 C   0  0  0  0  0  0
  -22.7218  -10.2131   20.3045 C   0  0  0  0  0  0
  -21.6855   -6.0730   22.5276 C   0  0  0  0  0  0
  -21.4013   -6.5632   23.8209 C   0  0  0  0  0  0
  -21.3675   -5.6788   24.9174 C   0  0  0  0  0  0
  -21.6054   -4.3050   24.7223 C   0  0  0  0  0  0
  -21.8828   -3.8141   23.4345 C   0  0  0  0  0  0
  -21.9203   -4.6957   22.3395 C   0  0  0  0  0  0
  -22.7880  -13.5232   21.1845 C   0  0  0  0  0  0
  -22.1674   -4.2142   21.0969 F   0  0  0  0  0  0
  -21.5632   -3.4533   25.7730 F   0  0  0  0  0  0
  -30.0408  -13.2686   20.4404 N   0  0  0  0  0  0
  -26.3031  -12.9339   20.3394 N   0  0  0  0  0  0
  -25.9313  -11.6494   20.5754 N   0  0  0  0  0  0
  -22.0526  -12.8222   22.0396 N   0  0  0  0  0  0
  -25.4343  -15.1894   20.4119 N   0  0  0  0  0  0
  -31.8536  -14.5996   20.0711 O   0  0  0  0  0  0
  -21.6649   -6.8877   21.4235 O   0  0  0  0  0  0
  -22.3569  -14.5542   20.6709 O   0  0  0  0  0  0
  -24.6120  -31.8688   23.2139 C   0  0  0  0  0  0
  -25.9023  -32.4833   23.8416 C   0  0  1  0  0  0
  -27.2349  -27.4429   20.0837 C   0  0  0  0  0  0
  -25.5887  -33.8635   24.2344 N   0  0  0  0  0  0
  -23.4003  -30.4933   21.5544 C   0  0  2  0  0  0
  -24.8452  -28.9613   20.1180 C   0  0  0  0  0  0
  -22.7396  -29.4653   22.5009 C   0  0  0  0  0  0
  -18.0264  -28.1372   22.8497 C   0  0  0  0  0  0
  -24.1487  -36.7322   23.2640 C   0  0  0  0  0  0
  -25.9299  -30.8341   21.3688 C   0  0  0  0  0  0
  -26.0060  -29.4714   20.7103 C   0  0  0  0  0  0
  -27.2023  -28.7197   20.6886 C   0  0  0  0  0  0
  -26.0487  -26.9430   19.4935 C   0  0  0  0  0  0
  -24.8599  -27.6954   19.5106 C   0  0  0  0  0  0
  -23.6081  -29.8273   20.1685 C   0  0  0  0  0  0
  -25.4110  -36.3121   24.0340 C   0  0  1  0  0  0
  -20.5851  -28.3646   23.1336 C   0  0  2  0  0  0
  -20.6752  -26.9387   22.5424 C   0  0  0  0  0  0
  -19.5739  -26.6378   21.5213 C   0  0  0  0  0  0
  -18.1917  -26.7927   22.1622 C   0  0  0  0  0  0
  -19.1517  -28.8828   23.2915 C   0  0  0  0  0  0
  -18.9445  -30.1437   23.8918 C   0  0  0  0  0  0
  -17.6450  -30.6581   24.0567 C   0  0  0  0  0  0
  -25.9026  -34.9483   23.5136 C   0  0  0  0  0  0
  -16.5338  -29.9082   23.6329 C   0  0  0  0  0  0
  -16.7258  -28.6500   23.0352 C   0  0  0  0  0  0
  -26.4455  -31.6621   25.0750 C   0  0  0  0  0  0
  -25.3723  -31.3731   26.1506 C   0  0  0  0  0  0
  -27.0275  -30.3061   24.6126 C   0  0  0  0  0  0
  -27.6036  -32.4347   25.7496 C   0  0  0  0  0  0
  -27.5586  -37.1819   24.8459 C   0  0  0  0  0  0
  -21.4129  -29.3022   22.3744 N   0  0  0  0  0  0
  -26.4304  -37.3803   23.9398 N   0  0  0  0  0  0
  -24.6652  -31.0793   22.1030 N   0  0  0  0  0  0
  -23.4191  -28.8185   23.3029 O   0  0  0  0  0  0
  -28.4230  -26.7395   20.0895 O   0  0  0  0  0  0
  -26.5588  -34.8924   22.4697 O   0  0  0  0  0  0
  -23.5318  -32.1430   23.7535 O   0  0  0  0  0  0
  -30.7859  -25.2528   20.6734 C   0  0  0  0  0  0
  -31.9609  -24.5113   20.8263 C   0  0  0  0  0  0
  -29.6983  -24.6152   20.0576 C   0  0  0  0  0  0
  -30.9726  -22.7198   19.7988 C   0  0  0  0  0  0
  -33.1971  -25.1031   21.4666 C   0  0  0  0  0  0
  -30.3936  -18.8386   17.8849 C   0  0  0  0  0  0
  -30.8578  -20.2612   21.4555 C   0  0  0  0  0  0
  -28.3665  -25.3288   19.8366 C   0  0  0  0  0  0
  -31.1254  -21.3120   19.2276 C   0  0  0  0  0  0
  -29.8181  -17.7178   20.0841 C   0  0  0  0  0  0
  -30.5538  -16.8508   21.1463 C   0  0  0  0  0  0
  -30.6601  -18.8583   19.4116 C   0  0  2  0  0  0
  -32.0452  -23.2452   20.3850 N   0  0  0  0  0  0
  -29.7998  -23.3336   19.6375 N   0  0  0  0  0  0
  -30.0869  -15.4525   21.1466 N   0  0  0  0  0  0
  -30.4714  -20.2258   20.0196 N   0  3  1  0  0  0
  -31.4541  -12.3510   19.1186 H   0  0  0  0  0  0
  -30.2754  -11.2670   19.8060 H   0  0  0  0  0  0
  -29.7210  -11.7955   17.4100 H   0  0  0  0  0  0
  -29.6738  -13.4992   17.7800 H   0  0  0  0  0  0
  -27.8055  -11.3245   18.7918 H   0  0  0  0  0  0
  -27.3645  -12.6720   17.7784 H   0  0  0  0  0  0
  -27.7074  -14.2598   19.5851 H   0  0  0  0  0  0
  -28.6684  -11.9519   21.3410 H   0  0  0  0  0  0
  -28.4779  -13.5997   21.8650 H   0  0  0  0  0  0
  -25.2771   -9.5706   22.4734 H   0  0  0  0  0  0
  -24.0037   -7.4635   22.7458 H   0  0  0  0  0  0
  -21.0840   -8.8749   19.8949 H   0  0  0  0  0  0
  -22.3673  -10.9666   19.6149 H   0  0  0  0  0  0
  -21.1989   -7.6144   23.9706 H   0  0  0  0  0  0
  -21.1499   -6.0517   25.9078 H   0  0  0  0  0  0
  -22.0593   -2.7603   23.2834 H   0  0  0  0  0  0
  -22.4162  -11.9893   22.4779 H   0  0  0  0  0  0
  -21.1146  -13.1250   22.2603 H   0  0  0  0  0  0
  -24.6701  -15.8483   20.5141 H   0  0  0  0  0  0
  -26.2936  -15.6270   20.1026 H   0  0  0  0  0  0
  -26.7087  -32.5532   23.1171 H   0  0  0  0  0  0
  -25.0043  -33.9804   25.0491 H   0  0  0  0  0  0
  -22.6886  -31.3098   21.4153 H   0  0  0  0  0  0
  -23.3750  -35.9654   23.3320 H   0  0  0  0  0  0
  -24.3581  -36.8919   22.2049 H   0  0  0  0  0  0
  -23.7235  -37.6534   23.6644 H   0  0  0  0  0  0
  -26.0471  -31.6051   20.6067 H   0  0  0  0  0  0
  -26.8161  -30.8802   21.9903 H   0  0  0  0  0  0
  -28.1013  -29.1121   21.1439 H   0  0  0  0  0  0
  -26.0151  -25.9800   19.0071 H   0  0  0  0  0  0
  -23.9641  -27.2981   19.0541 H   0  0  0  0  0  0
  -23.7185  -30.6012   19.4075 H   0  0  0  0  0  0
  -22.7325  -29.2474   19.8715 H   0  0  0  0  0  0
  -25.1291  -36.1997   25.0837 H   0  0  0  0  0  0
  -20.9951  -28.3200   24.1458 H   0  0  0  0  0  0
  -20.5643  -26.2252   23.3604 H   0  0  0  0  0  0
  -21.6624  -26.7420   22.1226 H   0  0  0  0  0  0
  -19.6893  -25.6292   21.1238 H   0  0  0  0  0  0
  -19.6691  -27.3194   20.6752 H   0  0  0  0  0  0
  -17.4191  -26.6690   21.4017 H   0  0  0  0  0  0
  -18.0307  -26.0054   22.8999 H   0  0  0  0  0  0
  -19.7916  -30.7247   24.2305 H   0  0  0  0  0  0
  -17.4999  -31.6268   24.5151 H   0  0  0  0  0  0
  -15.5342  -30.2988   23.7639 H   0  0  0  0  0  0
  -15.8661  -28.0821   22.7065 H   0  0  0  0  0  0
  -24.5888  -30.7085   25.7852 H   0  0  0  0  0  0
  -24.8918  -32.2885   26.4973 H   0  0  0  0  0  0
  -25.8079  -30.8891   27.0254 H   0  0  0  0  0  0
  -26.2813  -29.6857   24.1147 H   0  0  0  0  0  0
  -27.3997  -29.7280   25.4593 H   0  0  0  0  0  0
  -27.8679  -30.4390   23.9307 H   0  0  0  0  0  0
  -27.2658  -33.3630   26.2116 H   0  0  0  0  0  0
  -28.3811  -32.6942   25.0301 H   0  0  0  0  0  0
  -28.0742  -31.8452   26.5371 H   0  0  0  0  0  0
  -28.2617  -38.0106   24.7506 H   0  0  0  0  0  0
  -28.1076  -36.2641   24.6294 H   0  0  0  0  0  0
  -27.2307  -37.1477   25.8864 H   0  0  0  0  0  0
  -20.9285  -29.8758   21.6979 H   0  0  0  0  0  0
  -26.0200  -38.2887   24.1406 H   0  0  0  0  0  0
  -30.7168  -26.2785   21.0116 H   0  0  0  0  0  0
  -32.9253  -25.8030   22.2561 H   0  0  0  0  0  0
  -33.7879  -25.6355   20.7214 H   0  0  0  0  0  0
  -33.8224  -24.3249   21.9050 H   0  0  0  0  0  0
  -30.4711  -17.8279   17.4838 H   0  0  0  0  0  0
  -31.1216  -19.4198   17.3199 H   0  0  0  0  0  0
  -29.3981  -19.2103   17.6409 H   0  0  0  0  0  0
  -30.6915  -21.2378   21.9105 H   0  0  0  0  0  0
  -31.9097  -20.0056   21.5859 H   0  0  0  0  0  0
  -30.2650  -19.5633   22.0432 H   0  0  0  0  0  0
  -27.6262  -24.8625   20.4898 H   0  0  0  0  0  0
  -28.0638  -25.1512   18.8037 H   0  0  0  0  0  0
  -32.1852  -21.0857   19.0918 H   0  0  0  0  0  0
  -30.6900  -21.3686   18.2303 H   0  0  0  0  0  0
  -28.8902  -18.1118   20.5012 H   0  0  0  0  0  0
  -29.4861  -17.0356   19.2988 H   0  0  0  0  0  0
  -30.3935  -17.2554   22.1458 H   0  0  0  0  0  0
  -31.6333  -16.8909   20.9870 H   0  0  0  0  0  0
  -31.7161  -18.6028   19.5178 H   0  0  0  0  0  0
  -29.1740  -15.2579   21.5323 H   0  0  0  0  0  0
  -29.4921  -20.4701   19.9885 H   0  0  0  0  0  0
  1 25  1  0  0  0
  1 30  2  0  0  0
  1 85  1  0  0  0
  2  3  1  0  0  0
  2 25  1  0  0  0
  2 87  1  0  0  0
  2 88  1  0  0  0
  3  4  1  0  0  0
  3 89  1  0  0  0
  3 90  1  0  0  0
  4  5  1  0  0  0
  4 91  1  0  0  0
  4 92  1  0  0  0
  5  6  1  0  0  0
  5 26  1  0  0  0
  5 93  1  0  0  0
  6 25  1  0  0  0
  6 94  1  0  0  0
  6 95  1  0  0  0
  7  8  2  0  0  0
  7 26  1  0  0  0
  7 29  1  0  0  0
  8  9  1  0  0  0
  8 22  1  0  0  0
  9 10  1  0  0  0
  9 27  2  0  0  0
 10 11  2  0  0  0
 10 15  1  0  0  0
 11 12  1  0  0  0
 11 96  1  0  0  0
 12 13  2  0  0  0
 12 97  1  0  0  0
 13 14  1  0  0  0
 13 31  1  0  0  0
 14 15  2  0  0  0
 14 98  1  0  0  0
 15 99  1  0  0  0
 16 17  2  0  0  0
 16 21  1  0  0  0
 16 31  1  0  0  0
 17 18  1  0  0  0
 17100  1  0  0  0
 18 19  2  0  0  0
 18101  1  0  0  0
 19 20  1  0  0  0
 19 24  1  0  0  0
 20 21  2  0  0  0
 20102  1  0  0  0
 21 23  1  0  0  0
 22 28  1  0  0  0
 22 32  2  0  0  0
 26 27  1  0  0  0
 28103  1  0  0  0
 28104  1  0  0  0
 29105  1  0  0  0
 29106  1  0  0  0
 33 34  1  0  0  0
 33 66  1  0  0  0
 33 70  2  0  0  0
 34 36  1  0  0  0
 34 59  1  0  0  0
 34107  1  0  0  0
 35 44  2  0  0  0
 35 45  1  0  0  0
 35 68  1  0  0  0
 36 56  1  0  0  0
 36108  1  0  0  0
 37 39  1  0  0  0
 37 47  1  0  0  0
 37 66  1  0  0  0
 37109  1  0  0  0
 38 43  2  0  0  0
 38 46  1  0  0  0
 38 47  1  0  0  0
 39 64  1  0  0  0
 39 67  2  0  0  0
 40 52  1  0  0  0
 40 53  2  0  0  0
 40 58  1  0  0  0
 41110  1  0  0  0
 41111  1  0  0  0
 41112  1  0  0  0
 41 48  1  0  0  0
 42 43  1  0  0  0
 42 66  1  0  0  0
 42113  1  0  0  0
 42114  1  0  0  0
 43 44  1  0  0  0
 44115  1  0  0  0
 45 46  2  0  0  0
 45116  1  0  0  0
 46117  1  0  0  0
 47118  1  0  0  0
 47119  1  0  0  0
 48 56  1  0  0  0
 48 65  1  0  0  0
 48120  1  0  0  0
 49 50  1  0  0  0
 49 53  1  0  0  0
 49 64  1  0  0  0
 49121  1  0  0  0
 50 51  1  0  0  0
 50122  1  0  0  0
 50123  1  0  0  0
 51 52  1  0  0  0
 51124  1  0  0  0
 51125  1  0  0  0
 52126  1  0  0  0
 52127  1  0  0  0
 53 54  1  0  0  0
 54 55  2  0  0  0
 54128  1  0  0  0
 55 57  1  0  0  0
 55129  1  0  0  0
 56 69  2  0  0  0
 57 58  2  0  0  0
 57130  1  0  0  0
 58131  1  0  0  0
 59 60  1  0  0  0
 59 61  1  0  0  0
 59 62  1  0  0  0
 60132  1  0  0  0
 60133  1  0  0  0
 60134  1  0  0  0
 61135  1  0  0  0
 61136  1  0  0  0
 61137  1  0  0  0
 62138  1  0  0  0
 62139  1  0  0  0
 62140  1  0  0  0
 63 65  1  0  0  0
 63141  1  0  0  0
 63142  1  0  0  0
 63143  1  0  0  0
 64144  1  0  0  0
 65145  1  0  0  0
 68 78  1  0  0  0
 71 72  2  0  0  0
 71 73  1  0  0  0
 71146  1  0  0  0
 72 75  1  0  0  0
 72 83  1  0  0  0
 73 78  1  0  0  0
 73 84  2  0  0  0
 74 79  1  0  0  0
 74 83  2  0  0  0
 74 84  1  0  0  0
 75147  1  0  0  0
 75148  1  0  0  0
 75149  1  0  0  0
 76150  1  0  0  0
 76151  1  0  0  0
 76152  1  0  0  0
 76 82  1  0  0  0
 77153  1  0  0  0
 77154  1  0  0  0
 77155  1  0  0  0
 77 86  1  0  0  0
 78156  1  0  0  0
 78157  1  0  0  0
 79 86  1  0  0  0
 79158  1  0  0  0
 79159  1  0  0  0
 80 81  1  0  0  0
 80 82  1  0  0  0
 80160  1  0  0  0
 80161  1  0  0  0
 81 85  1  0  0  0
 81162  1  0  0  0
 81163  1  0  0  0
 82 86  1  0  0  0
 82164  1  0  0  0
 85165  1  0  0  0
 86166  1  0  0  0
M  CHG  1  86   1
M  ISO  4   1 100  68 101  78 101  85 100
M  END
> <chiral flag>
0

> <version>
0

> <s_m_source_file>
/data/baiqing/PycharmProjects/Reinvent-master-3.2/result/LINK_invent/BTK/process_docking_weight1_custom_sum_contain_oxygen_bond_distance_aromatic_linkinvent_7_9_3/rearranged_h_0052.sdf

> <i_m_source_file_index>
51

> <r_mmod_Potential_Energy-OPLS-2005>
-628.752502441406

> <r_mmod_Stretch_Energy-OPLS-2005>
39.3799896240234

> <r_mmod_Bend_Energy-OPLS-2005>
105.493179321289

> <r_mmod_Torsional_Energy-OPLS-2005>
224.443389892578

> <r_mmod_Improper_Torsional_Energy-OPLS-2005>
3.33854341506958

> <r_mmod_Van_der_Waal_Energy-OPLS-2005>
177.209701538086

> <r_mmod_Electrostatic_Energy-OPLS-2005>
-749.568481445312

> <r_mmod_Solvation_Energy-OPLS-2005>
-440.020324707031

> <b_mmod_Minimization_Converged-OPLS-2005>
0

> <r_mmod_RMS_Derivative-OPLS-2005>
2.37089323997498

$$$$
51
                    3D
 Structure written by MMmdl.
151159  0  0  1  0            999 V2000
  -30.4182  -15.4086   20.3814 C   0  0  0  0  0  0
  -30.4367  -12.9301   19.4909 C   0  0  0  0  0  0
  -29.5232  -12.6032   18.2804 C   0  0  0  0  0  0
  -28.0924  -12.2866   18.7476 C   0  0  0  0  0  0
  -27.6025  -13.2843   19.8167 C   0  0  2  0  0  0
  -28.6477  -13.5344   20.9270 C   0  0  0  0  0  0
  -25.2292  -13.8214   20.5774 C   0  0  0  0  0  0
  -24.1690  -13.0377   20.9349 C   0  0  0  0  0  0
  -24.6376  -11.6918   20.8820 C   0  0  0  0  0  0
  -23.9109  -10.4235   21.0421 C   0  0  0  0  0  0
  -24.3632   -9.4126   21.9191 C   0  0  0  0  0  0
  -23.6257   -8.2172   22.0760 C   0  0  0  0  0  0
  -22.4239   -8.0236   21.3543 C   0  0  0  0  0  0
  -21.9910   -9.0229   20.4645 C   0  0  0  0  0  0
  -22.7283  -10.2087   20.3063 C   0  0  0  0  0  0
  -21.6823   -6.0663   22.5279 C   0  0  0  0  0  0
  -21.3968   -6.5561   23.8203 C   0  0  0  0  0  0
  -21.3685   -5.6737   24.9182 C   0  0  0  0  0  0
  -21.6069   -4.3003   24.7240 C   0  0  0  0  0  0
  -21.8818   -3.8080   23.4364 C   0  0  0  0  0  0
  -21.9182   -4.6884   22.3413 C   0  0  0  0  0  0
  -22.7705  -13.5135   21.1951 C   0  0  0  0  0  0
  -22.1664   -4.2073   21.0990 F   0  0  0  0  0  0
  -21.5674   -3.4500   25.7770 F   0  0  0  0  0  0
  -29.8510  -14.0873   20.2714 N   0  0  0  0  0  0
  -26.2787  -12.9552   20.3330 N   0  0  0  0  0  0
  -25.9337  -11.6632   20.5802 N   0  0  0  0  0  0
  -22.0368  -12.8103   22.0524 N   0  0  0  0  0  0
  -25.3589  -15.1920   20.3976 N   0  0  0  0  0  0
  -31.6559  -15.3599   20.2904 O   0  0  0  0  0  0
  -21.6608   -6.8823   21.4242 O   0  0  0  0  0  0
  -22.3378  -14.5438   20.6794 O   0  0  0  0  0  0
  -24.6717  -31.8143   23.1667 C   0  0  0  0  0  0
  -25.9350  -32.4543   23.8154 C   0  0  1  0  0  0
  -27.1943  -26.8215   20.2415 C   0  0  0  0  0  0
  -25.5969  -33.8370   24.2046 N   0  0  0  0  0  0
  -23.4881  -30.4249   21.5184 C   0  0  2  0  0  0
  -24.9374  -28.7905   20.1225 C   0  0  0  0  0  0
  -22.7696  -29.4398   22.4770 C   0  0  0  0  0  0
  -18.0333  -28.1411   22.8481 C   0  0  0  0  0  0
  -24.1505  -36.7194   23.2647 C   0  0  0  0  0  0
  -26.0607  -30.5892   21.4102 C   0  0  0  0  0  0
  -26.1222  -29.1649   20.7698 C   0  0  0  0  0  0
  -27.2437  -28.2040   20.8003 C   0  0  0  0  0  0
  -25.9845  -26.6205   19.5374 C   0  0  0  0  0  0
  -24.9011  -27.5449   19.4784 C   0  0  0  0  0  0
  -23.7311  -29.7353   20.1484 C   0  0  0  0  0  0
  -25.4153  -36.2955   24.0299 C   0  0  1  0  0  0
  -20.5952  -28.3765   23.1190 C   0  0  2  0  0  0
  -20.6820  -26.9429   22.5413 C   0  0  0  0  0  0
  -19.5781  -26.6385   21.5227 C   0  0  0  0  0  0
  -18.1957  -26.7946   22.1632 C   0  0  0  0  0  0
  -19.1593  -28.8923   23.2807 C   0  0  0  0  0  0
  -18.9485  -30.1499   23.8852 C   0  0  0  0  0  0
  -17.6474  -30.6595   24.0567 C   0  0  0  0  0  0
  -25.9111  -34.9314   23.4996 C   0  0  0  0  0  0
  -16.5373  -29.9081   23.6327 C   0  0  0  0  0  0
  -16.7309  -28.6493   23.0372 C   0  0  0  0  0  0
  -26.4582  -31.6524   25.0702 C   0  0  0  0  0  0
  -25.3701  -31.3768   26.1348 C   0  0  0  0  0  0
  -27.0458  -30.2899   24.6435 C   0  0  0  0  0  0
  -27.6072  -32.4329   25.7502 C   0  0  0  0  0  0
  -27.5575  -37.1761   24.8460 C   0  0  0  0  0  0
  -21.4358  -29.3011   22.3537 N   0  0  0  0  0  0
  -26.4294  -37.3697   23.9382 N   0  0  0  0  0  0
  -24.7632  -30.9741   22.0851 N   0  0  0  0  0  0
  -23.4211  -28.7972   23.3023 O   0  0  0  0  0  0
  -28.1792  -25.6708   20.3160 O   0  0  0  0  0  0
  -26.5707  -34.8871   22.4588 O   0  0  0  0  0  0
  -23.5757  -32.1142   23.6684 O   0  0  0  0  0  0
  -29.7976  -22.5875   19.1646 C   0  0  0  0  0  0
  -30.5174  -21.4348   18.7728 C   0  0  0  0  0  0
  -28.8479  -22.5345   20.1973 C   0  0  0  0  0  0
  -29.5033  -19.9563   20.2770 C   0  0  0  0  0  0
  -31.6041  -21.4977   17.7272 C   0  0  0  0  0  0
  -28.3280  -16.6819   19.8311 C   0  0  0  0  0  0
  -27.8773  -24.0103   20.4297 C   0  0  0  0  0  0
  -29.8277  -18.3320   20.9178 C   0  0  0  0  0  0
  -30.3416  -20.1935   19.2787 N   0  0  0  0  0  0
  -28.7737  -21.1396   20.7410 N   0  0  0  0  0  0
  -29.6617  -16.7252   20.4063 N   0  0  0  0  0  0
  -31.4287  -13.1865   19.1154 H   0  0  0  0  0  0
  -30.5656  -12.0491   20.1199 H   0  0  0  0  0  0
  -29.9201  -11.7559   17.7200 H   0  0  0  0  0  0
  -29.5127  -13.4529   17.6009 H   0  0  0  0  0  0
  -28.1018  -11.2815   19.1710 H   0  0  0  0  0  0
  -27.4015  -12.2600   17.9048 H   0  0  0  0  0  0
  -27.4789  -14.2092   19.2633 H   0  0  0  0  0  0
  -28.8576  -12.6258   21.4828 H   0  0  0  0  0  0
  -28.2692  -14.2548   21.6510 H   0  0  0  0  0  0
  -25.2759   -9.5530   22.4751 H   0  0  0  0  0  0
  -23.9942   -7.4509   22.7442 H   0  0  0  0  0  0
  -21.0860   -8.8722   19.8903 H   0  0  0  0  0  0
  -22.3757  -10.9601   19.6137 H   0  0  0  0  0  0
  -21.1902   -7.6059   23.9699 H   0  0  0  0  0  0
  -21.1555   -6.0459   25.9097 H   0  0  0  0  0  0
  -22.0579   -2.7536   23.2903 H   0  0  0  0  0  0
  -22.4045  -11.9793   22.4860 H   0  0  0  0  0  0
  -21.0971  -13.1053   22.2726 H   0  0  0  0  0  0
  -24.5506  -15.8090   20.4519 H   0  0  0  0  0  0
  -26.1552  -15.6259   19.9491 H   0  0  0  0  0  0
  -26.7402  -32.5059   23.0836 H   0  0  0  0  0  0
  -25.0079  -33.9439   25.0178 H   0  0  0  0  0  0
  -22.8082  -31.2603   21.3439 H   0  0  0  0  0  0
  -23.3780  -35.9506   23.3281 H   0  0  0  0  0  0
  -24.3602  -36.8868   22.2069 H   0  0  0  0  0  0
  -23.7253  -37.6377   23.6721 H   0  0  0  0  0  0
  -26.2388  -31.3100   20.6119 H   0  0  0  0  0  0
  -26.9262  -30.6640   22.0576 H   0  0  0  0  0  0
  -28.1395  -28.4849   21.3359 H   0  0  0  0  0  0
  -25.8378  -25.6732   19.0402 H   0  0  0  0  0  0
  -24.0094  -27.2584   18.9393 H   0  0  0  0  0  0
  -23.8977  -30.4979   19.3875 H   0  0  0  0  0  0
  -22.8360  -29.1982   19.8287 H   0  0  0  0  0  0
  -25.1362  -36.1763   25.0799 H   0  0  0  0  0  0
  -21.0048  -28.3357   24.1317 H   0  0  0  0  0  0
  -20.5732  -26.2346   23.3646 H   0  0  0  0  0  0
  -21.6677  -26.7411   22.1185 H   0  0  0  0  0  0
  -19.6930  -25.6280   21.1276 H   0  0  0  0  0  0
  -19.6733  -27.3188   20.6752 H   0  0  0  0  0  0
  -17.4229  -26.6690   21.4027 H   0  0  0  0  0  0
  -18.0338  -26.0109   22.9052 H   0  0  0  0  0  0
  -19.7969  -30.7333   24.2198 H   0  0  0  0  0  0
  -17.5030  -31.6281   24.5145 H   0  0  0  0  0  0
  -15.5374  -30.2960   23.7714 H   0  0  0  0  0  0
  -15.8717  -28.0815   22.7113 H   0  0  0  0  0  0
  -24.5912  -30.7089   25.7663 H   0  0  0  0  0  0
  -24.8854  -32.2946   26.4678 H   0  0  0  0  0  0
  -25.7945  -30.9013   27.0195 H   0  0  0  0  0  0
  -26.3113  -29.6593   24.1423 H   0  0  0  0  0  0
  -27.3958  -29.7265   25.5089 H   0  0  0  0  0  0
  -27.9073  -30.4087   23.9865 H   0  0  0  0  0  0
  -27.2666  -33.3680   26.1954 H   0  0  0  0  0  0
  -28.3964  -32.6802   25.0390 H   0  0  0  0  0  0
  -28.0643  -31.8529   26.5522 H   0  0  0  0  0  0
  -28.2576  -38.0074   24.7506 H   0  0  0  0  0  0
  -28.1088  -36.2593   24.6309 H   0  0  0  0  0  0
  -27.2255  -37.1418   25.8854 H   0  0  0  0  0  0
  -20.9628  -29.8696   21.6639 H   0  0  0  0  0  0
  -26.0135  -38.2745   24.1433 H   0  0  0  0  0  0
  -29.9406  -23.5276   18.6520 H   0  0  0  0  0  0
  -32.1059  -22.4633   17.7079 H   0  0  0  0  0  0
  -31.1889  -21.2833   16.7467 H   0  0  0  0  0  0
  -32.3603  -20.7437   17.9471 H   0  0  0  0  0  0
  -27.6894  -16.1394   20.5137 H   0  0  0  0  0  0
  -28.3438  -16.1994   18.8584 H   0  0  0  0  0  0
  -27.8758  -17.6630   19.6879 H   0  0  0  0  0  0
  -27.3508  -23.8375   21.3694 H   0  0  0  0  0  0
  -27.1031  -23.8589   19.6772 H   0  0  0  0  0  0
  -30.8951  -18.3944   21.1178 H   0  0  0  0  0  0
  -29.4036  -18.3340   21.9251 H   0  0  0  0  0  0
  1 25  1  0  0  0
  1 30  2  0  0  0
  1 81  1  0  0  0
  2  3  1  0  0  0
  2 25  1  0  0  0
  2 82  1  0  0  0
  2 83  1  0  0  0
  3  4  1  0  0  0
  3 84  1  0  0  0
  3 85  1  0  0  0
  4  5  1  0  0  0
  4 86  1  0  0  0
  4 87  1  0  0  0
  5  6  1  0  0  0
  5 26  1  0  0  0
  5 88  1  0  0  0
  6 25  1  0  0  0
  6 89  1  0  0  0
  6 90  1  0  0  0
  7  8  2  0  0  0
  7 26  1  0  0  0
  7 29  1  0  0  0
  8  9  1  0  0  0
  8 22  1  0  0  0
  9 10  1  0  0  0
  9 27  2  0  0  0
 10 11  2  0  0  0
 10 15  1  0  0  0
 11 12  1  0  0  0
 11 91  1  0  0  0
 12 13  2  0  0  0
 12 92  1  0  0  0
 13 14  1  0  0  0
 13 31  1  0  0  0
 14 15  2  0  0  0
 14 93  1  0  0  0
 15 94  1  0  0  0
 16 17  2  0  0  0
 16 21  1  0  0  0
 16 31  1  0  0  0
 17 18  1  0  0  0
 17 95  1  0  0  0
 18 19  2  0  0  0
 18 96  1  0  0  0
 19 20  1  0  0  0
 19 24  1  0  0  0
 20 21  2  0  0  0
 20 97  1  0  0  0
 21 23  1  0  0  0
 22 28  1  0  0  0
 22 32  2  0  0  0
 26 27  1  0  0  0
 28 98  1  0  0  0
 28 99  1  0  0  0
 29100  1  0  0  0
 29101  1  0  0  0
 33 34  1  0  0  0
 33 66  1  0  0  0
 33 70  2  0  0  0
 34 36  1  0  0  0
 34 59  1  0  0  0
 34102  1  0  0  0
 35 44  2  0  0  0
 35 45  1  0  0  0
 35 68  1  0  0  0
 36 56  1  0  0  0
 36103  1  0  0  0
 37 39  1  0  0  0
 37 47  1  0  0  0
 37 66  1  0  0  0
 37104  1  0  0  0
 38 43  2  0  0  0
 38 46  1  0  0  0
 38 47  1  0  0  0
 39 64  1  0  0  0
 39 67  2  0  0  0
 40 52  1  0  0  0
 40 53  2  0  0  0
 40 58  1  0  0  0
 41105  1  0  0  0
 41106  1  0  0  0
 41107  1  0  0  0
 41 48  1  0  0  0
 42 43  1  0  0  0
 42 66  1  0  0  0
 42108  1  0  0  0
 42109  1  0  0  0
 43 44  1  0  0  0
 44110  1  0  0  0
 45 46  2  0  0  0
 45111  1  0  0  0
 46112  1  0  0  0
 47113  1  0  0  0
 47114  1  0  0  0
 48 56  1  0  0  0
 48 65  1  0  0  0
 48115  1  0  0  0
 49 50  1  0  0  0
 49 53  1  0  0  0
 49 64  1  0  0  0
 49116  1  0  0  0
 50 51  1  0  0  0
 50117  1  0  0  0
 50118  1  0  0  0
 51 52  1  0  0  0
 51119  1  0  0  0
 51120  1  0  0  0
 52121  1  0  0  0
 52122  1  0  0  0
 53 54  1  0  0  0
 54 55  2  0  0  0
 54123  1  0  0  0
 55 57  1  0  0  0
 55124  1  0  0  0
 56 69  2  0  0  0
 57 58  2  0  0  0
 57125  1  0  0  0
 58126  1  0  0  0
 59 60  1  0  0  0
 59 61  1  0  0  0
 59 62  1  0  0  0
 60127  1  0  0  0
 60128  1  0  0  0
 60129  1  0  0  0
 61130  1  0  0  0
 61131  1  0  0  0
 61132  1  0  0  0
 62133  1  0  0  0
 62134  1  0  0  0
 62135  1  0  0  0
 63 65  1  0  0  0
 63136  1  0  0  0
 63137  1  0  0  0
 63138  1  0  0  0
 64139  1  0  0  0
 65140  1  0  0  0
 68 77  1  0  0  0
 71 72  2  0  0  0
 71 73  1  0  0  0
 71141  1  0  0  0
 72 75  1  0  0  0
 72 79  1  0  0  0
 73 77  1  0  0  0
 73 80  2  0  0  0
 74 78  1  0  0  0
 74 79  2  0  0  0
 74 80  1  0  0  0
 75142  1  0  0  0
 75143  1  0  0  0
 75144  1  0  0  0
 76 81  1  0  0  0
 76145  1  0  0  0
 76146  1  0  0  0
 76147  1  0  0  0
 77148  1  0  0  0
 77149  1  0  0  0
 78 81  1  0  0  0
 78150  1  0  0  0
 78151  1  0  0  0
M  ISO  4   1 100  68 101  77 101  81 100
M  END
> <chiral flag>
0

> <version>
0

> <s_m_source_file>
/data/baiqing/PycharmProjects/Reinvent-master-3.2/result/LINK_invent/BTK/process_docking_weight1_custom_sum_contain_oxygen_bond_distance_aromatic_linkinvent_7_9_3/rearranged_h_0052.sdf

> <i_m_source_file_index>
52

> <r_mmod_Potential_Energy-OPLS-2005>
1235.07360839844

> <r_mmod_Stretch_Energy-OPLS-2005>
687.514343261719

> <r_mmod_Bend_Energy-OPLS-2005>
499.993438720703

> <r_mmod_Torsional_Energy-OPLS-2005>
278.279266357422

> <r_mmod_Improper_Torsional_Energy-OPLS-2005>
8.05937099456787

> <r_mmod_Van_der_Waal_Energy-OPLS-2005>
135.196228027344

> <r_mmod_Electrostatic_Energy-OPLS-2005>
-753.199401855469

> <r_mmod_Solvation_Energy-OPLS-2005>
-248.123687744141

> <b_mmod_Minimization_Converged-OPLS-2005>
0

> <r_mmod_RMS_Derivative-OPLS-2005>
9.21270751953125

$$$$
52
                    3D
 Structure written by MMmdl.
172181  0  0  1  0            999 V2000
  -30.6156  -15.0152   20.2741 C   0  0  0  0  0  0
  -30.4384  -12.6362   19.4306 C   0  0  0  0  0  0
  -29.4920  -12.4021   18.2325 C   0  0  0  0  0  0
  -28.0321  -12.2485   18.6896 C   0  0  0  0  0  0
  -27.6138  -13.2424   19.8047 C   0  0  2  0  0  0
  -28.6890  -13.4003   20.8971 C   0  0  0  0  0  0
  -25.2475  -13.8219   20.5802 C   0  0  0  0  0  0
  -24.1774  -13.0453   20.9287 C   0  0  0  0  0  0
  -24.6379  -11.6942   20.8819 C   0  0  0  0  0  0
  -23.9059  -10.4310   21.0439 C   0  0  0  0  0  0
  -24.3622   -9.4217   21.9204 C   0  0  0  0  0  0
  -23.6305   -8.2242   22.0759 C   0  0  0  0  0  0
  -22.4289   -8.0278   21.3536 C   0  0  0  0  0  0
  -21.9921   -9.0259   20.4642 C   0  0  0  0  0  0
  -22.7240  -10.2149   20.3072 C   0  0  0  0  0  0
  -21.6853   -6.0738   22.5271 C   0  0  0  0  0  0
  -21.4018   -6.5640   23.8208 C   0  0  0  0  0  0
  -21.3666   -5.6790   24.9168 C   0  0  0  0  0  0
  -21.6046   -4.3052   24.7213 C   0  0  0  0  0  0
  -21.8817   -3.8145   23.4331 C   0  0  0  0  0  0
  -21.9200   -4.6966   22.3390 C   0  0  0  0  0  0
  -22.7788  -13.5226   21.1899 C   0  0  0  0  0  0
  -22.1655   -4.2152   21.0965 F   0  0  0  0  0  0
  -21.5637   -3.4534   25.7724 F   0  0  0  0  0  0
  -29.9280  -13.7981   20.2073 N   0  0  0  0  0  0
  -26.2884  -12.9436   20.3333 N   0  0  0  0  0  0
  -25.9315  -11.6580   20.5856 N   0  0  0  0  0  0
  -22.0405  -12.8240   22.0446 N   0  0  0  0  0  0
  -25.4153  -15.1944   20.4170 N   0  0  0  0  0  0
  -31.8090  -14.8609   20.5401 O   0  0  0  0  0  0
  -21.6643   -6.8883   21.4235 O   0  0  0  0  0  0
  -22.3504  -14.5529   20.6718 O   0  0  0  0  0  0
  -24.6446  -31.8397   23.1854 C   0  0  0  0  0  0
  -25.9207  -32.4661   23.8241 C   0  0  1  0  0  0
  -27.2166  -27.1274   20.1549 C   0  0  0  0  0  0
  -25.5958  -33.8469   24.2166 N   0  0  0  0  0  0
  -23.4475  -30.4595   21.5308 C   0  0  2  0  0  0
  -24.8953  -28.8809   20.1114 C   0  0  0  0  0  0
  -22.7561  -29.4539   22.4856 C   0  0  0  0  0  0
  -18.0294  -28.1388   22.8464 C   0  0  0  0  0  0
  -24.1503  -36.7253   23.2649 C   0  0  0  0  0  0
  -26.0044  -30.7127   21.3825 C   0  0  0  0  0  0
  -26.0744  -29.3226   20.7262 C   0  0  0  0  0  0
  -27.2383  -28.4649   20.7245 C   0  0  0  0  0  0
  -26.0128  -26.7845   19.5030 C   0  0  0  0  0  0
  -24.8790  -27.6255   19.4828 C   0  0  0  0  0  0
  -23.6704  -29.7832   20.1517 C   0  0  0  0  0  0
  -25.4131  -36.3016   24.0315 C   0  0  1  0  0  0
  -20.5906  -28.3708   23.1232 C   0  0  2  0  0  0
  -20.6791  -26.9409   22.5408 C   0  0  0  0  0  0
  -19.5769  -26.6371   21.5217 C   0  0  0  0  0  0
  -18.1942  -26.7916   22.1614 C   0  0  0  0  0  0
  -19.1548  -28.8866   23.2833 C   0  0  0  0  0  0
  -18.9472  -30.1468   23.8854 C   0  0  0  0  0  0
  -17.6470  -30.6581   24.0556 C   0  0  0  0  0  0
  -25.9078  -34.9385   23.5045 C   0  0  0  0  0  0
  -16.5358  -29.9071   23.6351 C   0  0  0  0  0  0
  -16.7278  -28.6492   23.0361 C   0  0  0  0  0  0
  -26.4528  -31.6529   25.0689 C   0  0  0  0  0  0
  -25.3742  -31.3717   26.1408 C   0  0  0  0  0  0
  -27.0380  -30.2904   24.6292 C   0  0  0  0  0  0
  -27.6025  -32.4333   25.7479 C   0  0  0  0  0  0
  -27.5565  -37.1780   24.8457 C   0  0  0  0  0  0
  -21.4253  -29.3032   22.3606 N   0  0  0  0  0  0
  -26.4275  -37.3741   23.9405 N   0  0  0  0  0  0
  -24.7189  -31.0266   22.0873 N   0  0  0  0  0  0
  -23.4209  -28.8104   23.3015 O   0  0  0  0  0  0
  -28.2808  -26.1544   20.1597 O   0  0  0  0  0  0
  -26.5660  -34.8901   22.4628 O   0  0  0  0  0  0
  -23.5569  -32.1262   23.7085 O   0  0  0  0  0  0
  -33.4061  -20.8346   23.2676 C   0  0  0  0  0  0
  -33.4134  -19.9978   22.1319 C   0  0  0  0  0  0
  -28.7544  -19.8852   18.8028 C   0  0  0  0  0  0
  -31.1859  -20.3114   23.6520 C   0  0  0  0  0  0
  -31.1828  -19.4966   22.4807 C   0  0  0  0  0  0
  -29.0830  -20.2550   20.0800 C   0  0  0  0  0  0
  -29.5771  -17.9223   19.6900 C   0  0  0  0  0  0
  -30.2456  -20.8664   25.9992 C   0  0  0  0  0  0
  -31.7094  -16.9425   18.9477 C   0  0  0  0  0  0
  -29.7081  -15.9080   18.0575 C   0  0  0  0  0  0
  -29.9504  -20.5119   24.5310 C   0  0  0  0  0  0
  -29.9606  -18.7153   22.0061 C   0  0  0  0  0  0
  -28.8381  -21.7334   20.7576 C   0  0  0  0  0  0
  -28.7676  -23.2369   19.9638 C   0  0  0  0  0  0
  -28.0700  -24.6604   20.5724 C   0  0  0  0  0  0
  -30.3014  -16.4396   19.3910 C   0  0  0  0  0  0
  -32.2938  -21.0048   24.0187 N   0  0  0  0  0  0
  -32.3020  -19.3365   21.7292 N   0  0  0  0  0  0
  -29.5687  -18.9798   20.6148 N   0  0  0  0  0  0
  -29.0374  -18.5472   18.6247 N   0  3  0  0  0  0
  -31.4510  -12.8139   19.0635 H   0  0  0  0  0  0
  -30.4976  -11.7479   20.0617 H   0  0  0  0  0  0
  -29.8008  -11.5027   17.6999 H   0  0  0  0  0  0
  -29.5562  -13.1914   17.4922 H   0  0  0  0  0  0
  -27.9315  -11.2265   19.0572 H   0  0  0  0  0  0
  -27.3569  -12.3261   17.8361 H   0  0  0  0  0  0
  -27.5232  -14.2078   19.3135 H   0  0  0  0  0  0
  -28.8239  -12.4781   21.4649 H   0  0  0  0  0  0
  -28.3965  -14.1730   21.6097 H   0  0  0  0  0  0
  -25.2750   -9.5708   22.4805 H   0  0  0  0  0  0
  -24.0010   -7.4638   22.7485 H   0  0  0  0  0  0
  -21.0850   -8.8779   19.8946 H   0  0  0  0  0  0
  -22.3676  -10.9709   19.6204 H   0  0  0  0  0  0
  -21.1998   -7.6146   23.9720 H   0  0  0  0  0  0
  -21.1494   -6.0510   25.9080 H   0  0  0  0  0  0
  -22.0592   -2.7607   23.2819 H   0  0  0  0  0  0
  -22.3984  -11.9898   22.4858 H   0  0  0  0  0  0
  -21.1006  -13.1289   22.2589 H   0  0  0  0  0  0
  -24.6479  -15.8480   20.5259 H   0  0  0  0  0  0
  -26.2690  -15.6366   20.1044 H   0  0  0  0  0  0
  -26.7278  -32.5258   23.0981 H   0  0  0  0  0  0
  -25.0115  -33.9597   25.0314 H   0  0  0  0  0  0
  -22.7514  -31.2870   21.3753 H   0  0  0  0  0  0
  -23.3760  -35.9586   23.3285 H   0  0  0  0  0  0
  -24.3604  -36.8914   22.2071 H   0  0  0  0  0  0
  -23.7262  -37.6447   23.6699 H   0  0  0  0  0  0
  -26.1670  -31.4694   20.6136 H   0  0  0  0  0  0
  -26.8731  -30.7580   22.0280 H   0  0  0  0  0  0
  -28.1427  -28.8042   21.2102 H   0  0  0  0  0  0
  -25.9344  -25.8249   19.0114 H   0  0  0  0  0  0
  -23.9811  -27.2846   18.9850 H   0  0  0  0  0  0
  -23.8016  -30.5556   19.3921 H   0  0  0  0  0  0
  -22.7852  -29.2214   19.8467 H   0  0  0  0  0  0
  -25.1332  -36.1837   25.0804 H   0  0  0  0  0  0
  -20.9982  -28.3301   24.1362 H   0  0  0  0  0  0
  -20.5701  -26.2315   23.3626 H   0  0  0  0  0  0
  -21.6656  -26.7436   22.1202 H   0  0  0  0  0  0
  -19.6941  -25.6286   21.1249 H   0  0  0  0  0  0
  -19.6715  -27.3188   20.6754 H   0  0  0  0  0  0
  -17.4217  -26.6656   21.4013 H   0  0  0  0  0  0
  -18.0335  -26.0070   22.9017 H   0  0  0  0  0  0
  -19.7955  -30.7295   24.2188 H   0  0  0  0  0  0
  -17.5029  -31.6264   24.5167 H   0  0  0  0  0  0
  -15.5356  -30.2971   23.7704 H   0  0  0  0  0  0
  -15.8671  -28.0819   22.7093 H   0  0  0  0  0  0
  -24.5931  -30.7047   25.7759 H   0  0  0  0  0  0
  -24.8946  -32.2898   26.4800 H   0  0  0  0  0  0
  -25.8078  -30.8932   27.0202 H   0  0  0  0  0  0
  -26.2976  -29.6629   24.1322 H   0  0  0  0  0  0
  -27.3969  -29.7214   25.4881 H   0  0  0  0  0  0
  -27.8910  -30.4097   23.9615 H   0  0  0  0  0  0
  -27.2554  -33.3652   26.1964 H   0  0  0  0  0  0
  -28.3870  -32.6871   25.0338 H   0  0  0  0  0  0
  -28.0644  -31.8530   26.5487 H   0  0  0  0  0  0
  -28.2559  -38.0097   24.7513 H   0  0  0  0  0  0
  -28.1071  -36.2618   24.6260 H   0  0  0  0  0  0
  -27.2278  -37.1412   25.8858 H   0  0  0  0  0  0
  -20.9448  -29.8716   21.6776 H   0  0  0  0  0  0
  -26.0130  -38.2797   24.1417 H   0  0  0  0  0  0
  -34.2976  -21.3594   23.5800 H   0  0  0  0  0  0
  -34.3146  -19.8589   21.5527 H   0  0  0  0  0  0
  -28.3282  -20.4729   18.0010 H   0  0  0  0  0  0
  -29.3199  -20.9631   26.5672 H   0  0  0  0  0  0
  -30.7801  -21.8120   26.0836 H   0  0  0  0  0  0
  -30.8475  -20.0955   26.4810 H   0  0  0  0  0  0
  -32.2461  -17.3955   19.7821 H   0  0  0  0  0  0
  -31.6506  -17.7005   18.1668 H   0  0  0  0  0  0
  -32.3414  -16.1513   18.5392 H   0  0  0  0  0  0
  -29.7537  -16.6235   17.2363 H   0  0  0  0  0  0
  -28.6723  -15.5920   18.1542 H   0  0  0  0  0  0
  -30.3049  -15.0807   17.6838 H   0  0  0  0  0  0
  -29.3763  -19.5881   24.5631 H   0  0  0  0  0  0
  -29.3115  -21.2670   24.0738 H   0  0  0  0  0  0
  -29.0724  -18.9156   22.5997 H   0  0  0  0  0  0
  -30.1663  -17.6500   22.1154 H   0  0  0  0  0  0
  -29.5776  -21.8371   21.5504 H   0  0  0  0  0  0
  -27.8917  -21.6376   21.2908 H   0  0  0  0  0  0
  -28.2688  -23.0578   19.0110 H   0  0  0  0  0  0
  -29.7951  -23.4813   19.6881 H   0  0  0  0  0  0
  -28.3396  -24.6693   21.6281 H   0  0  0  0  0  0
  -26.9956  -24.4819   20.5868 H   0  0  0  0  0  0
  -28.9175  -18.0823   17.7330 H   0  0  0  0  0  0
  1 25  1  0  0  0
  1 30  2  0  0  0
  1 86  1  0  0  0
  2  3  1  0  0  0
  2 25  1  0  0  0
  2 91  1  0  0  0
  2 92  1  0  0  0
  3  4  1  0  0  0
  3 93  1  0  0  0
  3 94  1  0  0  0
  4  5  1  0  0  0
  4 95  1  0  0  0
  4 96  1  0  0  0
  5  6  1  0  0  0
  5 26  1  0  0  0
  5 97  1  0  0  0
  6 25  1  0  0  0
  6 98  1  0  0  0
  6 99  1  0  0  0
  7  8  2  0  0  0
  7 26  1  0  0  0
  7 29  1  0  0  0
  8  9  1  0  0  0
  8 22  1  0  0  0
  9 10  1  0  0  0
  9 27  2  0  0  0
 10 11  2  0  0  0
 10 15  1  0  0  0
 11 12  1  0  0  0
 11100  1  0  0  0
 12 13  2  0  0  0
 12101  1  0  0  0
 13 14  1  0  0  0
 13 31  1  0  0  0
 14 15  2  0  0  0
 14102  1  0  0  0
 15103  1  0  0  0
 16 17  2  0  0  0
 16 21  1  0  0  0
 16 31  1  0  0  0
 17 18  1  0  0  0
 17104  1  0  0  0
 18 19  2  0  0  0
 18105  1  0  0  0
 19 20  1  0  0  0
 19 24  1  0  0  0
 20 21  2  0  0  0
 20106  1  0  0  0
 21 23  1  0  0  0
 22 28  1  0  0  0
 22 32  2  0  0  0
 26 27  1  0  0  0
 28107  1  0  0  0
 28108  1  0  0  0
 29109  1  0  0  0
 29110  1  0  0  0
 33 34  1  0  0  0
 33 66  1  0  0  0
 33 70  2  0  0  0
 34 36  1  0  0  0
 34 59  1  0  0  0
 34111  1  0  0  0
 35 44  2  0  0  0
 35 45  1  0  0  0
 35 68  1  0  0  0
 36 56  1  0  0  0
 36112  1  0  0  0
 37 39  1  0  0  0
 37 47  1  0  0  0
 37 66  1  0  0  0
 37113  1  0  0  0
 38 43  2  0  0  0
 38 46  1  0  0  0
 38 47  1  0  0  0
 39 64  1  0  0  0
 39 67  2  0  0  0
 40 52  1  0  0  0
 40 53  2  0  0  0
 40 58  1  0  0  0
 41114  1  0  0  0
 41115  1  0  0  0
 41116  1  0  0  0
 41 48  1  0  0  0
 42 43  1  0  0  0
 42 66  1  0  0  0
 42117  1  0  0  0
 42118  1  0  0  0
 43 44  1  0  0  0
 44119  1  0  0  0
 45 46  2  0  0  0
 45120  1  0  0  0
 46121  1  0  0  0
 47122  1  0  0  0
 47123  1  0  0  0
 48 56  1  0  0  0
 48 65  1  0  0  0
 48124  1  0  0  0
 49 50  1  0  0  0
 49 53  1  0  0  0
 49 64  1  0  0  0
 49125  1  0  0  0
 50 51  1  0  0  0
 50126  1  0  0  0
 50127  1  0  0  0
 51 52  1  0  0  0
 51128  1  0  0  0
 51129  1  0  0  0
 52130  1  0  0  0
 52131  1  0  0  0
 53 54  1  0  0  0
 54 55  2  0  0  0
 54132  1  0  0  0
 55 57  1  0  0  0
 55133  1  0  0  0
 56 69  2  0  0  0
 57 58  2  0  0  0
 57134  1  0  0  0
 58135  1  0  0  0
 59 60  1  0  0  0
 59 61  1  0  0  0
 59 62  1  0  0  0
 60136  1  0  0  0
 60137  1  0  0  0
 60138  1  0  0  0
 61139  1  0  0  0
 61140  1  0  0  0
 61141  1  0  0  0
 62142  1  0  0  0
 62143  1  0  0  0
 62144  1  0  0  0
 63 65  1  0  0  0
 63145  1  0  0  0
 63146  1  0  0  0
 63147  1  0  0  0
 64148  1  0  0  0
 65149  1  0  0  0
 68 85  1  0  0  0
 71 72  2  0  0  0
 71 87  1  0  0  0
 71150  1  0  0  0
 72 88  1  0  0  0
 72151  1  0  0  0
 73 76  2  0  0  0
 73 90  1  0  0  0
 73152  1  0  0  0
 74 75  1  0  0  0
 74 81  1  0  0  0
 74 87  2  0  0  0
 75 82  1  0  0  0
 75 88  2  0  0  0
 76 83  1  0  0  0
 76 89  1  0  0  0
 77 86  1  0  0  0
 77 89  1  0  0  0
 77 90  2  0  0  0
 78 81  1  0  0  0
 78153  1  0  0  0
 78154  1  0  0  0
 78155  1  0  0  0
 79156  1  0  0  0
 79157  1  0  0  0
 79158  1  0  0  0
 79 86  1  0  0  0
 80 86  1  0  0  0
 80159  1  0  0  0
 80160  1  0  0  0
 80161  1  0  0  0
 81162  1  0  0  0
 81163  1  0  0  0
 82 89  1  0  0  0
 82164  1  0  0  0
 82165  1  0  0  0
 83 84  1  0  0  0
 83166  1  0  0  0
 83167  1  0  0  0
 84 85  1  0  0  0
 84168  1  0  0  0
 84169  1  0  0  0
 85170  1  0  0  0
 85171  1  0  0  0
 90172  1  0  0  0
M  CHG  1  90   1
M  ISO  4   1 100  68 101  85 101  86 100
M  END
> <chiral flag>
0

> <version>
0

> <s_m_source_file>
/data/baiqing/PycharmProjects/Reinvent-master-3.2/result/LINK_invent/BTK/process_docking_weight1_custom_sum_contain_oxygen_bond_distance_aromatic_linkinvent_7_9_3/rearranged_h_0052.sdf

> <i_m_source_file_index>
53

> <r_mmod_Potential_Energy-OPLS-2005>
861.330444335938

> <r_mmod_Stretch_Energy-OPLS-2005>
312.894836425781

> <r_mmod_Bend_Energy-OPLS-2005>
382.041381835938

> <r_mmod_Torsional_Energy-OPLS-2005>
294.423248291016

> <r_mmod_Improper_Torsional_Energy-OPLS-2005>
27.9766902923584

> <r_mmod_Van_der_Waal_Energy-OPLS-2005>
151.105728149414

> <r_mmod_Electrostatic_Energy-OPLS-2005>
-132.096939086914

> <r_mmod_Solvation_Energy-OPLS-2005>
-430.918487548828

> <b_mmod_Minimization_Converged-OPLS-2005>
0

> <r_mmod_RMS_Derivative-OPLS-2005>
2.60611057281494

$$$$
53
                    3D
 Structure written by MMmdl.
165173  0  0  1  0            999 V2000
  -30.7332  -14.4791   20.5326 C   0  0  0  0  0  0
  -30.4196  -12.3060   19.4307 C   0  0  0  0  0  0
  -29.4916  -12.4881   18.2110 C   0  0  0  0  0  0
  -28.0133  -12.3602   18.6330 C   0  0  0  0  0  0
  -27.6609  -13.2164   19.8800 C   0  0  2  0  0  0
  -28.7127  -13.0372   20.9996 C   0  0  0  0  0  0
  -25.2605  -13.8217   20.5762 C   0  0  0  0  0  0
  -24.1845  -13.0462   20.9207 C   0  0  0  0  0  0
  -24.6396  -11.6944   20.8763 C   0  0  0  0  0  0
  -23.9050  -10.4329   21.0425 C   0  0  0  0  0  0
  -24.3639   -9.4241   21.9174 C   0  0  0  0  0  0
  -23.6306   -8.2273   22.0713 C   0  0  0  0  0  0
  -22.4271   -8.0321   21.3543 C   0  0  0  0  0  0
  -21.9844   -9.0313   20.4698 C   0  0  0  0  0  0
  -22.7185  -10.2190   20.3107 C   0  0  0  0  0  0
  -21.6864   -6.0769   22.5271 C   0  0  0  0  0  0
  -21.4041   -6.5658   23.8223 C   0  0  0  0  0  0
  -21.3659   -5.6787   24.9158 C   0  0  0  0  0  0
  -21.6010   -4.3045   24.7183 C   0  0  0  0  0  0
  -21.8779   -3.8163   23.4304 C   0  0  0  0  0  0
  -21.9192   -4.6990   22.3379 C   0  0  0  0  0  0
  -22.7876  -13.5274   21.1853 C   0  0  0  0  0  0
  -22.1690   -4.2189   21.0953 F   0  0  0  0  0  0
  -21.5577   -3.4531   25.7690 F   0  0  0  0  0  0
  -30.0332  -13.3185   20.4251 N   0  0  0  0  0  0
  -26.3048  -12.9386   20.3474 N   0  0  0  0  0  0
  -25.9332  -11.6539   20.5840 N   0  0  0  0  0  0
  -22.0501  -12.8290   22.0420 N   0  0  0  0  0  0
  -25.4307  -15.1940   20.4215 N   0  0  0  0  0  0
  -31.8975  -14.5925   20.1558 O   0  0  0  0  0  0
  -21.6633   -6.8912   21.4240 O   0  0  0  0  0  0
  -22.3563  -14.5557   20.6663 O   0  0  0  0  0  0
  -24.6145  -31.8660   23.2097 C   0  0  0  0  0  0
  -25.9054  -32.4808   23.8386 C   0  0  1  0  0  0
  -27.2350  -27.4171   20.1135 C   0  0  0  0  0  0
  -25.5946  -33.8614   24.2344 N   0  0  0  0  0  0
  -23.4042  -30.4876   21.5469 C   0  0  2  0  0  0
  -24.8556  -28.9432   20.1231 C   0  0  0  0  0  0
  -22.7410  -29.4645   22.4971 C   0  0  0  0  0  0
  -18.0275  -28.1377   22.8500 C   0  0  0  0  0  0
  -24.1482  -36.7272   23.2636 C   0  0  0  0  0  0
  -25.9354  -30.8213   21.3708 C   0  0  0  0  0  0
  -26.0134  -29.4491   20.7321 C   0  0  0  0  0  0
  -27.2060  -28.6875   20.7374 C   0  0  0  0  0  0
  -26.0691  -26.9341   19.4895 C   0  0  0  0  0  0
  -24.8766  -27.6808   19.5036 C   0  0  0  0  0  0
  -23.6191  -29.8141   20.1641 C   0  0  0  0  0  0
  -25.4109  -36.3098   24.0333 C   0  0  1  0  0  0
  -20.5863  -28.3666   23.1317 C   0  0  2  0  0  0
  -20.6770  -26.9411   22.5407 C   0  0  0  0  0  0
  -19.5743  -26.6398   21.5213 C   0  0  0  0  0  0
  -18.1927  -26.7929   22.1632 C   0  0  0  0  0  0
  -19.1526  -28.8841   23.2904 C   0  0  0  0  0  0
  -18.9467  -30.1465   23.8879 C   0  0  0  0  0  0
  -17.6467  -30.6584   24.0579 C   0  0  0  0  0  0
  -25.9047  -34.9466   23.5125 C   0  0  0  0  0  0
  -16.5354  -29.9088   23.6343 C   0  0  0  0  0  0
  -16.7274  -28.6516   23.0352 C   0  0  0  0  0  0
  -26.4493  -31.6561   25.0693 C   0  0  0  0  0  0
  -25.3772  -31.3654   26.1445 C   0  0  0  0  0  0
  -27.0331  -30.2997   24.6065 C   0  0  0  0  0  0
  -27.6071  -32.4274   25.7469 C   0  0  0  0  0  0
  -27.5567  -37.1793   24.8479 C   0  0  0  0  0  0
  -21.4134  -29.3015   22.3691 N   0  0  0  0  0  0
  -26.4279  -37.3804   23.9429 N   0  0  0  0  0  0
  -24.6685  -31.0764   22.0989 N   0  0  0  0  0  0
  -23.4197  -28.8198   23.3014 O   0  0  0  0  0  0
  -28.3668  -26.6357   20.0570 O   0  0  0  0  0  0
  -26.5599  -34.8923   22.4679 O   0  0  0  0  0  0
  -23.5335  -32.1424   23.7488 O   0  0  0  0  0  0
  -29.2883  -23.6627   22.2054 C   0  0  0  0  0  0
  -29.2432  -22.3390   21.6763 C   0  0  0  0  0  0
  -28.8682  -24.4959   21.1983 C   0  0  0  0  0  0
  -29.4264  -18.5136   24.0415 C   0  0  0  0  0  0
  -28.0964  -23.9122   18.7837 C   0  0  0  0  0  0
  -27.2092  -20.5703   22.9479 C   0  0  0  0  0  0
  -29.5719  -21.0094   22.3428 C   0  0  0  0  0  0
  -28.7523  -26.0166   21.2906 C   0  0  0  0  0  0
  -29.4699  -17.8264   21.5559 C   0  0  0  0  0  0
  -29.4503  -16.2790   21.7386 C   0  0  0  0  0  0
  -28.7319  -18.6294   22.6662 C   0  0  2  0  0  0
  -28.7921  -22.3455   20.4344 N   0  0  0  0  0  0
  -28.5776  -23.6487   20.1246 N   0  0  0  0  0  0
  -30.0071  -15.6086   20.5610 N   0  0  0  0  0  0
  -28.4301  -20.0529   22.2741 N   0  3  1  0  0  0
  -31.4637  -12.3907   19.1266 H   0  0  0  0  0  0
  -30.3168  -11.3057   19.8580 H   0  0  0  0  0  0
  -29.7223  -11.7472   17.4460 H   0  0  0  0  0  0
  -29.6647  -13.4654   17.7537 H   0  0  0  0  0  0
  -27.8268  -11.3052   18.8420 H   0  0  0  0  0  0
  -27.3546  -12.6298   17.8064 H   0  0  0  0  0  0
  -27.6941  -14.2601   19.5671 H   0  0  0  0  0  0
  -28.6951  -12.0180   21.3855 H   0  0  0  0  0  0
  -28.4994  -13.6883   21.8474 H   0  0  0  0  0  0
  -25.2781   -9.5729   22.4767 H   0  0  0  0  0  0
  -24.0033   -7.4622   22.7352 H   0  0  0  0  0  0
  -21.0722   -8.8824   19.9097 H   0  0  0  0  0  0
  -22.3582  -10.9787   19.6315 H   0  0  0  0  0  0
  -21.2073   -7.6174   23.9758 H   0  0  0  0  0  0
  -21.1497   -6.0496   25.9070 H   0  0  0  0  0  0
  -22.0521   -2.7633   23.2734 H   0  0  0  0  0  0
  -22.4122  -12.0033   22.4957 H   0  0  0  0  0  0
  -21.1086  -13.1262   22.2545 H   0  0  0  0  0  0
  -24.6627  -15.8459   20.5357 H   0  0  0  0  0  0
  -26.2898  -15.6413   20.1261 H   0  0  0  0  0  0
  -26.7119  -32.5528   23.1150 H   0  0  0  0  0  0
  -25.0220  -33.9786   25.0573 H   0  0  0  0  0  0
  -22.6881  -31.2994   21.4018 H   0  0  0  0  0  0
  -23.3766  -35.9585   23.3322 H   0  0  0  0  0  0
  -24.3564  -36.8846   22.2041 H   0  0  0  0  0  0
  -23.7214  -37.6470   23.6633 H   0  0  0  0  0  0
  -26.0511  -31.5754   20.5921 H   0  0  0  0  0  0
  -26.8221  -30.8793   21.9895 H   0  0  0  0  0  0
  -28.0976  -29.0716   21.2111 H   0  0  0  0  0  0
  -26.0815  -25.9750   18.9949 H   0  0  0  0  0  0
  -23.9903  -27.2826   19.0292 H   0  0  0  0  0  0
  -23.7367  -30.5854   19.4017 H   0  0  0  0  0  0
  -22.7441  -29.2336   19.8633 H   0  0  0  0  0  0
  -25.1290  -36.1936   25.0821 H   0  0  0  0  0  0
  -20.9975  -28.3248   24.1440 H   0  0  0  0  0  0
  -20.5706  -26.2287   23.3601 H   0  0  0  0  0  0
  -21.6639  -26.7471   22.1184 H   0  0  0  0  0  0
  -19.6911  -25.6322   21.1225 H   0  0  0  0  0  0
  -19.6669  -27.3226   20.6759 H   0  0  0  0  0  0
  -17.4207  -26.6705   21.4026 H   0  0  0  0  0  0
  -18.0313  -26.0039   22.8996 H   0  0  0  0  0  0
  -19.7947  -30.7301   24.2203 H   0  0  0  0  0  0
  -17.5032  -31.6255   24.5197 H   0  0  0  0  0  0
  -15.5366  -30.3004   23.7658 H   0  0  0  0  0  0
  -15.8680  -28.0850   22.7049 H   0  0  0  0  0  0
  -24.5985  -30.6949   25.7793 H   0  0  0  0  0  0
  -24.8932  -32.2794   26.4876 H   0  0  0  0  0  0
  -25.8138  -30.8857   27.0211 H   0  0  0  0  0  0
  -26.2845  -29.6719   24.1209 H   0  0  0  0  0  0
  -27.4208  -29.7253   25.4491 H   0  0  0  0  0  0
  -27.8643  -30.4312   23.9137 H   0  0  0  0  0  0
  -27.2686  -33.3576   26.2048 H   0  0  0  0  0  0
  -28.3886  -32.6812   25.0294 H   0  0  0  0  0  0
  -28.0737  -31.8396   26.5388 H   0  0  0  0  0  0
  -28.2618  -38.0067   24.7534 H   0  0  0  0  0  0
  -28.1030  -36.2601   24.6296 H   0  0  0  0  0  0
  -27.2281  -37.1408   25.8883 H   0  0  0  0  0  0
  -20.9310  -29.8692   21.6857 H   0  0  0  0  0  0
  -26.0150  -38.2871   24.1464 H   0  0  0  0  0  0
  -29.5904  -23.9710   23.1960 H   0  0  0  0  0  0
  -28.9153  -19.0956   24.8107 H   0  0  0  0  0  0
  -30.4641  -18.8456   24.0030 H   0  0  0  0  0  0
  -29.4337  -17.4783   24.3818 H   0  0  0  0  0  0
  -28.4084  -24.8937   18.4409 H   0  0  0  0  0  0
  -27.0090  -23.8278   18.7566 H   0  0  0  0  0  0
  -28.5141  -23.1828   18.0873 H   0  0  0  0  0  0
  -26.9223  -21.5583   22.5870 H   0  0  0  0  0  0
  -27.3574  -20.6456   24.0253 H   0  0  0  0  0  0
  -26.3515  -19.9213   22.7691 H   0  0  0  0  0  0
  -29.8543  -21.1715   23.3836 H   0  0  0  0  0  0
  -30.4426  -20.5719   21.8556 H   0  0  0  0  0  0
  -29.7231  -26.4273   21.5682 H   0  0  0  0  0  0
  -28.0683  -26.2679   22.1028 H   0  0  0  0  0  0
  -29.0106  -18.0611   20.5953 H   0  0  0  0  0  0
  -30.5043  -18.1678   21.4810 H   0  0  0  0  0  0
  -28.4239  -15.9388   21.8875 H   0  0  0  0  0  0
  -30.0228  -15.9951   22.6234 H   0  0  0  0  0  0
  -27.7655  -18.1383   22.7740 H   0  0  0  0  0  0
  -30.4668  -16.2859   19.9683 H   0  0  0  0  0  0
  -28.1956  -20.0457   21.2921 H   0  0  0  0  0  0
  1 25  1  0  0  0
  1 30  2  0  0  0
  1 84  1  0  0  0
  2  3  1  0  0  0
  2 25  1  0  0  0
  2 86  1  0  0  0
  2 87  1  0  0  0
  3  4  1  0  0  0
  3 88  1  0  0  0
  3 89  1  0  0  0
  4  5  1  0  0  0
  4 90  1  0  0  0
  4 91  1  0  0  0
  5  6  1  0  0  0
  5 26  1  0  0  0
  5 92  1  0  0  0
  6 25  1  0  0  0
  6 93  1  0  0  0
  6 94  1  0  0  0
  7  8  2  0  0  0
  7 26  1  0  0  0
  7 29  1  0  0  0
  8  9  1  0  0  0
  8 22  1  0  0  0
  9 10  1  0  0  0
  9 27  2  0  0  0
 10 11  2  0  0  0
 10 15  1  0  0  0
 11 12  1  0  0  0
 11 95  1  0  0  0
 12 13  2  0  0  0
 12 96  1  0  0  0
 13 14  1  0  0  0
 13 31  1  0  0  0
 14 15  2  0  0  0
 14 97  1  0  0  0
 15 98  1  0  0  0
 16 17  2  0  0  0
 16 21  1  0  0  0
 16 31  1  0  0  0
 17 18  1  0  0  0
 17 99  1  0  0  0
 18 19  2  0  0  0
 18100  1  0  0  0
 19 20  1  0  0  0
 19 24  1  0  0  0
 20 21  2  0  0  0
 20101  1  0  0  0
 21 23  1  0  0  0
 22 28  1  0  0  0
 22 32  2  0  0  0
 26 27  1  0  0  0
 28102  1  0  0  0
 28103  1  0  0  0
 29104  1  0  0  0
 29105  1  0  0  0
 33 34  1  0  0  0
 33 66  1  0  0  0
 33 70  2  0  0  0
 34 36  1  0  0  0
 34 59  1  0  0  0
 34106  1  0  0  0
 35 44  2  0  0  0
 35 45  1  0  0  0
 35 68  1  0  0  0
 36 56  1  0  0  0
 36107  1  0  0  0
 37 39  1  0  0  0
 37 47  1  0  0  0
 37 66  1  0  0  0
 37108  1  0  0  0
 38 43  2  0  0  0
 38 46  1  0  0  0
 38 47  1  0  0  0
 39 64  1  0  0  0
 39 67  2  0  0  0
 40 52  1  0  0  0
 40 53  2  0  0  0
 40 58  1  0  0  0
 41109  1  0  0  0
 41110  1  0  0  0
 41111  1  0  0  0
 41 48  1  0  0  0
 42 43  1  0  0  0
 42 66  1  0  0  0
 42112  1  0  0  0
 42113  1  0  0  0
 43 44  1  0  0  0
 44114  1  0  0  0
 45 46  2  0  0  0
 45115  1  0  0  0
 46116  1  0  0  0
 47117  1  0  0  0
 47118  1  0  0  0
 48 56  1  0  0  0
 48 65  1  0  0  0
 48119  1  0  0  0
 49 50  1  0  0  0
 49 53  1  0  0  0
 49 64  1  0  0  0
 49120  1  0  0  0
 50 51  1  0  0  0
 50121  1  0  0  0
 50122  1  0  0  0
 51 52  1  0  0  0
 51123  1  0  0  0
 51124  1  0  0  0
 52125  1  0  0  0
 52126  1  0  0  0
 53 54  1  0  0  0
 54 55  2  0  0  0
 54127  1  0  0  0
 55 57  1  0  0  0
 55128  1  0  0  0
 56 69  2  0  0  0
 57 58  2  0  0  0
 57129  1  0  0  0
 58130  1  0  0  0
 59 60  1  0  0  0
 59 61  1  0  0  0
 59 62  1  0  0  0
 60131  1  0  0  0
 60132  1  0  0  0
 60133  1  0  0  0
 61134  1  0  0  0
 61135  1  0  0  0
 61136  1  0  0  0
 62137  1  0  0  0
 62138  1  0  0  0
 62139  1  0  0  0
 63 65  1  0  0  0
 63140  1  0  0  0
 63141  1  0  0  0
 63142  1  0  0  0
 64143  1  0  0  0
 65144  1  0  0  0
 68 78  1  0  0  0
 71 72  1  0  0  0
 71 73  2  0  0  0
 71145  1  0  0  0
 72 77  1  0  0  0
 72 82  2  0  0  0
 73 78  1  0  0  0
 73 83  1  0  0  0
 74146  1  0  0  0
 74147  1  0  0  0
 74148  1  0  0  0
 74 81  1  0  0  0
 75 83  1  0  0  0
 75149  1  0  0  0
 75150  1  0  0  0
 75151  1  0  0  0
 76152  1  0  0  0
 76153  1  0  0  0
 76154  1  0  0  0
 76 85  1  0  0  0
 77 85  1  0  0  0
 77155  1  0  0  0
 77156  1  0  0  0
 78157  1  0  0  0
 78158  1  0  0  0
 79 80  1  0  0  0
 79 81  1  0  0  0
 79159  1  0  0  0
 79160  1  0  0  0
 80 84  1  0  0  0
 80161  1  0  0  0
 80162  1  0  0  0
 81 85  1  0  0  0
 81163  1  0  0  0
 82 83  1  0  0  0
 84164  1  0  0  0
 85165  1  0  0  0
M  CHG  1  85   1
M  ISO  4   1 100  68 101  78 101  84 100
M  END
> <chiral flag>
0

> <version>
0

> <s_m_source_file>
/data/baiqing/PycharmProjects/Reinvent-master-3.2/result/LINK_invent/BTK/process_docking_weight1_custom_sum_contain_oxygen_bond_distance_aromatic_linkinvent_7_9_3/rearranged_h_0052.sdf

> <i_m_source_file_index>
54

> <r_mmod_Potential_Energy-OPLS-2005>
-136.605026245117

> <r_mmod_Stretch_Energy-OPLS-2005>
39.4207878112793

> <r_mmod_Bend_Energy-OPLS-2005>
125.42170715332

> <r_mmod_Torsional_Energy-OPLS-2005>
293.156433105469

> <r_mmod_Improper_Torsional_Energy-OPLS-2005>
20.3852729797363

> <r_mmod_Van_der_Waal_Energy-OPLS-2005>
121.221939086914

> <r_mmod_Electrostatic_Energy-OPLS-2005>
-316.612854003906

> <r_mmod_Solvation_Energy-OPLS-2005>
-437.888793945312

> <b_mmod_Minimization_Converged-OPLS-2005>
0

> <r_mmod_RMS_Derivative-OPLS-2005>
4.08457946777344

$$$$
54
                    3D
 Structure written by MMmdl.
151159  0  0  1  0            999 V2000
  -30.5216  -15.0085   20.4263 C   0  0  0  0  0  0
  -30.4370  -12.6350   19.5056 C   0  0  0  0  0  0
  -29.5210  -12.5298   18.2641 C   0  0  0  0  0  0
  -28.0587  -12.2987   18.6865 C   0  0  0  0  0  0
  -27.6225  -13.2471   19.8315 C   0  0  2  0  0  0
  -28.6606  -13.3121   20.9708 C   0  0  0  0  0  0
  -25.2450  -13.8202   20.5709 C   0  0  0  0  0  0
  -24.1774  -13.0427   20.9249 C   0  0  0  0  0  0
  -24.6378  -11.6911   20.8749 C   0  0  0  0  0  0
  -23.9067  -10.4278   21.0393 C   0  0  0  0  0  0
  -24.3615   -9.4201   21.9180 C   0  0  0  0  0  0
  -23.6295   -8.2235   22.0756 C   0  0  0  0  0  0
  -22.4278   -8.0273   21.3544 C   0  0  0  0  0  0
  -21.9910   -9.0241   20.4643 C   0  0  0  0  0  0
  -22.7234  -10.2125   20.3043 C   0  0  0  0  0  0
  -21.6852   -6.0737   22.5275 C   0  0  0  0  0  0
  -21.4018   -6.5645   23.8207 C   0  0  0  0  0  0
  -21.3656   -5.6800   24.9174 C   0  0  0  0  0  0
  -21.6034   -4.3057   24.7223 C   0  0  0  0  0  0
  -21.8825   -3.8149   23.4342 C   0  0  0  0  0  0
  -21.9197   -4.6968   22.3395 C   0  0  0  0  0  0
  -22.7797  -13.5217   21.1899 C   0  0  0  0  0  0
  -22.1667   -4.2149   21.0974 F   0  0  0  0  0  0
  -21.5623   -3.4541   25.7738 F   0  0  0  0  0  0
  -29.9260  -13.7446   20.3661 N   0  0  0  0  0  0
  -26.2847  -12.9419   20.3214 N   0  0  0  0  0  0
  -25.9301  -11.6556   20.5721 N   0  0  0  0  0  0
  -22.0445  -12.8180   22.0438 N   0  0  0  0  0  0
  -25.4130  -15.1932   20.4125 N   0  0  0  0  0  0
  -31.7332  -15.0497   20.1837 O   0  0  0  0  0  0
  -21.6643   -6.8871   21.4230 O   0  0  0  0  0  0
  -22.3477  -14.5514   20.6743 O   0  0  0  0  0  0
  -24.6475  -31.8369   23.1830 C   0  0  0  0  0  0
  -25.9237  -32.4658   23.8218 C   0  0  1  0  0  0
  -27.2152  -27.0870   20.1646 C   0  0  0  0  0  0
  -25.5966  -33.8464   24.2136 N   0  0  0  0  0  0
  -23.4534  -30.4547   21.5302 C   0  0  2  0  0  0
  -24.9017  -28.8699   20.1114 C   0  0  0  0  0  0
  -22.7586  -29.4491   22.4836 C   0  0  0  0  0  0
  -18.0310  -28.1405   22.8462 C   0  0  0  0  0  0
  -24.1493  -36.7247   23.2648 C   0  0  0  0  0  0
  -26.0105  -30.6986   21.3840 C   0  0  0  0  0  0
  -26.0819  -29.3033   20.7291 C   0  0  0  0  0  0
  -27.2394  -28.4299   20.7329 C   0  0  0  0  0  0
  -26.0077  -26.7629   19.5071 C   0  0  0  0  0  0
  -24.8811  -27.6162   19.4812 C   0  0  0  0  0  0
  -23.6795  -29.7775   20.1515 C   0  0  0  0  0  0
  -25.4128  -36.3003   24.0300 C   0  0  1  0  0  0
  -20.5922  -28.3707   23.1229 C   0  0  2  0  0  0
  -20.6778  -26.9404   22.5407 C   0  0  0  0  0  0
  -19.5761  -26.6379   21.5212 C   0  0  0  0  0  0
  -18.1945  -26.7942   22.1615 C   0  0  0  0  0  0
  -19.1564  -28.8871   23.2832 C   0  0  0  0  0  0
  -18.9482  -30.1464   23.8849 C   0  0  0  0  0  0
  -17.6485  -30.6576   24.0562 C   0  0  0  0  0  0
  -25.9083  -34.9385   23.5027 C   0  0  0  0  0  0
  -16.5372  -29.9066   23.6361 C   0  0  0  0  0  0
  -16.7298  -28.6518   23.0335 C   0  0  0  0  0  0
  -26.4530  -31.6554   25.0691 C   0  0  0  0  0  0
  -25.3695  -31.3752   26.1372 C   0  0  0  0  0  0
  -27.0382  -30.2946   24.6281 C   0  0  0  0  0  0
  -27.6057  -32.4317   25.7474 C   0  0  0  0  0  0
  -27.5568  -37.1770   24.8470 C   0  0  0  0  0  0
  -21.4275  -29.3017   22.3593 N   0  0  0  0  0  0
  -26.4289  -37.3718   23.9403 N   0  0  0  0  0  0
  -24.7238  -31.0171   22.0887 N   0  0  0  0  0  0
  -23.4208  -28.8045   23.3006 O   0  0  0  0  0  0
  -28.2610  -26.0817   20.2426 O   0  0  0  0  0  0
  -26.5672  -34.8902   22.4610 O   0  0  0  0  0  0
  -23.5592  -32.1266   23.7044 O   0  0  0  0  0  0
  -28.0325  -19.4736   20.0460 C   0  0  0  0  0  0
  -29.3323  -19.1792   20.4237 C   0  0  0  0  0  0
  -28.9109  -21.5765   20.3669 C   0  0  0  0  0  0
  -31.1750  -20.8219   21.0934 C   0  0  0  0  0  0
  -30.1937  -17.7598   20.5986 C   0  0  0  0  0  0
  -29.0860  -23.2418   20.4543 C   0  0  0  0  0  0
  -28.0011  -24.5247   20.1292 C   0  0  0  0  0  0
  -29.8152  -20.5299   20.6277 N   0  0  0  0  0  0
  -27.8235  -20.8629   20.0208 N   0  3  0  0  0  0
  -29.7606  -16.2203   20.5563 N   0  0  0  0  0  0
  -31.4640  -12.8109   19.1849 H   0  0  0  0  0  0
  -30.4571  -11.6940   20.0585 H   0  0  0  0  0  0
  -29.8567  -11.7222   17.6113 H   0  0  0  0  0  0
  -29.5914  -13.4468   17.6772 H   0  0  0  0  0  0
  -27.9744  -11.2627   19.0182 H   0  0  0  0  0  0
  -27.3922  -12.3999   17.8290 H   0  0  0  0  0  0
  -27.5747  -14.2397   19.3813 H   0  0  0  0  0  0
  -28.7641  -12.3457   21.4670 H   0  0  0  0  0  0
  -28.3446  -14.0221   21.7361 H   0  0  0  0  0  0
  -25.2751   -9.5702   22.4766 H   0  0  0  0  0  0
  -24.0006   -7.4631   22.7476 H   0  0  0  0  0  0
  -21.0848   -8.8758   19.8932 H   0  0  0  0  0  0
  -22.3682  -10.9674   19.6157 H   0  0  0  0  0  0
  -21.2011   -7.6153   23.9716 H   0  0  0  0  0  0
  -21.1471   -6.0529   25.9083 H   0  0  0  0  0  0
  -22.0602   -2.7607   23.2846 H   0  0  0  0  0  0
  -22.4090  -11.9844   22.4791 H   0  0  0  0  0  0
  -21.1047  -13.1171   22.2627 H   0  0  0  0  0  0
  -24.6382  -15.8408   20.5103 H   0  0  0  0  0  0
  -26.2454  -15.6236   20.0316 H   0  0  0  0  0  0
  -26.7289  -32.5215   23.0927 H   0  0  0  0  0  0
  -25.0076  -33.9561   25.0251 H   0  0  0  0  0  0
  -22.7621  -31.2838   21.3728 H   0  0  0  0  0  0
  -23.3745  -35.9590   23.3298 H   0  0  0  0  0  0
  -24.3588  -36.8907   22.2068 H   0  0  0  0  0  0
  -23.7265  -37.6442   23.6700 H   0  0  0  0  0  0
  -26.1600  -31.4483   20.6058 H   0  0  0  0  0  0
  -26.8862  -30.7566   22.0199 H   0  0  0  0  0  0
  -28.1402  -28.7587   21.2318 H   0  0  0  0  0  0
  -25.9049  -25.8032   19.0232 H   0  0  0  0  0  0
  -23.9820  -27.2813   18.9845 H   0  0  0  0  0  0
  -23.8186  -30.5502   19.3957 H   0  0  0  0  0  0
  -22.7925  -29.2204   19.8398 H   0  0  0  0  0  0
  -25.1308  -36.1831   25.0790 H   0  0  0  0  0  0
  -21.0015  -28.3322   24.1343 H   0  0  0  0  0  0
  -20.5695  -26.2313   23.3623 H   0  0  0  0  0  0
  -21.6646  -26.7414   22.1188 H   0  0  0  0  0  0
  -19.6938  -25.6287   21.1234 H   0  0  0  0  0  0
  -19.6721  -27.3178   20.6740 H   0  0  0  0  0  0
  -17.4208  -26.6689   21.4005 H   0  0  0  0  0  0
  -18.0342  -26.0090   22.9019 H   0  0  0  0  0  0
  -19.7962  -30.7286   24.2208 H   0  0  0  0  0  0
  -17.5039  -31.6273   24.5129 H   0  0  0  0  0  0
  -15.5363  -30.2941   23.7718 H   0  0  0  0  0  0
  -15.8714  -28.0828   22.7036 H   0  0  0  0  0  0
  -24.5946  -30.7004   25.7708 H   0  0  0  0  0  0
  -24.8782  -32.2914   26.4630 H   0  0  0  0  0  0
  -25.7980  -30.9071   27.0248 H   0  0  0  0  0  0
  -26.2976  -29.6669   24.1306 H   0  0  0  0  0  0
  -27.3996  -29.7252   25.4855 H   0  0  0  0  0  0
  -27.8901  -30.4149   23.9590 H   0  0  0  0  0  0
  -27.2694  -33.3715   26.1854 H   0  0  0  0  0  0
  -28.3981  -32.6698   25.0367 H   0  0  0  0  0  0
  -28.0582  -31.8546   26.5544 H   0  0  0  0  0  0
  -28.2548  -38.0097   24.7496 H   0  0  0  0  0  0
  -28.1093  -36.2606   24.6307 H   0  0  0  0  0  0
  -27.2282  -37.1427   25.8878 H   0  0  0  0  0  0
  -20.9514  -29.8770   21.6783 H   0  0  0  0  0  0
  -26.0146  -38.2780   24.1440 H   0  0  0  0  0  0
  -27.2334  -18.7945   19.7802 H   0  0  0  0  0  0
  -31.3463  -20.3019   22.0363 H   0  0  0  0  0  0
  -31.3179  -21.8886   21.2569 H   0  0  0  0  0  0
  -31.8918  -20.4721   20.3523 H   0  0  0  0  0  0
  -30.6903  -17.8597   21.5636 H   0  0  0  0  0  0
  -31.0080  -17.8297   19.8771 H   0  0  0  0  0  0
  -29.9579  -23.4241   19.8261 H   0  0  0  0  0  0
  -29.4393  -23.4024   21.4725 H   0  0  0  0  0  0
  -27.1260  -24.3360   20.7521 H   0  0  0  0  0  0
  -27.6564  -24.3657   19.1077 H   0  0  0  0  0  0
  -26.9421  -21.2896   19.7692 H   0  0  0  0  0  0
  -28.7737  -16.0638   20.6900 H   0  0  0  0  0  0
  1 25  1  0  0  0
  1 30  2  0  0  0
  1 80  1  0  0  0
  2  3  1  0  0  0
  2 25  1  0  0  0
  2 81  1  0  0  0
  2 82  1  0  0  0
  3  4  1  0  0  0
  3 83  1  0  0  0
  3 84  1  0  0  0
  4  5  1  0  0  0
  4 85  1  0  0  0
  4 86  1  0  0  0
  5  6  1  0  0  0
  5 26  1  0  0  0
  5 87  1  0  0  0
  6 25  1  0  0  0
  6 88  1  0  0  0
  6 89  1  0  0  0
  7  8  2  0  0  0
  7 26  1  0  0  0
  7 29  1  0  0  0
  8  9  1  0  0  0
  8 22  1  0  0  0
  9 10  1  0  0  0
  9 27  2  0  0  0
 10 11  2  0  0  0
 10 15  1  0  0  0
 11 12  1  0  0  0
 11 90  1  0  0  0
 12 13  2  0  0  0
 12 91  1  0  0  0
 13 14  1  0  0  0
 13 31  1  0  0  0
 14 15  2  0  0  0
 14 92  1  0  0  0
 15 93  1  0  0  0
 16 17  2  0  0  0
 16 21  1  0  0  0
 16 31  1  0  0  0
 17 18  1  0  0  0
 17 94  1  0  0  0
 18 19  2  0  0  0
 18 95  1  0  0  0
 19 20  1  0  0  0
 19 24  1  0  0  0
 20 21  2  0  0  0
 20 96  1  0  0  0
 21 23  1  0  0  0
 22 28  1  0  0  0
 22 32  2  0  0  0
 26 27  1  0  0  0
 28 97  1  0  0  0
 28 98  1  0  0  0
 29 99  1  0  0  0
 29100  1  0  0  0
 33 34  1  0  0  0
 33 66  1  0  0  0
 33 70  2  0  0  0
 34 36  1  0  0  0
 34 59  1  0  0  0
 34101  1  0  0  0
 35 44  2  0  0  0
 35 45  1  0  0  0
 35 68  1  0  0  0
 36 56  1  0  0  0
 36102  1  0  0  0
 37 39  1  0  0  0
 37 47  1  0  0  0
 37 66  1  0  0  0
 37103  1  0  0  0
 38 43  2  0  0  0
 38 46  1  0  0  0
 38 47  1  0  0  0
 39 64  1  0  0  0
 39 67  2  0  0  0
 40 52  1  0  0  0
 40 53  2  0  0  0
 40 58  1  0  0  0
 41104  1  0  0  0
 41105  1  0  0  0
 41106  1  0  0  0
 41 48  1  0  0  0
 42 43  1  0  0  0
 42 66  1  0  0  0
 42107  1  0  0  0
 42108  1  0  0  0
 43 44  1  0  0  0
 44109  1  0  0  0
 45 46  2  0  0  0
 45110  1  0  0  0
 46111  1  0  0  0
 47112  1  0  0  0
 47113  1  0  0  0
 48 56  1  0  0  0
 48 65  1  0  0  0
 48114  1  0  0  0
 49 50  1  0  0  0
 49 53  1  0  0  0
 49 64  1  0  0  0
 49115  1  0  0  0
 50 51  1  0  0  0
 50116  1  0  0  0
 50117  1  0  0  0
 51 52  1  0  0  0
 51118  1  0  0  0
 51119  1  0  0  0
 52120  1  0  0  0
 52121  1  0  0  0
 53 54  1  0  0  0
 54 55  2  0  0  0
 54122  1  0  0  0
 55 57  1  0  0  0
 55123  1  0  0  0
 56 69  2  0  0  0
 57 58  2  0  0  0
 57124  1  0  0  0
 58125  1  0  0  0
 59 60  1  0  0  0
 59 61  1  0  0  0
 59 62  1  0  0  0
 60126  1  0  0  0
 60127  1  0  0  0
 60128  1  0  0  0
 61129  1  0  0  0
 61130  1  0  0  0
 61131  1  0  0  0
 62132  1  0  0  0
 62133  1  0  0  0
 62134  1  0  0  0
 63 65  1  0  0  0
 63135  1  0  0  0
 63136  1  0  0  0
 63137  1  0  0  0
 64138  1  0  0  0
 65139  1  0  0  0
 68 77  1  0  0  0
 71 72  2  0  0  0
 71 79  1  0  0  0
 71140  1  0  0  0
 72 75  1  0  0  0
 72 78  1  0  0  0
 73 76  1  0  0  0
 73 78  1  0  0  0
 73 79  2  0  0  0
 74 78  1  0  0  0
 74141  1  0  0  0
 74142  1  0  0  0
 74143  1  0  0  0
 75 80  1  0  0  0
 75144  1  0  0  0
 75145  1  0  0  0
 76 77  1  0  0  0
 76146  1  0  0  0
 76147  1  0  0  0
 77148  1  0  0  0
 77149  1  0  0  0
 79150  1  0  0  0
 80151  1  0  0  0
M  CHG  1  79   1
M  ISO  4   1 100  68 101  77 101  80 100
M  END
> <chiral flag>
0

> <version>
0

> <s_m_source_file>
/data/baiqing/PycharmProjects/Reinvent-master-3.2/result/LINK_invent/BTK/process_docking_weight1_custom_sum_contain_oxygen_bond_distance_aromatic_linkinvent_7_9_3/rearranged_h_0052.sdf

> <i_m_source_file_index>
55

> <r_mmod_Potential_Energy-OPLS-2005>
437.867218017578

> <r_mmod_Stretch_Energy-OPLS-2005>
309.081634521484

> <r_mmod_Bend_Energy-OPLS-2005>
276.478271484375

> <r_mmod_Torsional_Energy-OPLS-2005>
205.406784057617

> <r_mmod_Improper_Torsional_Energy-OPLS-2005>
4.21167707443237

> <r_mmod_Van_der_Waal_Energy-OPLS-2005>
109.445579528809

> <r_mmod_Electrostatic_Energy-OPLS-2005>
-250.814437866211

> <r_mmod_Solvation_Energy-OPLS-2005>
-454.623229980469

> <b_mmod_Minimization_Converged-OPLS-2005>
0

> <r_mmod_RMS_Derivative-OPLS-2005>
2.85844779014587

$$$$
55
                    3D
 Structure written by MMmdl.
169177  0  0  1  0            999 V2000
  -30.6982  -14.4721   20.4851 C   0  0  0  0  0  0
  -30.4087  -12.2825   19.4161 C   0  0  0  0  0  0
  -29.4878  -12.4973   18.1977 C   0  0  0  0  0  0
  -28.0030  -12.3738   18.5979 C   0  0  0  0  0  0
  -27.6525  -13.2130   19.8540 C   0  0  2  0  0  0
  -28.7002  -13.0230   20.9722 C   0  0  0  0  0  0
  -25.2597  -13.8158   20.5745 C   0  0  0  0  0  0
  -24.1873  -13.0447   20.9237 C   0  0  0  0  0  0
  -24.6409  -11.6891   20.8744 C   0  0  0  0  0  0
  -23.9058  -10.4296   21.0420 C   0  0  0  0  0  0
  -24.3623   -9.4223   21.9209 C   0  0  0  0  0  0
  -23.6335   -8.2232   22.0739 C   0  0  0  0  0  0
  -22.4315   -8.0266   21.3522 C   0  0  0  0  0  0
  -21.9942   -9.0243   20.4629 C   0  0  0  0  0  0
  -22.7231  -10.2150   20.3067 C   0  0  0  0  0  0
  -21.6852   -6.0764   22.5308 C   0  0  0  0  0  0
  -21.4014   -6.5662   23.8250 C   0  0  0  0  0  0
  -21.3657   -5.6804   24.9202 C   0  0  0  0  0  0
  -21.6037   -4.3071   24.7244 C   0  0  0  0  0  0
  -21.8817   -3.8179   23.4354 C   0  0  0  0  0  0
  -21.9200   -4.6996   22.3410 C   0  0  0  0  0  0
  -22.7893  -13.5227   21.1912 C   0  0  0  0  0  0
  -22.1687   -4.2189   21.0977 F   0  0  0  0  0  0
  -21.5604   -3.4540   25.7735 F   0  0  0  0  0  0
  -30.0290  -13.2905   20.4143 N   0  0  0  0  0  0
  -26.3007  -12.9330   20.3294 N   0  0  0  0  0  0
  -25.9335  -11.6482   20.5749 N   0  0  0  0  0  0
  -22.0532  -12.8196   22.0414 N   0  0  0  0  0  0
  -25.4347  -15.1903   20.4177 N   0  0  0  0  0  0
  -31.9001  -14.5414   20.2186 O   0  0  0  0  0  0
  -21.6629   -6.8905   21.4259 O   0  0  0  0  0  0
  -22.3567  -14.5545   20.6772 O   0  0  0  0  0  0
  -24.6140  -31.8706   23.2181 C   0  0  0  0  0  0
  -25.9039  -32.4831   23.8459 C   0  0  1  0  0  0
  -27.2302  -27.4322   20.0626 C   0  0  0  0  0  0
  -25.5930  -33.8637   24.2366 N   0  0  0  0  0  0
  -23.4028  -30.4950   21.5601 C   0  0  2  0  0  0
  -24.8459  -28.9657   20.1149 C   0  0  0  0  0  0
  -22.7445  -29.4634   22.5044 C   0  0  0  0  0  0
  -18.0287  -28.1386   22.8485 C   0  0  0  0  0  0
  -24.1489  -36.7298   23.2633 C   0  0  0  0  0  0
  -25.9406  -30.8197   21.3885 C   0  0  0  0  0  0
  -26.0082  -29.4635   20.7156 C   0  0  0  0  0  0
  -27.1998  -28.7030   20.6810 C   0  0  0  0  0  0
  -26.0354  -26.9357   19.4830 C   0  0  0  0  0  0
  -24.8556  -27.7029   19.4994 C   0  0  0  0  0  0
  -23.6115  -29.8381   20.1707 C   0  0  0  0  0  0
  -25.4109  -36.3099   24.0333 C   0  0  1  0  0  0
  -20.5870  -28.3634   23.1346 C   0  0  2  0  0  0
  -20.6778  -26.9378   22.5425 C   0  0  0  0  0  0
  -19.5748  -26.6394   21.5226 C   0  0  0  0  0  0
  -18.1928  -26.7938   22.1629 C   0  0  0  0  0  0
  -19.1535  -28.8836   23.2911 C   0  0  0  0  0  0
  -18.9463  -30.1447   23.8893 C   0  0  0  0  0  0
  -17.6463  -30.6579   24.0550 C   0  0  0  0  0  0
  -25.9044  -34.9464   23.5132 C   0  0  0  0  0  0
  -16.5352  -29.9061   23.6341 C   0  0  0  0  0  0
  -16.7283  -28.6501   23.0324 C   0  0  0  0  0  0
  -26.4467  -31.6651   25.0811 C   0  0  0  0  0  0
  -25.3742  -31.3751   26.1565 C   0  0  0  0  0  0
  -27.0344  -30.3102   24.6251 C   0  0  0  0  0  0
  -27.6064  -32.4390   25.7542 C   0  0  0  0  0  0
  -27.5582  -37.1785   24.8441 C   0  0  0  0  0  0
  -21.4181  -29.3001   22.3799 N   0  0  0  0  0  0
  -26.4290  -37.3789   23.9406 N   0  0  0  0  0  0
  -24.6693  -31.0748   22.1135 N   0  0  0  0  0  0
  -23.4235  -28.8167   23.3053 O   0  0  0  0  0  0
  -28.4337  -26.7518   20.0380 O   0  0  0  0  0  0
  -26.5599  -34.8892   22.4675 O   0  0  0  0  0  0
  -23.5325  -32.1499   23.7538 O   0  0  0  0  0  0
  -30.8292  -16.5849   18.4031 C   0  0  0  0  0  0
  -29.4711  -18.1142   17.8130 C   0  0  0  0  0  0
  -29.1592  -17.7765   19.1150 C   0  0  0  0  0  0
  -28.8093  -19.0930   16.8920 C   0  0  0  0  0  0
  -30.4440  -16.5490   21.9209 C   0  0  0  0  0  0
  -30.0451  -22.1465   21.5218 C   0  0  0  0  0  0
  -28.0948  -18.3835   19.9946 C   0  0  0  0  0  0
  -28.4750  -19.7227   20.6847 C   0  0  0  0  0  0
  -28.0554  -24.4717   20.8363 C   0  0  0  0  0  0
  -28.9310  -20.8488   19.7211 C   0  0  0  0  0  0
  -27.8820  -22.9572   20.5467 C   0  0  0  0  0  0
  -28.4831  -25.3686   19.6525 C   0  0  0  0  0  0
  -29.9326  -15.8224   20.6656 C   0  0  1  0  0  0
  -30.5685  -17.3895   17.3844 N   0  0  0  0  0  0
  -29.9858  -16.6824   19.4537 N   0  0  0  0  0  0
  -29.1461  -22.1911   20.3388 N   0  3  1  0  0  0
  -31.4546  -12.3543   19.1176 H   0  0  0  0  0  0
  -30.2788  -11.2776   19.8238 H   0  0  0  0  0  0
  -29.7223  -11.7844   17.4072 H   0  0  0  0  0  0
  -29.6715  -13.4858   17.7766 H   0  0  0  0  0  0
  -27.7940  -11.3206   18.7839 H   0  0  0  0  0  0
  -27.3655  -12.6712   17.7640 H   0  0  0  0  0  0
  -27.6748  -14.2548   19.5327 H   0  0  0  0  0  0
  -28.6663  -11.9999   21.3474 H   0  0  0  0  0  0
  -28.4890  -13.6597   21.8315 H   0  0  0  0  0  0
  -25.2782   -9.5685   22.4787 H   0  0  0  0  0  0
  -24.0059   -7.4597   22.7431 H   0  0  0  0  0  0
  -21.0876   -8.8749   19.8935 H   0  0  0  0  0  0
  -22.3699  -10.9689   19.6172 H   0  0  0  0  0  0
  -21.1999   -7.6177   23.9754 H   0  0  0  0  0  0
  -21.1489   -6.0535   25.9094 H   0  0  0  0  0  0
  -22.0598   -2.7638   23.2827 H   0  0  0  0  0  0
  -22.4152  -11.9852   22.4793 H   0  0  0  0  0  0
  -21.1142  -13.1216   22.2612 H   0  0  0  0  0  0
  -24.6696  -15.8476   20.5083 H   0  0  0  0  0  0
  -26.2800  -15.6193   20.0672 H   0  0  0  0  0  0
  -26.7102  -32.5500   23.1215 H   0  0  0  0  0  0
  -25.0044  -33.9813   25.0472 H   0  0  0  0  0  0
  -22.6886  -31.3115   21.4295 H   0  0  0  0  0  0
  -23.3761  -35.9621   23.3296 H   0  0  0  0  0  0
  -24.3558  -36.8944   22.2047 H   0  0  0  0  0  0
  -23.7251  -37.6489   23.6669 H   0  0  0  0  0  0
  -26.0785  -31.6017   20.6409 H   0  0  0  0  0  0
  -26.8146  -30.8418   22.0290 H   0  0  0  0  0  0
  -28.1091  -29.0761   21.1313 H   0  0  0  0  0  0
  -25.9814  -25.9677   19.0058 H   0  0  0  0  0  0
  -23.9594  -27.3183   19.0321 H   0  0  0  0  0  0
  -23.7269  -30.6229   19.4229 H   0  0  0  0  0  0
  -22.7306  -29.2711   19.8632 H   0  0  0  0  0  0
  -25.1287  -36.1967   25.0838 H   0  0  0  0  0  0
  -20.9939  -28.3185   24.1480 H   0  0  0  0  0  0
  -20.5741  -26.2227   23.3601 H   0  0  0  0  0  0
  -21.6645  -26.7480   22.1169 H   0  0  0  0  0  0
  -19.6905  -25.6313   21.1234 H   0  0  0  0  0  0
  -19.6687  -27.3226   20.6766 H   0  0  0  0  0  0
  -17.4212  -26.6709   21.4020 H   0  0  0  0  0  0
  -18.0276  -26.0083   22.9022 H   0  0  0  0  0  0
  -19.7927  -30.7262   24.2286 H   0  0  0  0  0  0
  -17.4996  -31.6252   24.5145 H   0  0  0  0  0  0
  -15.5331  -30.2919   23.7693 H   0  0  0  0  0  0
  -15.8699  -28.0815   22.7004 H   0  0  0  0  0  0
  -24.5827  -30.7236   25.7847 H   0  0  0  0  0  0
  -24.9010  -32.2906   26.5137 H   0  0  0  0  0  0
  -25.8043  -30.8767   27.0274 H   0  0  0  0  0  0
  -26.2929  -29.6836   24.1294 H   0  0  0  0  0  0
  -27.4085  -29.7364   25.4739 H   0  0  0  0  0  0
  -27.8778  -30.4406   23.9472 H   0  0  0  0  0  0
  -27.2705  -33.3671   26.2187 H   0  0  0  0  0  0
  -28.3810  -32.7040   25.0332 H   0  0  0  0  0  0
  -28.0844  -31.8523   26.5405 H   0  0  0  0  0  0
  -28.2557  -38.0124   24.7534 H   0  0  0  0  0  0
  -28.1148  -36.2653   24.6231 H   0  0  0  0  0  0
  -27.2297  -37.1377   25.8843 H   0  0  0  0  0  0
  -20.9411  -29.8717   21.6983 H   0  0  0  0  0  0
  -26.0187  -38.2869   24.1439 H   0  0  0  0  0  0
  -31.6455  -15.8850   18.3200 H   0  0  0  0  0  0
  -27.7683  -19.2628   17.1639 H   0  0  0  0  0  0
  -28.8086  -18.7322   15.8642 H   0  0  0  0  0  0
  -29.3253  -20.0526   16.8900 H   0  0  0  0  0  0
  -29.9018  -17.4742   22.0924 H   0  0  0  0  0  0
  -31.5052  -16.7933   21.8529 H   0  0  0  0  0  0
  -30.2923  -15.9252   22.8051 H   0  0  0  0  0  0
  -30.4624  -23.1262   21.7481 H   0  0  0  0  0  0
  -30.8860  -21.4794   21.3354 H   0  0  0  0  0  0
  -29.5280  -21.7851   22.4096 H   0  0  0  0  0  0
  -27.7828  -17.6730   20.7570 H   0  0  0  0  0  0
  -27.2063  -18.5537   19.3833 H   0  0  0  0  0  0
  -29.2540  -19.5309   21.4190 H   0  0  0  0  0  0
  -27.6087  -20.0646   21.2482 H   0  0  0  0  0  0
  -28.7421  -24.6264   21.6673 H   0  0  0  0  0  0
  -27.0903  -24.8289   21.1914 H   0  0  0  0  0  0
  -28.2042  -20.9447   18.9149 H   0  0  0  0  0  0
  -29.8676  -20.5529   19.2483 H   0  0  0  0  0  0
  -27.2278  -22.8436   19.6815 H   0  0  0  0  0  0
  -27.3381  -22.5095   21.3794 H   0  0  0  0  0  0
  -27.9141  -25.1726   18.7434 H   0  0  0  0  0  0
  -29.5157  -25.1393   19.3854 H   0  0  0  0  0  0
  -28.8783  -15.6201   20.8283 H   0  0  0  0  0  0
  -29.6538  -22.7050   19.6335 H   0  0  0  0  0  0
  1 25  1  0  0  0
  1 30  2  0  0  0
  1 83  1  0  0  0
  2  3  1  0  0  0
  2 25  1  0  0  0
  2 87  1  0  0  0
  2 88  1  0  0  0
  3  4  1  0  0  0
  3 89  1  0  0  0
  3 90  1  0  0  0
  4  5  1  0  0  0
  4 91  1  0  0  0
  4 92  1  0  0  0
  5  6  1  0  0  0
  5 26  1  0  0  0
  5 93  1  0  0  0
  6 25  1  0  0  0
  6 94  1  0  0  0
  6 95  1  0  0  0
  7  8  2  0  0  0
  7 26  1  0  0  0
  7 29  1  0  0  0
  8  9  1  0  0  0
  8 22  1  0  0  0
  9 10  1  0  0  0
  9 27  2  0  0  0
 10 11  2  0  0  0
 10 15  1  0  0  0
 11 12  1  0  0  0
 11 96  1  0  0  0
 12 13  2  0  0  0
 12 97  1  0  0  0
 13 14  1  0  0  0
 13 31  1  0  0  0
 14 15  2  0  0  0
 14 98  1  0  0  0
 15 99  1  0  0  0
 16 17  2  0  0  0
 16 21  1  0  0  0
 16 31  1  0  0  0
 17 18  1  0  0  0
 17100  1  0  0  0
 18 19  2  0  0  0
 18101  1  0  0  0
 19 20  1  0  0  0
 19 24  1  0  0  0
 20 21  2  0  0  0
 20102  1  0  0  0
 21 23  1  0  0  0
 22 28  1  0  0  0
 22 32  2  0  0  0
 26 27  1  0  0  0
 28103  1  0  0  0
 28104  1  0  0  0
 29105  1  0  0  0
 29106  1  0  0  0
 33 34  1  0  0  0
 33 66  1  0  0  0
 33 70  2  0  0  0
 34 36  1  0  0  0
 34 59  1  0  0  0
 34107  1  0  0  0
 35 44  2  0  0  0
 35 45  1  0  0  0
 35 68  1  0  0  0
 36 56  1  0  0  0
 36108  1  0  0  0
 37 39  1  0  0  0
 37 47  1  0  0  0
 37 66  1  0  0  0
 37109  1  0  0  0
 38 43  2  0  0  0
 38 46  1  0  0  0
 38 47  1  0  0  0
 39 64  1  0  0  0
 39 67  2  0  0  0
 40 52  1  0  0  0
 40 53  2  0  0  0
 40 58  1  0  0  0
 41110  1  0  0  0
 41111  1  0  0  0
 41112  1  0  0  0
 41 48  1  0  0  0
 42 43  1  0  0  0
 42 66  1  0  0  0
 42113  1  0  0  0
 42114  1  0  0  0
 43 44  1  0  0  0
 44115  1  0  0  0
 45 46  2  0  0  0
 45116  1  0  0  0
 46117  1  0  0  0
 47118  1  0  0  0
 47119  1  0  0  0
 48 56  1  0  0  0
 48 65  1  0  0  0
 48120  1  0  0  0
 49 50  1  0  0  0
 49 53  1  0  0  0
 49 64  1  0  0  0
 49121  1  0  0  0
 50 51  1  0  0  0
 50122  1  0  0  0
 50123  1  0  0  0
 51 52  1  0  0  0
 51124  1  0  0  0
 51125  1  0  0  0
 52126  1  0  0  0
 52127  1  0  0  0
 53 54  1  0  0  0
 54 55  2  0  0  0
 54128  1  0  0  0
 55 57  1  0  0  0
 55129  1  0  0  0
 56 69  2  0  0  0
 57 58  2  0  0  0
 57130  1  0  0  0
 58131  1  0  0  0
 59 60  1  0  0  0
 59 61  1  0  0  0
 59 62  1  0  0  0
 60132  1  0  0  0
 60133  1  0  0  0
 60134  1  0  0  0
 61135  1  0  0  0
 61136  1  0  0  0
 61137  1  0  0  0
 62138  1  0  0  0
 62139  1  0  0  0
 62140  1  0  0  0
 63 65  1  0  0  0
 63141  1  0  0  0
 63142  1  0  0  0
 63143  1  0  0  0
 64144  1  0  0  0
 65145  1  0  0  0
 68 82  1  0  0  0
 71 84  2  0  0  0
 71 85  1  0  0  0
 71146  1  0  0  0
 72 73  2  0  0  0
 72 74  1  0  0  0
 72 84  1  0  0  0
 73 77  1  0  0  0
 73 85  1  0  0  0
 74147  1  0  0  0
 74148  1  0  0  0
 74149  1  0  0  0
 75150  1  0  0  0
 75151  1  0  0  0
 75152  1  0  0  0
 75 83  1  0  0  0
 76153  1  0  0  0
 76154  1  0  0  0
 76155  1  0  0  0
 76 86  1  0  0  0
 77 78  1  0  0  0
 77156  1  0  0  0
 77157  1  0  0  0
 78 80  1  0  0  0
 78158  1  0  0  0
 78159  1  0  0  0
 79 81  1  0  0  0
 79 82  1  0  0  0
 79160  1  0  0  0
 79161  1  0  0  0
 80 86  1  0  0  0
 80162  1  0  0  0
 80163  1  0  0  0
 81 86  1  0  0  0
 81164  1  0  0  0
 81165  1  0  0  0
 82166  1  0  0  0
 82167  1  0  0  0
 83 85  1  0  0  0
 83168  1  0  0  0
 86169  1  0  0  0
M  CHG  1  86   1
M  ISO  4   1 100  68 101  82 101  83 100
M  END
> <chiral flag>
0

> <version>
0

> <s_m_source_file>
/data/baiqing/PycharmProjects/Reinvent-master-3.2/result/LINK_invent/BTK/process_docking_weight1_custom_sum_contain_oxygen_bond_distance_aromatic_linkinvent_7_9_3/rearranged_h_0052.sdf

> <i_m_source_file_index>
56

> <r_mmod_Potential_Energy-OPLS-2005>
-118.669631958008

> <r_mmod_Stretch_Energy-OPLS-2005>
42.2103652954102

> <r_mmod_Bend_Energy-OPLS-2005>
119.687713623047

> <r_mmod_Torsional_Energy-OPLS-2005>
227.960357666016

> <r_mmod_Improper_Torsional_Energy-OPLS-2005>
5.0693187713623

> <r_mmod_Van_der_Waal_Energy-OPLS-2005>
127.906723022461

> <r_mmod_Electrostatic_Energy-OPLS-2005>
-215.050750732422

> <r_mmod_Solvation_Energy-OPLS-2005>
-448.154571533203

> <b_mmod_Minimization_Converged-OPLS-2005>
0

> <r_mmod_RMS_Derivative-OPLS-2005>
5.11239194869995

$$$$
56
                    3D
 Structure written by MMmdl.
154162  0  0  1  0            999 V2000
  -30.4020  -15.2926   20.3809 C   0  0  0  0  0  0
  -30.4352  -12.8082   19.5871 C   0  0  0  0  0  0
  -29.5658  -12.5958   18.3198 C   0  0  0  0  0  0
  -28.0939  -12.3367   18.6946 C   0  0  0  0  0  0
  -27.6159  -13.2785   19.8319 C   0  0  2  0  0  0
  -28.6300  -13.4470   20.9865 C   0  0  0  0  0  0
  -25.2378  -13.8213   20.5735 C   0  0  0  0  0  0
  -24.1734  -13.0414   20.9189 C   0  0  0  0  0  0
  -24.6366  -11.6897   20.8656 C   0  0  0  0  0  0
  -23.9052  -10.4284   21.0311 C   0  0  0  0  0  0
  -24.3599   -9.4230   21.9106 C   0  0  0  0  0  0
  -23.6299   -8.2267   22.0688 C   0  0  0  0  0  0
  -22.4276   -8.0294   21.3506 C   0  0  0  0  0  0
  -21.9869   -9.0252   20.4605 C   0  0  0  0  0  0
  -22.7188  -10.2142   20.2993 C   0  0  0  0  0  0
  -21.6914   -6.0735   22.5254 C   0  0  0  0  0  0
  -21.4079   -6.5629   23.8184 C   0  0  0  0  0  0
  -21.3643   -5.6770   24.9128 C   0  0  0  0  0  0
  -21.6043   -4.3026   24.7178 C   0  0  0  0  0  0
  -21.8850   -3.8127   23.4293 C   0  0  0  0  0  0
  -21.9203   -4.6952   22.3363 C   0  0  0  0  0  0
  -22.7741  -13.5171   21.1826 C   0  0  0  0  0  0
  -22.1691   -4.2143   21.0939 F   0  0  0  0  0  0
  -21.5555   -3.4499   25.7669 F   0  0  0  0  0  0
  -29.8750  -13.9605   20.3893 N   0  0  0  0  0  0
  -26.2816  -12.9516   20.3145 N   0  0  0  0  0  0
  -25.9302  -11.6621   20.5594 N   0  0  0  0  0  0
  -22.0463  -12.8187   22.0439 N   0  0  0  0  0  0
  -25.4020  -15.1975   20.4336 N   0  0  0  0  0  0
  -31.6011  -15.3185   20.0646 O   0  0  0  0  0  0
  -21.6696   -6.8866   21.4212 O   0  0  0  0  0  0
  -22.3418  -14.5500   20.6656 O   0  0  0  0  0  0
  -24.6614  -31.8216   23.1680 C   0  0  0  0  0  0
  -25.9297  -32.4558   23.8131 C   0  0  1  0  0  0
  -27.2430  -26.9249   20.1868 C   0  0  0  0  0  0
  -25.5969  -33.8368   24.2064 N   0  0  0  0  0  0
  -23.4769  -30.4340   21.5117 C   0  0  2  0  0  0
  -24.9361  -28.8121   20.1195 C   0  0  0  0  0  0
  -22.7637  -29.4437   22.4718 C   0  0  0  0  0  0
  -18.0305  -28.1385   22.8433 C   0  0  0  0  0  0
  -24.1494  -36.7217   23.2648 C   0  0  0  0  0  0
  -26.0465  -30.6354   21.3937 C   0  0  0  0  0  0
  -26.1232  -29.2208   20.7420 C   0  0  0  0  0  0
  -27.2726  -28.3037   20.7388 C   0  0  0  0  0  0
  -26.0221  -26.6725   19.5218 C   0  0  0  0  0  0
  -24.9111  -27.5575   19.4904 C   0  0  0  0  0  0
  -23.7230  -29.7444   20.1396 C   0  0  0  0  0  0
  -25.4119  -36.2949   24.0310 C   0  0  1  0  0  0
  -20.5918  -28.3728   23.1143 C   0  0  2  0  0  0
  -20.6781  -26.9408   22.5374 C   0  0  0  0  0  0
  -19.5767  -26.6355   21.5177 C   0  0  0  0  0  0
  -18.1951  -26.7904   22.1610 C   0  0  0  0  0  0
  -19.1560  -28.8882   23.2775 C   0  0  0  0  0  0
  -18.9501  -30.1473   23.8807 C   0  0  0  0  0  0
  -17.6504  -30.6581   24.0533 C   0  0  0  0  0  0
  -25.9094  -34.9328   23.5018 C   0  0  0  0  0  0
  -16.5389  -29.9073   23.6324 C   0  0  0  0  0  0
  -16.7291  -28.6492   23.0332 C   0  0  0  0  0  0
  -26.4577  -31.6458   25.0633 C   0  0  0  0  0  0
  -25.3745  -31.3761   26.1329 C   0  0  0  0  0  0
  -27.0466  -30.2785   24.6433 C   0  0  0  0  0  0
  -27.6030  -32.4267   25.7459 C   0  0  0  0  0  0
  -27.5571  -37.1741   24.8450 C   0  0  0  0  0  0
  -21.4295  -29.3056   22.3504 N   0  0  0  0  0  0
  -26.4257  -37.3692   23.9437 N   0  0  0  0  0  0
  -24.7485  -30.9887   22.0796 N   0  0  0  0  0  0
  -23.4204  -28.8012   23.2950 O   0  0  0  0  0  0
  -28.2831  -25.8476   20.1676 O   0  0  0  0  0  0
  -26.5695  -34.8878   22.4608 O   0  0  0  0  0  0
  -23.5670  -32.1190   23.6766 O   0  0  0  0  0  0
  -30.5582  -21.3242   22.9438 C   0  0  0  0  0  0
  -30.6564  -19.9305   23.0459 C   0  0  0  0  0  0
  -29.3092  -21.2248   20.9418 C   0  0  0  0  0  0
  -29.5467  -19.6353   20.9838 C   0  0  0  0  0  0
  -31.3197  -22.2746   23.8370 C   0  0  0  0  0  0
  -31.4575  -19.2551   24.1494 C   0  0  0  0  0  0
  -28.8296  -22.6195   20.0101 C   0  0  0  0  0  0
  -29.5060  -18.1637   20.0772 C   0  0  0  0  0  0
  -28.1772  -24.2357   20.5606 C   0  0  0  0  0  0
  -29.8606  -21.9177   21.9643 N   0  0  0  0  0  0
  -30.1303  -19.1282   22.1052 N   0  0  0  0  0  0
  -29.6055  -16.5403   20.5488 N   0  0  0  0  0  0
  -31.4721  -12.9825   19.3034 H   0  0  0  0  0  0
  -30.4618  -11.9020   20.1949 H   0  0  0  0  0  0
  -29.9664  -11.7779   17.7197 H   0  0  0  0  0  0
  -29.6270  -13.4823   17.6895 H   0  0  0  0  0  0
  -27.9806  -11.2930   18.9927 H   0  0  0  0  0  0
  -27.4675  -12.4648   17.8136 H   0  0  0  0  0  0
  -27.5380  -14.2579   19.3557 H   0  0  0  0  0  0
  -28.7741  -12.5101   21.5279 H   0  0  0  0  0  0
  -28.2493  -14.1611   21.7193 H   0  0  0  0  0  0
  -25.2745   -9.5767   22.4651 H   0  0  0  0  0  0
  -24.0033   -7.4679   22.7404 H   0  0  0  0  0  0
  -21.0766   -8.8762   19.8956 H   0  0  0  0  0  0
  -22.3581  -10.9659   19.6102 H   0  0  0  0  0  0
  -21.2214   -7.6154   23.9678 H   0  0  0  0  0  0
  -21.1386   -6.0494   25.9020 H   0  0  0  0  0  0
  -22.0653   -2.7591   23.2781 H   0  0  0  0  0  0
  -22.4178  -11.9939   22.4920 H   0  0  0  0  0  0
  -21.1044  -13.1134   22.2607 H   0  0  0  0  0  0
  -24.6298  -15.8363   20.5867 H   0  0  0  0  0  0
  -26.2395  -15.6569   20.1007 H   0  0  0  0  0  0
  -26.7348  -32.5117   23.0819 H   0  0  0  0  0  0
  -25.0045  -33.9400   25.0171 H   0  0  0  0  0  0
  -22.7904  -31.2629   21.3346 H   0  0  0  0  0  0
  -23.3763  -35.9529   23.3207 H   0  0  0  0  0  0
  -24.3627  -36.8961   22.2089 H   0  0  0  0  0  0
  -23.7220  -37.6374   23.6754 H   0  0  0  0  0  0
  -26.2224  -31.3839   20.6179 H   0  0  0  0  0  0
  -26.9044  -30.6946   22.0516 H   0  0  0  0  0  0
  -28.1837  -28.6390   21.2149 H   0  0  0  0  0  0
  -25.9145  -25.7245   19.0166 H   0  0  0  0  0  0
  -24.0121  -27.2404   18.9785 H   0  0  0  0  0  0
  -23.8867  -30.5117   19.3812 H   0  0  0  0  0  0
  -22.8346  -29.2009   19.8134 H   0  0  0  0  0  0
  -25.1296  -36.1737   25.0792 H   0  0  0  0  0  0
  -21.0007  -28.3356   24.1265 H   0  0  0  0  0  0
  -20.5596  -26.2384   23.3633 H   0  0  0  0  0  0
  -21.6656  -26.7351   22.1233 H   0  0  0  0  0  0
  -19.6938  -25.6248   21.1253 H   0  0  0  0  0  0
  -19.6683  -27.3113   20.6656 H   0  0  0  0  0  0
  -17.4196  -26.6545   21.4048 H   0  0  0  0  0  0
  -18.0414  -26.0069   22.9043 H   0  0  0  0  0  0
  -19.7997  -30.7279   24.2138 H   0  0  0  0  0  0
  -17.5081  -31.6248   24.5161 H   0  0  0  0  0  0
  -15.5393  -30.2974   23.7703 H   0  0  0  0  0  0
  -15.8680  -28.0821   22.7075 H   0  0  0  0  0  0
  -24.5818  -30.7238   25.7680 H   0  0  0  0  0  0
  -24.9113  -32.3017   26.4737 H   0  0  0  0  0  0
  -25.8001  -30.8904   27.0120 H   0  0  0  0  0  0
  -26.3160  -29.6409   24.1465 H   0  0  0  0  0  0
  -27.3959  -29.7196   25.5136 H   0  0  0  0  0  0
  -27.9106  -30.3880   23.9878 H   0  0  0  0  0  0
  -27.2531  -33.3559   26.1961 H   0  0  0  0  0  0
  -28.3899  -32.6842   25.0357 H   0  0  0  0  0  0
  -28.0637  -31.8465   26.5469 H   0  0  0  0  0  0
  -28.2490  -38.0132   24.7579 H   0  0  0  0  0  0
  -28.1162  -36.2661   24.6140 H   0  0  0  0  0  0
  -27.2324  -37.1213   25.8858 H   0  0  0  0  0  0
  -20.9533  -29.8829   21.6708 H   0  0  0  0  0  0
  -26.0098  -38.2738   24.1485 H   0  0  0  0  0  0
  -32.3434  -22.3499   23.4625 H   0  0  0  0  0  0
  -31.3470  -21.9510   24.8780 H   0  0  0  0  0  0
  -30.8670  -23.2676   23.7974 H   0  0  0  0  0  0
  -31.1416  -19.5968   25.1338 H   0  0  0  0  0  0
  -32.5162  -19.4947   24.0290 H   0  0  0  0  0  0
  -31.3548  -18.1668   24.1354 H   0  0  0  0  0  0
  -28.1838  -22.2566   19.2153 H   0  0  0  0  0  0
  -29.7560  -22.8663   19.4863 H   0  0  0  0  0  0
  -28.5537  -18.2205   19.5463 H   0  0  0  0  0  0
  -30.2429  -18.3038   19.2890 H   0  0  0  0  0  0
  -28.5625  -24.2966   21.5797 H   0  0  0  0  0  0
  -27.1139  -24.0564   20.7065 H   0  0  0  0  0  0
  -28.7224  -16.2881   20.9628 H   0  0  0  0  0  0
  1 25  1  0  0  0
  1 30  2  0  0  0
  1 82  1  0  0  0
  2  3  1  0  0  0
  2 25  1  0  0  0
  2 83  1  0  0  0
  2 84  1  0  0  0
  3  4  1  0  0  0
  3 85  1  0  0  0
  3 86  1  0  0  0
  4  5  1  0  0  0
  4 87  1  0  0  0
  4 88  1  0  0  0
  5  6  1  0  0  0
  5 26  1  0  0  0
  5 89  1  0  0  0
  6 25  1  0  0  0
  6 90  1  0  0  0
  6 91  1  0  0  0
  7  8  2  0  0  0
  7 26  1  0  0  0
  7 29  1  0  0  0
  8  9  1  0  0  0
  8 22  1  0  0  0
  9 10  1  0  0  0
  9 27  2  0  0  0
 10 11  2  0  0  0
 10 15  1  0  0  0
 11 12  1  0  0  0
 11 92  1  0  0  0
 12 13  2  0  0  0
 12 93  1  0  0  0
 13 14  1  0  0  0
 13 31  1  0  0  0
 14 15  2  0  0  0
 14 94  1  0  0  0
 15 95  1  0  0  0
 16 17  2  0  0  0
 16 21  1  0  0  0
 16 31  1  0  0  0
 17 18  1  0  0  0
 17 96  1  0  0  0
 18 19  2  0  0  0
 18 97  1  0  0  0
 19 20  1  0  0  0
 19 24  1  0  0  0
 20 21  2  0  0  0
 20 98  1  0  0  0
 21 23  1  0  0  0
 22 28  1  0  0  0
 22 32  2  0  0  0
 26 27  1  0  0  0
 28 99  1  0  0  0
 28100  1  0  0  0
 29101  1  0  0  0
 29102  1  0  0  0
 33 34  1  0  0  0
 33 66  1  0  0  0
 33 70  2  0  0  0
 34 36  1  0  0  0
 34 59  1  0  0  0
 34103  1  0  0  0
 35 44  2  0  0  0
 35 45  1  0  0  0
 35 68  1  0  0  0
 36 56  1  0  0  0
 36104  1  0  0  0
 37 39  1  0  0  0
 37 47  1  0  0  0
 37 66  1  0  0  0
 37105  1  0  0  0
 38 43  2  0  0  0
 38 46  1  0  0  0
 38 47  1  0  0  0
 39 64  1  0  0  0
 39 67  2  0  0  0
 40 52  1  0  0  0
 40 53  2  0  0  0
 40 58  1  0  0  0
 41106  1  0  0  0
 41107  1  0  0  0
 41108  1  0  0  0
 41 48  1  0  0  0
 42 43  1  0  0  0
 42 66  1  0  0  0
 42109  1  0  0  0
 42110  1  0  0  0
 43 44  1  0  0  0
 44111  1  0  0  0
 45 46  2  0  0  0
 45112  1  0  0  0
 46113  1  0  0  0
 47114  1  0  0  0
 47115  1  0  0  0
 48 56  1  0  0  0
 48 65  1  0  0  0
 48116  1  0  0  0
 49 50  1  0  0  0
 49 53  1  0  0  0
 49 64  1  0  0  0
 49117  1  0  0  0
 50 51  1  0  0  0
 50118  1  0  0  0
 50119  1  0  0  0
 51 52  1  0  0  0
 51120  1  0  0  0
 51121  1  0  0  0
 52122  1  0  0  0
 52123  1  0  0  0
 53 54  1  0  0  0
 54 55  2  0  0  0
 54124  1  0  0  0
 55 57  1  0  0  0
 55125  1  0  0  0
 56 69  2  0  0  0
 57 58  2  0  0  0
 57126  1  0  0  0
 58127  1  0  0  0
 59 60  1  0  0  0
 59 61  1  0  0  0
 59 62  1  0  0  0
 60128  1  0  0  0
 60129  1  0  0  0
 60130  1  0  0  0
 61131  1  0  0  0
 61132  1  0  0  0
 61133  1  0  0  0
 62134  1  0  0  0
 62135  1  0  0  0
 62136  1  0  0  0
 63 65  1  0  0  0
 63137  1  0  0  0
 63138  1  0  0  0
 63139  1  0  0  0
 64140  1  0  0  0
 65141  1  0  0  0
 68 79  1  0  0  0
 71 72  2  0  0  0
 71 75  1  0  0  0
 71 80  1  0  0  0
 72 76  1  0  0  0
 72 81  1  0  0  0
 73 74  1  0  0  0
 73 77  1  0  0  0
 73 80  2  0  0  0
 74 78  1  0  0  0
 74 81  2  0  0  0
 75142  1  0  0  0
 75143  1  0  0  0
 75144  1  0  0  0
 76145  1  0  0  0
 76146  1  0  0  0
 76147  1  0  0  0
 77 79  1  0  0  0
 77148  1  0  0  0
 77149  1  0  0  0
 78 82  1  0  0  0
 78150  1  0  0  0
 78151  1  0  0  0
 79152  1  0  0  0
 79153  1  0  0  0
 82154  1  0  0  0
M  ISO  4   1 100  68 101  79 101  82 100
M  END
> <chiral flag>
0

> <version>
0

> <s_m_source_file>
/data/baiqing/PycharmProjects/Reinvent-master-3.2/result/LINK_invent/BTK/process_docking_weight1_custom_sum_contain_oxygen_bond_distance_aromatic_linkinvent_7_9_3/rearranged_h_0052.sdf

> <i_m_source_file_index>
57

> <r_mmod_Potential_Energy-OPLS-2005>
1457.0263671875

> <r_mmod_Stretch_Energy-OPLS-2005>
662.482299804688

> <r_mmod_Bend_Energy-OPLS-2005>
595.551513671875

> <r_mmod_Torsional_Energy-OPLS-2005>
239.763168334961

> <r_mmod_Improper_Torsional_Energy-OPLS-2005>
5.54804372787476

> <r_mmod_Van_der_Waal_Energy-OPLS-2005>
125.732971191406

> <r_mmod_Electrostatic_Energy-OPLS-2005>
-400.56298828125

> <r_mmod_Solvation_Energy-OPLS-2005>
-236.329116821289

> <b_mmod_Minimization_Converged-OPLS-2005>
0

> <r_mmod_RMS_Derivative-OPLS-2005>
6.13654899597168

$$$$
57
                    3D
 Structure written by MMmdl.
160168  0  0  1  0            999 V2000
  -30.6196  -14.7285   20.4589 C   0  0  0  0  0  0
  -30.4426  -12.4469   19.4517 C   0  0  0  0  0  0
  -29.5075  -12.5023   18.2236 C   0  0  0  0  0  0
  -28.0359  -12.3288   18.6484 C   0  0  0  0  0  0
  -27.6475  -13.2267   19.8530 C   0  0  2  0  0  0
  -28.7012  -13.1474   20.9802 C   0  0  0  0  0  0
  -25.2538  -13.8148   20.5727 C   0  0  0  0  0  0
  -24.1822  -13.0416   20.9247 C   0  0  0  0  0  0
  -24.6417  -11.6895   20.8776 C   0  0  0  0  0  0
  -23.9085  -10.4285   21.0425 C   0  0  0  0  0  0
  -24.3621   -9.4193   21.9198 C   0  0  0  0  0  0
  -23.6295   -8.2228   22.0756 C   0  0  0  0  0  0
  -22.4273   -8.0281   21.3544 C   0  0  0  0  0  0
  -21.9925   -9.0260   20.4642 C   0  0  0  0  0  0
  -22.7264  -10.2136   20.3067 C   0  0  0  0  0  0
  -21.6844   -6.0738   22.5280 C   0  0  0  0  0  0
  -21.4006   -6.5638   23.8214 C   0  0  0  0  0  0
  -21.3658   -5.6794   24.9176 C   0  0  0  0  0  0
  -21.6046   -4.3057   24.7231 C   0  0  0  0  0  0
  -21.8817   -3.8152   23.4350 C   0  0  0  0  0  0
  -21.9193   -4.6969   22.3406 C   0  0  0  0  0  0
  -22.7838  -13.5205   21.1885 C   0  0  0  0  0  0
  -22.1663   -4.2154   21.0984 F   0  0  0  0  0  0
  -21.5630   -3.4541   25.7745 F   0  0  0  0  0  0
  -30.0016  -13.4999   20.3913 N   0  0  0  0  0  0
  -26.2980  -12.9367   20.3325 N   0  0  0  0  0  0
  -25.9353  -11.6516   20.5787 N   0  0  0  0  0  0
  -22.0470  -12.8200   22.0431 N   0  0  0  0  0  0
  -25.4218  -15.1857   20.4110 N   0  0  0  0  0  0
  -31.8101  -14.8511   20.1636 O   0  0  0  0  0  0
  -21.6633   -6.8879   21.4238 O   0  0  0  0  0  0
  -22.3542  -14.5516   20.6733 O   0  0  0  0  0  0
  -24.6323  -31.8538   23.2016 C   0  0  0  0  0  0
  -25.9134  -32.4753   23.8369 C   0  0  1  0  0  0
  -27.2260  -27.2640   20.1082 C   0  0  0  0  0  0
  -25.5914  -33.8557   24.2272 N   0  0  0  0  0  0
  -23.4310  -30.4784   21.5454 C   0  0  2  0  0  0
  -24.8776  -28.9299   20.1137 C   0  0  0  0  0  0
  -22.7522  -29.4598   22.4934 C   0  0  0  0  0  0
  -18.0312  -28.1380   22.8482 C   0  0  0  0  0  0
  -24.1497  -36.7286   23.2634 C   0  0  0  0  0  0
  -25.9789  -30.7659   21.3844 C   0  0  0  0  0  0
  -26.0527  -29.3900   20.7223 C   0  0  0  0  0  0
  -27.2295  -28.5689   20.7109 C   0  0  0  0  0  0
  -26.0200  -26.8805   19.4718 C   0  0  0  0  0  0
  -24.8642  -27.6812   19.4827 C   0  0  0  0  0  0
  -23.6490  -29.8175   20.1612 C   0  0  0  0  0  0
  -25.4128  -36.3070   24.0318 C   0  0  1  0  0  0
  -20.5912  -28.3697   23.1267 C   0  0  2  0  0  0
  -20.6810  -26.9416   22.5406 C   0  0  0  0  0  0
  -19.5788  -26.6381   21.5205 C   0  0  0  0  0  0
  -18.1963  -26.7928   22.1614 C   0  0  0  0  0  0
  -19.1563  -28.8858   23.2869 C   0  0  0  0  0  0
  -18.9477  -30.1449   23.8885 C   0  0  0  0  0  0
  -17.6478  -30.6582   24.0560 C   0  0  0  0  0  0
  -25.9059  -34.9431   23.5115 C   0  0  0  0  0  0
  -16.5371  -29.9076   23.6330 C   0  0  0  0  0  0
  -16.7304  -28.6497   23.0362 C   0  0  0  0  0  0
  -26.4502  -31.6575   25.0764 C   0  0  0  0  0  0
  -25.3723  -31.3692   26.1484 C   0  0  0  0  0  0
  -27.0358  -30.3000   24.6250 C   0  0  0  0  0  0
  -27.6064  -32.4314   25.7511 C   0  0  0  0  0  0
  -27.5598  -37.1784   24.8457 C   0  0  0  0  0  0
  -21.4233  -29.3034   22.3650 N   0  0  0  0  0  0
  -26.4310  -37.3761   23.9397 N   0  0  0  0  0  0
  -24.6996  -31.0515   22.0996 N   0  0  0  0  0  0
  -23.4201  -28.8149   23.3049 O   0  0  0  0  0  0
  -28.3179  -26.3538   20.1515 O   0  0  0  0  0  0
  -26.5665  -34.8895   22.4700 O   0  0  0  0  0  0
  -23.5467  -32.1366   23.7310 O   0  0  0  0  0  0
  -27.0909  -21.7179   19.9342 C   0  0  0  0  0  0
  -27.5994  -19.4483   19.8409 C   0  0  0  0  0  0
  -28.4700  -22.0824   20.0785 C   0  0  0  0  0  0
  -28.9881  -19.6956   19.9666 C   0  0  0  0  0  0
  -25.9085  -22.6691   19.8872 C   0  0  0  0  0  0
  -27.0218  -18.0582   19.6695 C   0  0  0  0  0  0
  -31.3721  -18.8969   19.3256 C   0  0  0  0  0  0
  -28.9728  -23.6068   20.2493 C   0  0  0  0  0  0
  -30.1021  -17.3116   20.9517 C   0  0  0  0  0  0
  -28.0092  -24.8895   19.9688 C   0  0  0  0  0  0
  -29.9801  -18.4460   19.8016 C   0  0  1  0  0  0
  -26.6844  -20.4345   19.8320 N   0  0  0  0  0  0
  -29.4025  -21.0299   20.1050 N   0  0  0  0  0  0
  -29.8169  -15.8309   20.6771 N   0  0  0  0  0  0
  -31.4796  -12.5810   19.1396 H   0  0  0  0  0  0
  -30.3946  -11.4669   19.9289 H   0  0  0  0  0  0
  -29.7803  -11.7267   17.5058 H   0  0  0  0  0  0
  -29.6316  -13.4548   17.7059 H   0  0  0  0  0  0
  -27.8957  -11.2807   18.9150 H   0  0  0  0  0  0
  -27.3708  -12.5163   17.8054 H   0  0  0  0  0  0
  -27.6437  -14.2497   19.4761 H   0  0  0  0  0  0
  -28.7389  -12.1458   21.4113 H   0  0  0  0  0  0
  -28.4436  -13.8195   21.8004 H   0  0  0  0  0  0
  -25.2756   -9.5661   22.4783 H   0  0  0  0  0  0
  -23.9996   -7.4616   22.7473 H   0  0  0  0  0  0
  -21.0854   -8.8794   19.8947 H   0  0  0  0  0  0
  -22.3726  -10.9688   19.6184 H   0  0  0  0  0  0
  -21.1987   -7.6145   23.9720 H   0  0  0  0  0  0
  -21.1481   -6.0523   25.9081 H   0  0  0  0  0  0
  -22.0595   -2.7618   23.2855 H   0  0  0  0  0  0
  -22.4057  -11.9848   22.4807 H   0  0  0  0  0  0
  -21.1092  -13.1248   22.2622 H   0  0  0  0  0  0
  -24.6494  -15.8345   20.5094 H   0  0  0  0  0  0
  -26.2533  -15.6116   20.0281 H   0  0  0  0  0  0
  -26.7214  -32.5403   23.1108 H   0  0  0  0  0  0
  -25.0002  -33.9691   25.0377 H   0  0  0  0  0  0
  -22.7292  -31.3027   21.4020 H   0  0  0  0  0  0
  -23.3757  -35.9623   23.3294 H   0  0  0  0  0  0
  -24.3580  -36.8935   22.2056 H   0  0  0  0  0  0
  -23.7265  -37.6478   23.6684 H   0  0  0  0  0  0
  -26.1266  -31.5304   20.6208 H   0  0  0  0  0  0
  -26.8514  -30.8067   22.0244 H   0  0  0  0  0  0
  -28.1268  -28.9104   21.2064 H   0  0  0  0  0  0
  -25.9256  -25.9364   18.9615 H   0  0  0  0  0  0
  -23.9646  -27.3235   19.0013 H   0  0  0  0  0  0
  -23.7718  -30.5964   19.4063 H   0  0  0  0  0  0
  -22.7668  -29.2512   19.8564 H   0  0  0  0  0  0
  -25.1301  -36.1931   25.0815 H   0  0  0  0  0  0
  -20.9997  -28.3287   24.1396 H   0  0  0  0  0  0
  -20.5747  -26.2296   23.3606 H   0  0  0  0  0  0
  -21.6689  -26.7497   22.1179 H   0  0  0  0  0  0
  -19.6983  -25.6295   21.1246 H   0  0  0  0  0  0
  -19.6735  -27.3192   20.6734 H   0  0  0  0  0  0
  -17.4241  -26.6661   21.4007 H   0  0  0  0  0  0
  -18.0374  -26.0057   22.9009 H   0  0  0  0  0  0
  -19.7964  -30.7241   24.2258 H   0  0  0  0  0  0
  -17.5061  -31.6270   24.5155 H   0  0  0  0  0  0
  -15.5384  -30.2983   23.7667 H   0  0  0  0  0  0
  -15.8701  -28.0813   22.7088 H   0  0  0  0  0  0
  -24.5920  -30.7024   25.7789 H   0  0  0  0  0  0
  -24.8869  -32.2829   26.4927 H   0  0  0  0  0  0
  -25.8040  -30.8856   27.0263 H   0  0  0  0  0  0
  -26.2955  -29.6726   24.1280 H   0  0  0  0  0  0
  -27.4046  -29.7285   25.4774 H   0  0  0  0  0  0
  -27.8833  -30.4271   23.9513 H   0  0  0  0  0  0
  -27.2718  -33.3646   26.2063 H   0  0  0  0  0  0
  -28.3881  -32.6829   25.0326 H   0  0  0  0  0  0
  -28.0737  -31.8456   26.5439 H   0  0  0  0  0  0
  -28.2572  -38.0119   24.7537 H   0  0  0  0  0  0
  -28.1133  -36.2639   24.6247 H   0  0  0  0  0  0
  -27.2301  -37.1397   25.8853 H   0  0  0  0  0  0
  -20.9436  -29.8703   21.6801 H   0  0  0  0  0  0
  -26.0190  -38.2836   24.1399 H   0  0  0  0  0  0
  -25.7814  -23.1784   20.8409 H   0  0  0  0  0  0
  -24.9734  -22.1368   19.7026 H   0  0  0  0  0  0
  -26.0028  -23.3801   19.0708 H   0  0  0  0  0  0
  -27.3600  -17.6092   18.7363 H   0  0  0  0  0  0
  -25.9315  -18.0782   19.6423 H   0  0  0  0  0  0
  -27.3142  -17.4252   20.5051 H   0  0  0  0  0  0
  -31.3038  -19.4859   18.4105 H   0  0  0  0  0  0
  -32.0121  -18.0418   19.1092 H   0  0  0  0  0  0
  -31.8715  -19.5071   20.0784 H   0  0  0  0  0  0
  -29.8601  -23.7109   19.6246 H   0  0  0  0  0  0
  -29.3335  -23.6844   21.2740 H   0  0  0  0  0  0
  -29.4235  -17.5985   21.7559 H   0  0  0  0  0  0
  -31.0868  -17.3791   21.4156 H   0  0  0  0  0  0
  -27.1561  -24.7527   20.6253 H   0  0  0  0  0  0
  -27.6926  -24.7783   18.9330 H   0  0  0  0  0  0
  -29.5877  -17.9190   18.9338 H   0  0  0  0  0  0
  -28.8558  -15.5700   20.8358 H   0  0  0  0  0  0
  1 25  1  0  0  0
  1 30  2  0  0  0
  1 84  1  0  0  0
  2  3  1  0  0  0
  2 25  1  0  0  0
  2 85  1  0  0  0
  2 86  1  0  0  0
  3  4  1  0  0  0
  3 87  1  0  0  0
  3 88  1  0  0  0
  4  5  1  0  0  0
  4 89  1  0  0  0
  4 90  1  0  0  0
  5  6  1  0  0  0
  5 26  1  0  0  0
  5 91  1  0  0  0
  6 25  1  0  0  0
  6 92  1  0  0  0
  6 93  1  0  0  0
  7  8  2  0  0  0
  7 26  1  0  0  0
  7 29  1  0  0  0
  8  9  1  0  0  0
  8 22  1  0  0  0
  9 10  1  0  0  0
  9 27  2  0  0  0
 10 11  2  0  0  0
 10 15  1  0  0  0
 11 12  1  0  0  0
 11 94  1  0  0  0
 12 13  2  0  0  0
 12 95  1  0  0  0
 13 14  1  0  0  0
 13 31  1  0  0  0
 14 15  2  0  0  0
 14 96  1  0  0  0
 15 97  1  0  0  0
 16 17  2  0  0  0
 16 21  1  0  0  0
 16 31  1  0  0  0
 17 18  1  0  0  0
 17 98  1  0  0  0
 18 19  2  0  0  0
 18 99  1  0  0  0
 19 20  1  0  0  0
 19 24  1  0  0  0
 20 21  2  0  0  0
 20100  1  0  0  0
 21 23  1  0  0  0
 22 28  1  0  0  0
 22 32  2  0  0  0
 26 27  1  0  0  0
 28101  1  0  0  0
 28102  1  0  0  0
 29103  1  0  0  0
 29104  1  0  0  0
 33 34  1  0  0  0
 33 66  1  0  0  0
 33 70  2  0  0  0
 34 36  1  0  0  0
 34 59  1  0  0  0
 34105  1  0  0  0
 35 44  2  0  0  0
 35 45  1  0  0  0
 35 68  1  0  0  0
 36 56  1  0  0  0
 36106  1  0  0  0
 37 39  1  0  0  0
 37 47  1  0  0  0
 37 66  1  0  0  0
 37107  1  0  0  0
 38 43  2  0  0  0
 38 46  1  0  0  0
 38 47  1  0  0  0
 39 64  1  0  0  0
 39 67  2  0  0  0
 40 52  1  0  0  0
 40 53  2  0  0  0
 40 58  1  0  0  0
 41108  1  0  0  0
 41109  1  0  0  0
 41110  1  0  0  0
 41 48  1  0  0  0
 42 43  1  0  0  0
 42 66  1  0  0  0
 42111  1  0  0  0
 42112  1  0  0  0
 43 44  1  0  0  0
 44113  1  0  0  0
 45 46  2  0  0  0
 45114  1  0  0  0
 46115  1  0  0  0
 47116  1  0  0  0
 47117  1  0  0  0
 48 56  1  0  0  0
 48 65  1  0  0  0
 48118  1  0  0  0
 49 50  1  0  0  0
 49 53  1  0  0  0
 49 64  1  0  0  0
 49119  1  0  0  0
 50 51  1  0  0  0
 50120  1  0  0  0
 50121  1  0  0  0
 51 52  1  0  0  0
 51122  1  0  0  0
 51123  1  0  0  0
 52124  1  0  0  0
 52125  1  0  0  0
 53 54  1  0  0  0
 54 55  2  0  0  0
 54126  1  0  0  0
 55 57  1  0  0  0
 55127  1  0  0  0
 56 69  2  0  0  0
 57 58  2  0  0  0
 57128  1  0  0  0
 58129  1  0  0  0
 59 60  1  0  0  0
 59 61  1  0  0  0
 59 62  1  0  0  0
 60130  1  0  0  0
 60131  1  0  0  0
 60132  1  0  0  0
 61133  1  0  0  0
 61134  1  0  0  0
 61135  1  0  0  0
 62136  1  0  0  0
 62137  1  0  0  0
 62138  1  0  0  0
 63 65  1  0  0  0
 63139  1  0  0  0
 63140  1  0  0  0
 63141  1  0  0  0
 64142  1  0  0  0
 65143  1  0  0  0
 68 80  1  0  0  0
 71 73  2  0  0  0
 71 75  1  0  0  0
 71 82  1  0  0  0
 72 74  1  0  0  0
 72 76  1  0  0  0
 72 82  2  0  0  0
 73 78  1  0  0  0
 73 83  1  0  0  0
 74 81  1  0  0  0
 74 83  2  0  0  0
 75144  1  0  0  0
 75145  1  0  0  0
 75146  1  0  0  0
 76147  1  0  0  0
 76148  1  0  0  0
 76149  1  0  0  0
 77150  1  0  0  0
 77151  1  0  0  0
 77152  1  0  0  0
 77 81  1  0  0  0
 78 80  1  0  0  0
 78153  1  0  0  0
 78154  1  0  0  0
 79 81  1  0  0  0
 79 84  1  0  0  0
 79155  1  0  0  0
 79156  1  0  0  0
 80157  1  0  0  0
 80158  1  0  0  0
 81159  1  0  0  0
 84160  1  0  0  0
M  ISO  4   1 100  68 101  80 101  84 100
M  END
> <chiral flag>
0

> <version>
0

> <s_m_source_file>
/data/baiqing/PycharmProjects/Reinvent-master-3.2/result/LINK_invent/BTK/process_docking_weight1_custom_sum_contain_oxygen_bond_distance_aromatic_linkinvent_7_9_3/rearranged_h_0052.sdf

> <i_m_source_file_index>
58

> <r_mmod_Potential_Energy-OPLS-2005>
209.657516479492

> <r_mmod_Stretch_Energy-OPLS-2005>
139.103881835938

> <r_mmod_Bend_Energy-OPLS-2005>
201.473907470703

> <r_mmod_Torsional_Energy-OPLS-2005>
228.071304321289

> <r_mmod_Improper_Torsional_Energy-OPLS-2005>
5.05979681015015

> <r_mmod_Van_der_Waal_Energy-OPLS-2005>
151.469879150391

> <r_mmod_Electrostatic_Energy-OPLS-2005>
-369.673095703125

> <r_mmod_Solvation_Energy-OPLS-2005>
-228.073791503906

> <b_mmod_Minimization_Converged-OPLS-2005>
0

> <r_mmod_RMS_Derivative-OPLS-2005>
2.58664655685425

$$$$
58
                    3D
 Structure written by MMmdl.
151159  0  0  1  0            999 V2000
  -30.5578  -14.9320   20.3546 C   0  0  0  0  0  0
  -30.4417  -12.5658   19.4722 C   0  0  0  0  0  0
  -29.5173  -12.4745   18.2379 C   0  0  0  0  0  0
  -28.0426  -12.2971   18.6588 C   0  0  0  0  0  0
  -27.6206  -13.2272   19.8279 C   0  0  2  0  0  0
  -28.6779  -13.2850   20.9486 C   0  0  0  0  0  0
  -25.2479  -13.8150   20.5756 C   0  0  0  0  0  0
  -24.1767  -13.0399   20.9232 C   0  0  0  0  0  0
  -24.6365  -11.6879   20.8769 C   0  0  0  0  0  0
  -23.9059  -10.4265   21.0421 C   0  0  0  0  0  0
  -24.3621   -9.4177   21.9185 C   0  0  0  0  0  0
  -23.6295   -8.2212   22.0745 C   0  0  0  0  0  0
  -22.4272   -8.0266   21.3540 C   0  0  0  0  0  0
  -21.9911   -9.0243   20.4645 C   0  0  0  0  0  0
  -22.7243  -10.2118   20.3060 C   0  0  0  0  0  0
  -21.6846   -6.0733   22.5280 C   0  0  0  0  0  0
  -21.4003   -6.5640   23.8212 C   0  0  0  0  0  0
  -21.3653   -5.6792   24.9174 C   0  0  0  0  0  0
  -21.6043   -4.3054   24.7229 C   0  0  0  0  0  0
  -21.8819   -3.8148   23.4349 C   0  0  0  0  0  0
  -21.9191   -4.6963   22.3404 C   0  0  0  0  0  0
  -22.7792  -13.5192   21.1876 C   0  0  0  0  0  0
  -22.1659   -4.2151   21.0980 F   0  0  0  0  0  0
  -21.5639   -3.4537   25.7740 F   0  0  0  0  0  0
  -29.9451  -13.6811   20.3190 N   0  0  0  0  0  0
  -26.2866  -12.9326   20.3282 N   0  0  0  0  0  0
  -25.9289  -11.6481   20.5769 N   0  0  0  0  0  0
  -22.0432  -12.8191   22.0432 N   0  0  0  0  0  0
  -25.4194  -15.1879   20.4222 N   0  0  0  0  0  0
  -31.7908  -14.9606   20.2756 O   0  0  0  0  0  0
  -21.6627   -6.8873   21.4240 O   0  0  0  0  0  0
  -22.3488  -14.5497   20.6713 O   0  0  0  0  0  0
  -24.6378  -31.8462   23.1889 C   0  0  0  0  0  0
  -25.9167  -32.4705   23.8264 C   0  0  1  0  0  0
  -27.2256  -27.1764   20.1582 C   0  0  0  0  0  0
  -25.5940  -33.8512   24.2189 N   0  0  0  0  0  0
  -23.4390  -30.4613   21.5345 C   0  0  2  0  0  0
  -24.8875  -28.8817   20.1173 C   0  0  0  0  0  0
  -22.7530  -29.4543   22.4900 C   0  0  0  0  0  0
  -18.0295  -28.1384   22.8489 C   0  0  0  0  0  0
  -24.1490  -36.7253   23.2643 C   0  0  0  0  0  0
  -25.9880  -30.7307   21.3809 C   0  0  0  0  0  0
  -26.0579  -29.3407   20.7331 C   0  0  0  0  0  0
  -27.2252  -28.5011   20.7394 C   0  0  0  0  0  0
  -26.0321  -26.7966   19.5109 C   0  0  0  0  0  0
  -24.8832  -27.6205   19.4943 C   0  0  0  0  0  0
  -23.6620  -29.7803   20.1562 C   0  0  0  0  0  0
  -25.4123  -36.3035   24.0319 C   0  0  1  0  0  0
  -20.5903  -28.3693   23.1273 C   0  0  2  0  0  0
  -20.6781  -26.9405   22.5422 C   0  0  0  0  0  0
  -19.5753  -26.6377   21.5225 C   0  0  0  0  0  0
  -18.1931  -26.7927   22.1632 C   0  0  0  0  0  0
  -19.1552  -28.8862   23.2868 C   0  0  0  0  0  0
  -18.9465  -30.1463   23.8880 C   0  0  0  0  0  0
  -17.6463  -30.6590   24.0557 C   0  0  0  0  0  0
  -25.9069  -34.9412   23.5065 C   0  0  0  0  0  0
  -16.5353  -29.9079   23.6341 C   0  0  0  0  0  0
  -16.7282  -28.6496   23.0368 C   0  0  0  0  0  0
  -26.4511  -31.6567   25.0691 C   0  0  0  0  0  0
  -25.3718  -31.3762   26.1408 C   0  0  0  0  0  0
  -27.0362  -30.2965   24.6248 C   0  0  0  0  0  0
  -27.6049  -32.4331   25.7472 C   0  0  0  0  0  0
  -27.5574  -37.1784   24.8465 C   0  0  0  0  0  0
  -21.4230  -29.3020   22.3646 N   0  0  0  0  0  0
  -26.4284  -37.3749   23.9409 N   0  0  0  0  0  0
  -24.7074  -31.0343   22.0905 N   0  0  0  0  0  0
  -23.4194  -28.8108   23.3047 O   0  0  0  0  0  0
  -28.3562  -26.3044   20.1414 O   0  0  0  0  0  0
  -26.5652  -34.8909   22.4637 O   0  0  0  0  0  0
  -23.5513  -32.1326   23.7142 O   0  0  0  0  0  0
  -29.8134  -22.9394   19.6704 C   0  0  0  0  0  0
  -27.6136  -23.8885   20.8752 C   0  0  0  0  0  0
  -29.0325  -21.9822   20.4004 C   0  0  0  0  0  0
  -28.4254  -24.8457   20.1656 C   0  0  0  0  0  0
  -29.0437  -16.2611   18.9581 C   0  0  0  0  0  0
  -29.6154  -20.5018   20.8155 C   0  0  0  0  0  0
  -29.2655  -18.9867   20.2219 C   0  0  0  0  0  0
  -30.1188  -17.6044   20.6834 C   0  0  0  0  0  0
  -27.9050  -22.5209   20.9899 N   0  0  0  0  0  0
  -29.5310  -24.2946   19.5632 N   0  0  0  0  0  0
  -29.7984  -16.1376   20.2106 N   0  0  0  0  0  0
  -31.4722  -12.7259   19.1507 H   0  0  0  0  0  0
  -30.4417  -11.6289   20.0306 H   0  0  0  0  0  0
  -29.8253  -11.6415   17.6051 H   0  0  0  0  0  0
  -29.6281  -13.3660   17.6219 H   0  0  0  0  0  0
  -27.9165  -11.2569   18.9589 H   0  0  0  0  0  0
  -27.3845  -12.4454   17.8018 H   0  0  0  0  0  0
  -27.5458  -14.2149   19.3915 H   0  0  0  0  0  0
  -28.7690  -12.3231   21.4549 H   0  0  0  0  0  0
  -28.3889  -14.0152   21.7065 H   0  0  0  0  0  0
  -25.2769   -9.5649   22.4755 H   0  0  0  0  0  0
  -24.0007   -7.4597   22.7457 H   0  0  0  0  0  0
  -21.0843   -8.8782   19.8949 H   0  0  0  0  0  0
  -22.3717  -10.9671   19.6176 H   0  0  0  0  0  0
  -21.1982   -7.6143   23.9721 H   0  0  0  0  0  0
  -21.1478   -6.0515   25.9080 H   0  0  0  0  0  0
  -22.0605   -2.7611   23.2847 H   0  0  0  0  0  0
  -22.4064  -11.9864   22.4836 H   0  0  0  0  0  0
  -21.1033  -13.1194   22.2608 H   0  0  0  0  0  0
  -24.6611  -15.8490   20.5546 H   0  0  0  0  0  0
  -26.2882  -15.6301   20.1515 H   0  0  0  0  0  0
  -26.7230  -32.5320   23.0990 H   0  0  0  0  0  0
  -25.0086  -33.9633   25.0340 H   0  0  0  0  0  0
  -22.7396  -31.2852   21.3789 H   0  0  0  0  0  0
  -23.3762  -35.9573   23.3290 H   0  0  0  0  0  0
  -24.3584  -36.8898   22.2061 H   0  0  0  0  0  0
  -23.7233  -37.6442   23.6686 H   0  0  0  0  0  0
  -26.1372  -31.4831   20.6053 H   0  0  0  0  0  0
  -26.8618  -30.7841   22.0192 H   0  0  0  0  0  0
  -28.1265  -28.8552   21.2197 H   0  0  0  0  0  0
  -25.9792  -25.8347   19.0219 H   0  0  0  0  0  0
  -23.9882  -27.2667   19.0013 H   0  0  0  0  0  0
  -23.7912  -30.5485   19.3925 H   0  0  0  0  0  0
  -22.7786  -29.2139   19.8556 H   0  0  0  0  0  0
  -25.1318  -36.1859   25.0813 H   0  0  0  0  0  0
  -20.9990  -28.3262   24.1397 H   0  0  0  0  0  0
  -20.5680  -26.2295   23.3628 H   0  0  0  0  0  0
  -21.6645  -26.7426   22.1209 H   0  0  0  0  0  0
  -19.6908  -25.6284   21.1263 H   0  0  0  0  0  0
  -19.6690  -27.3182   20.6751 H   0  0  0  0  0  0
  -17.4206  -26.6681   21.4028 H   0  0  0  0  0  0
  -18.0312  -26.0075   22.9033 H   0  0  0  0  0  0
  -19.7941  -30.7288   24.2230 H   0  0  0  0  0  0
  -17.5019  -31.6272   24.5152 H   0  0  0  0  0  0
  -15.5352  -30.2974   23.7683 H   0  0  0  0  0  0
  -15.8681  -28.0812   22.7097 H   0  0  0  0  0  0
  -24.5867  -30.7143   25.7733 H   0  0  0  0  0  0
  -24.8948  -32.2953   26.4815 H   0  0  0  0  0  0
  -25.8016  -30.8934   27.0192 H   0  0  0  0  0  0
  -26.2958  -29.6695   24.1261 H   0  0  0  0  0  0
  -27.3991  -29.7259   25.4806 H   0  0  0  0  0  0
  -27.8866  -30.4208   23.9539 H   0  0  0  0  0  0
  -27.2648  -33.3660   26.1980 H   0  0  0  0  0  0
  -28.3892  -32.6842   25.0318 H   0  0  0  0  0  0
  -28.0671  -31.8494   26.5444 H   0  0  0  0  0  0
  -28.2592  -38.0082   24.7519 H   0  0  0  0  0  0
  -28.1073  -36.2614   24.6286 H   0  0  0  0  0  0
  -27.2296  -37.1427   25.8870 H   0  0  0  0  0  0
  -20.9431  -29.8705   21.6813 H   0  0  0  0  0  0
  -26.0149  -38.2816   24.1417 H   0  0  0  0  0  0
  -30.7470  -22.6288   19.2252 H   0  0  0  0  0  0
  -26.7412  -24.2281   21.4141 H   0  0  0  0  0  0
  -28.0112  -16.5491   19.1528 H   0  0  0  0  0  0
  -29.0375  -15.3562   18.3558 H   0  0  0  0  0  0
  -29.4928  -17.0127   18.3080 H   0  0  0  0  0  0
  -29.4661  -20.4424   21.8937 H   0  0  0  0  0  0
  -30.6949  -20.6056   20.7057 H   0  0  0  0  0  0
  -29.3390  -19.0746   19.1386 H   0  0  0  0  0  0
  -28.2091  -18.8053   20.4200 H   0  0  0  0  0  0
  -30.1114  -17.5698   21.7732 H   0  0  0  0  0  0
  -31.1632  -17.7776   20.4196 H   0  0  0  0  0  0
  1 25  1  0  0  0
  1 30  2  0  0  0
  1 81  1  0  0  0
  2  3  1  0  0  0
  2 25  1  0  0  0
  2 82  1  0  0  0
  2 83  1  0  0  0
  3  4  1  0  0  0
  3 84  1  0  0  0
  3 85  1  0  0  0
  4  5  1  0  0  0
  4 86  1  0  0  0
  4 87  1  0  0  0
  5  6  1  0  0  0
  5 26  1  0  0  0
  5 88  1  0  0  0
  6 25  1  0  0  0
  6 89  1  0  0  0
  6 90  1  0  0  0
  7  8  2  0  0  0
  7 26  1  0  0  0
  7 29  1  0  0  0
  8  9  1  0  0  0
  8 22  1  0  0  0
  9 10  1  0  0  0
  9 27  2  0  0  0
 10 11  2  0  0  0
 10 15  1  0  0  0
 11 12  1  0  0  0
 11 91  1  0  0  0
 12 13  2  0  0  0
 12 92  1  0  0  0
 13 14  1  0  0  0
 13 31  1  0  0  0
 14 15  2  0  0  0
 14 93  1  0  0  0
 15 94  1  0  0  0
 16 17  2  0  0  0
 16 21  1  0  0  0
 16 31  1  0  0  0
 17 18  1  0  0  0
 17 95  1  0  0  0
 18 19  2  0  0  0
 18 96  1  0  0  0
 19 20  1  0  0  0
 19 24  1  0  0  0
 20 21  2  0  0  0
 20 97  1  0  0  0
 21 23  1  0  0  0
 22 28  1  0  0  0
 22 32  2  0  0  0
 26 27  1  0  0  0
 28 98  1  0  0  0
 28 99  1  0  0  0
 29100  1  0  0  0
 29101  1  0  0  0
 33 34  1  0  0  0
 33 66  1  0  0  0
 33 70  2  0  0  0
 34 36  1  0  0  0
 34 59  1  0  0  0
 34102  1  0  0  0
 35 44  2  0  0  0
 35 45  1  0  0  0
 35 68  1  0  0  0
 36 56  1  0  0  0
 36103  1  0  0  0
 37 39  1  0  0  0
 37 47  1  0  0  0
 37 66  1  0  0  0
 37104  1  0  0  0
 38 43  2  0  0  0
 38 46  1  0  0  0
 38 47  1  0  0  0
 39 64  1  0  0  0
 39 67  2  0  0  0
 40 52  1  0  0  0
 40 53  2  0  0  0
 40 58  1  0  0  0
 41105  1  0  0  0
 41106  1  0  0  0
 41107  1  0  0  0
 41 48  1  0  0  0
 42 43  1  0  0  0
 42 66  1  0  0  0
 42108  1  0  0  0
 42109  1  0  0  0
 43 44  1  0  0  0
 44110  1  0  0  0
 45 46  2  0  0  0
 45111  1  0  0  0
 46112  1  0  0  0
 47113  1  0  0  0
 47114  1  0  0  0
 48 56  1  0  0  0
 48 65  1  0  0  0
 48115  1  0  0  0
 49 50  1  0  0  0
 49 53  1  0  0  0
 49 64  1  0  0  0
 49116  1  0  0  0
 50 51  1  0  0  0
 50117  1  0  0  0
 50118  1  0  0  0
 51 52  1  0  0  0
 51119  1  0  0  0
 51120  1  0  0  0
 52121  1  0  0  0
 52122  1  0  0  0
 53 54  1  0  0  0
 54 55  2  0  0  0
 54123  1  0  0  0
 55 57  1  0  0  0
 55124  1  0  0  0
 56 69  2  0  0  0
 57 58  2  0  0  0
 57125  1  0  0  0
 58126  1  0  0  0
 59 60  1  0  0  0
 59 61  1  0  0  0
 59 62  1  0  0  0
 60127  1  0  0  0
 60128  1  0  0  0
 60129  1  0  0  0
 61130  1  0  0  0
 61131  1  0  0  0
 61132  1  0  0  0
 62133  1  0  0  0
 62134  1  0  0  0
 62135  1  0  0  0
 63 65  1  0  0  0
 63136  1  0  0  0
 63137  1  0  0  0
 63138  1  0  0  0
 64139  1  0  0  0
 65140  1  0  0  0
 68 74  1  0  0  0
 71 73  2  0  0  0
 71 80  1  0  0  0
 71141  1  0  0  0
 72 74  1  0  0  0
 72 79  2  0  0  0
 72142  1  0  0  0
 73 76  1  0  0  0
 73 79  1  0  0  0
 74 80  2  0  0  0
 75 81  1  0  0  0
 75143  1  0  0  0
 75144  1  0  0  0
 75145  1  0  0  0
 76 77  1  0  0  0
 76146  1  0  0  0
 76147  1  0  0  0
 77 78  1  0  0  0
 77148  1  0  0  0
 77149  1  0  0  0
 78 81  1  0  0  0
 78150  1  0  0  0
 78151  1  0  0  0
M  ISO  4   1 100  68 101  74 101  81 100
M  END
> <chiral flag>
0

> <version>
0

> <s_m_source_file>
/data/baiqing/PycharmProjects/Reinvent-master-3.2/result/LINK_invent/BTK/process_docking_weight1_custom_sum_contain_oxygen_bond_distance_aromatic_linkinvent_7_9_3/rearranged_h_0052.sdf

> <i_m_source_file_index>
59

> <r_mmod_Potential_Energy-OPLS-2005>
657.875610351562

> <r_mmod_Stretch_Energy-OPLS-2005>
210.888748168945

> <r_mmod_Bend_Energy-OPLS-2005>
248.744232177734

> <r_mmod_Torsional_Energy-OPLS-2005>
293.485076904297

> <r_mmod_Improper_Torsional_Energy-OPLS-2005>
11.5143003463745

> <r_mmod_Van_der_Waal_Energy-OPLS-2005>
136.352386474609

> <r_mmod_Electrostatic_Energy-OPLS-2005>
-196.651443481445

> <r_mmod_Solvation_Energy-OPLS-2005>
-213.907775878906

> <b_mmod_Minimization_Converged-OPLS-2005>
0

> <r_mmod_RMS_Derivative-OPLS-2005>
1.47046399116516

$$$$
59
                    3D
 Structure written by MMmdl.
158166  0  0  1  0            999 V2000
  -30.5410  -14.9663   20.4090 C   0  0  0  0  0  0
  -30.4385  -12.5976   19.5041 C   0  0  0  0  0  0
  -29.5229  -12.5303   18.2602 C   0  0  0  0  0  0
  -28.0551  -12.3174   18.6743 C   0  0  0  0  0  0
  -27.6280  -13.2518   19.8362 C   0  0  2  0  0  0
  -28.6701  -13.2893   20.9738 C   0  0  0  0  0  0
  -25.2445  -13.8217   20.5702 C   0  0  0  0  0  0
  -24.1767  -13.0436   20.9221 C   0  0  0  0  0  0
  -24.6395  -11.6924   20.8754 C   0  0  0  0  0  0
  -23.9080  -10.4291   21.0406 C   0  0  0  0  0  0
  -24.3632   -9.4205   21.9180 C   0  0  0  0  0  0
  -23.6305   -8.2242   22.0754 C   0  0  0  0  0  0
  -22.4286   -8.0282   21.3545 C   0  0  0  0  0  0
  -21.9921   -9.0253   20.4646 C   0  0  0  0  0  0
  -22.7253  -10.2130   20.3055 C   0  0  0  0  0  0
  -21.6854   -6.0733   22.5274 C   0  0  0  0  0  0
  -21.4013   -6.5636   23.8205 C   0  0  0  0  0  0
  -21.3669   -5.6790   24.9167 C   0  0  0  0  0  0
  -21.6052   -4.3052   24.7218 C   0  0  0  0  0  0
  -21.8819   -3.8144   23.4337 C   0  0  0  0  0  0
  -21.9191   -4.6961   22.3394 C   0  0  0  0  0  0
  -22.7784  -13.5204   21.1868 C   0  0  0  0  0  0
  -22.1661   -4.2150   21.0970 F   0  0  0  0  0  0
  -21.5638   -3.4536   25.7729 F   0  0  0  0  0  0
  -29.9442  -13.7052   20.3735 N   0  0  0  0  0  0
  -26.2877  -12.9461   20.3234 N   0  0  0  0  0  0
  -25.9331  -11.6587   20.5735 N   0  0  0  0  0  0
  -22.0445  -12.8200   22.0438 N   0  0  0  0  0  0
  -25.4089  -15.1949   20.4115 N   0  0  0  0  0  0
  -31.7460  -15.0210   20.1425 O   0  0  0  0  0  0
  -21.6649   -6.8879   21.4239 O   0  0  0  0  0  0
  -22.3464  -14.5504   20.6700 O   0  0  0  0  0  0
  -24.6475  -31.8416   23.1865 C   0  0  0  0  0  0
  -25.9238  -32.4680   23.8260 C   0  0  1  0  0  0
  -27.2133  -27.1064   20.1509 C   0  0  0  0  0  0
  -25.5971  -33.8485   24.2171 N   0  0  0  0  0  0
  -23.4517  -30.4630   21.5319 C   0  0  2  0  0  0
  -24.9011  -28.8882   20.1091 C   0  0  0  0  0  0
  -22.7589  -29.4544   22.4831 C   0  0  0  0  0  0
  -18.0316  -28.1417   22.8474 C   0  0  0  0  0  0
  -24.1491  -36.7243   23.2640 C   0  0  0  0  0  0
  -26.0118  -30.7061   21.3909 C   0  0  0  0  0  0
  -26.0811  -29.3154   20.7310 C   0  0  0  0  0  0
  -27.2386  -28.4425   20.7336 C   0  0  0  0  0  0
  -26.0048  -26.7933   19.4876 C   0  0  0  0  0  0
  -24.8782  -27.6410   19.4715 C   0  0  0  0  0  0
  -23.6802  -29.7947   20.1513 C   0  0  0  0  0  0
  -25.4125  -36.3017   24.0310 C   0  0  1  0  0  0
  -20.5931  -28.3742   23.1224 C   0  0  2  0  0  0
  -20.6801  -26.9439   22.5401 C   0  0  0  0  0  0
  -19.5770  -26.6393   21.5218 C   0  0  0  0  0  0
  -18.1952  -26.7952   22.1627 C   0  0  0  0  0  0
  -19.1573  -28.8898   23.2842 C   0  0  0  0  0  0
  -18.9485  -30.1492   23.8874 C   0  0  0  0  0  0
  -17.6481  -30.6605   24.0567 C   0  0  0  0  0  0
  -25.9078  -34.9397   23.5044 C   0  0  0  0  0  0
  -16.5373  -29.9098   23.6344 C   0  0  0  0  0  0
  -16.7300  -28.6521   23.0356 C   0  0  0  0  0  0
  -26.4546  -31.6559   25.0715 C   0  0  0  0  0  0
  -25.3720  -31.3755   26.1399 C   0  0  0  0  0  0
  -27.0416  -30.2951   24.6322 C   0  0  0  0  0  0
  -27.6064  -32.4333   25.7503 C   0  0  0  0  0  0
  -27.5576  -37.1778   24.8468 C   0  0  0  0  0  0
  -21.4276  -29.3062   22.3587 N   0  0  0  0  0  0
  -26.4284  -37.3737   23.9411 N   0  0  0  0  0  0
  -24.7237  -31.0257   22.0906 N   0  0  0  0  0  0
  -23.4222  -28.8085   23.2985 O   0  0  0  0  0  0
  -28.2452  -26.0872   20.2182 O   0  0  0  0  0  0
  -26.5664  -34.8901   22.4623 O   0  0  0  0  0  0
  -23.5585  -32.1303   23.7070 O   0  0  0  0  0  0
  -28.4700  -21.8000   20.3100 C   0  0  0  0  0  0
  -30.2647  -23.3806   20.2301 C   0  0  0  0  0  0
  -28.8644  -23.2341   20.2431 C   0  0  0  0  0  0
  -29.4044  -20.6460   20.3629 C   0  0  0  0  0  0
  -31.1297  -22.2541   20.2953 C   0  0  0  0  0  0
  -33.1421  -23.6489   21.0521 C   0  0  0  0  0  0
  -33.1500  -22.4684   18.7957 C   0  0  0  0  0  0
  -27.8794  -24.5635   20.1028 C   0  0  0  0  0  0
  -29.0561  -19.0225   20.4853 C   0  0  0  0  0  0
  -30.1346  -17.7105   20.3715 C   0  0  0  0  0  0
  -32.6460  -22.4345   20.2467 C   0  0  0  0  0  0
  -30.7187  -20.9555   20.3601 N   0  0  0  0  0  0
  -29.7723  -16.1644   20.5304 N   0  0  0  0  0  0
  -31.4735  -12.7498   19.1943 H   0  0  0  0  0  0
  -30.4290  -11.6509   20.0464 H   0  0  0  0  0  0
  -29.8455  -11.7290   17.5939 H   0  0  0  0  0  0
  -29.6112  -13.4574   17.6916 H   0  0  0  0  0  0
  -27.9478  -11.2761   18.9799 H   0  0  0  0  0  0
  -27.3956  -12.4513   17.8167 H   0  0  0  0  0  0
  -27.5870  -14.2518   19.4037 H   0  0  0  0  0  0
  -28.7608  -12.3151   21.4564 H   0  0  0  0  0  0
  -28.3682  -13.9934   21.7502 H   0  0  0  0  0  0
  -25.2779   -9.5681   22.4754 H   0  0  0  0  0  0
  -24.0014   -7.4635   22.7479 H   0  0  0  0  0  0
  -21.0848   -8.8768   19.8958 H   0  0  0  0  0  0
  -22.3704  -10.9667   19.6167 H   0  0  0  0  0  0
  -21.2001   -7.6144   23.9705 H   0  0  0  0  0  0
  -21.1501   -6.0521   25.9071 H   0  0  0  0  0  0
  -22.0592   -2.7606   23.2830 H   0  0  0  0  0  0
  -22.4076  -11.9876   22.4841 H   0  0  0  0  0  0
  -21.1057  -13.1210   22.2635 H   0  0  0  0  0  0
  -24.6335  -15.8413   20.5146 H   0  0  0  0  0  0
  -26.2445  -15.6366   20.0515 H   0  0  0  0  0  0
  -26.7296  -32.5276   23.0979 H   0  0  0  0  0  0
  -25.0109  -33.9588   25.0313 H   0  0  0  0  0  0
  -22.7556  -31.2907   21.3784 H   0  0  0  0  0  0
  -23.3762  -35.9566   23.3284 H   0  0  0  0  0  0
  -24.3572  -36.8896   22.2058 H   0  0  0  0  0  0
  -23.7240  -37.6428   23.6693 H   0  0  0  0  0  0
  -26.1760  -31.4588   20.6191 H   0  0  0  0  0  0
  -26.8789  -30.7534   22.0376 H   0  0  0  0  0  0
  -28.1348  -28.7664   21.2440 H   0  0  0  0  0  0
  -25.8842  -25.8471   18.9857 H   0  0  0  0  0  0
  -23.9800  -27.3072   18.9700 H   0  0  0  0  0  0
  -23.8213  -30.5717   19.3993 H   0  0  0  0  0  0
  -22.7938  -29.2418   19.8359 H   0  0  0  0  0  0
  -25.1313  -36.1828   25.0802 H   0  0  0  0  0  0
  -21.0035  -28.3344   24.1341 H   0  0  0  0  0  0
  -20.5711  -26.2353   23.3626 H   0  0  0  0  0  0
  -21.6660  -26.7449   22.1186 H   0  0  0  0  0  0
  -19.6923  -25.6297   21.1267 H   0  0  0  0  0  0
  -19.6710  -27.3190   20.6738 H   0  0  0  0  0  0
  -17.4218  -26.6704   21.4035 H   0  0  0  0  0  0
  -18.0346  -26.0113   22.9041 H   0  0  0  0  0  0
  -19.7958  -30.7321   24.2230 H   0  0  0  0  0  0
  -17.5031  -31.6281   24.5174 H   0  0  0  0  0  0
  -15.5369  -30.2989   23.7688 H   0  0  0  0  0  0
  -15.8703  -28.0838   22.7074 H   0  0  0  0  0  0
  -24.5915  -30.7085   25.7719 H   0  0  0  0  0  0
  -24.8895  -32.2939   26.4754 H   0  0  0  0  0  0
  -25.8000  -30.8979   27.0222 H   0  0  0  0  0  0
  -26.3042  -29.6662   24.1323 H   0  0  0  0  0  0
  -27.4008  -29.7265   25.4910 H   0  0  0  0  0  0
  -27.8960  -30.4175   23.9664 H   0  0  0  0  0  0
  -27.2652  -33.3661   26.2006 H   0  0  0  0  0  0
  -28.3919  -32.6851   25.0365 H   0  0  0  0  0  0
  -28.0684  -31.8509   26.5486 H   0  0  0  0  0  0
  -28.2576  -38.0091   24.7517 H   0  0  0  0  0  0
  -28.1089  -36.2619   24.6289 H   0  0  0  0  0  0
  -27.2295  -37.1414   25.8871 H   0  0  0  0  0  0
  -20.9489  -29.8776   21.6765 H   0  0  0  0  0  0
  -26.0144  -38.2796   24.1433 H   0  0  0  0  0  0
  -27.4112  -21.5787   20.3176 H   0  0  0  0  0  0
  -30.6718  -24.3782   20.1497 H   0  0  0  0  0  0
  -32.7599  -23.6215   22.0725 H   0  0  0  0  0  0
  -32.8332  -24.5925   20.6042 H   0  0  0  0  0  0
  -34.2303  -23.6618   21.1093 H   0  0  0  0  0  0
  -32.8671  -21.5585   18.2647 H   0  0  0  0  0  0
  -34.2360  -22.5482   18.7566 H   0  0  0  0  0  0
  -32.7309  -23.3129   18.2484 H   0  0  0  0  0  0
  -27.0542  -24.3928   20.7952 H   0  0  0  0  0  0
  -27.4556  -24.4321   19.1083 H   0  0  0  0  0  0
  -28.2805  -18.8476   19.7399 H   0  0  0  0  0  0
  -28.5414  -18.9212   21.4403 H   0  0  0  0  0  0
  -30.9269  -17.9004   21.0958 H   0  0  0  0  0  0
  -30.6264  -17.7993   19.4020 H   0  0  0  0  0  0
  -33.0877  -21.5541   20.7182 H   0  0  0  0  0  0
  -28.7945  -15.9865   20.7075 H   0  0  0  0  0  0
  1 25  1  0  0  0
  1 30  2  0  0  0
  1 83  1  0  0  0
  2  3  1  0  0  0
  2 25  1  0  0  0
  2 84  1  0  0  0
  2 85  1  0  0  0
  3  4  1  0  0  0
  3 86  1  0  0  0
  3 87  1  0  0  0
  4  5  1  0  0  0
  4 88  1  0  0  0
  4 89  1  0  0  0
  5  6  1  0  0  0
  5 26  1  0  0  0
  5 90  1  0  0  0
  6 25  1  0  0  0
  6 91  1  0  0  0
  6 92  1  0  0  0
  7  8  2  0  0  0
  7 26  1  0  0  0
  7 29  1  0  0  0
  8  9  1  0  0  0
  8 22  1  0  0  0
  9 10  1  0  0  0
  9 27  2  0  0  0
 10 11  2  0  0  0
 10 15  1  0  0  0
 11 12  1  0  0  0
 11 93  1  0  0  0
 12 13  2  0  0  0
 12 94  1  0  0  0
 13 14  1  0  0  0
 13 31  1  0  0  0
 14 15  2  0  0  0
 14 95  1  0  0  0
 15 96  1  0  0  0
 16 17  2  0  0  0
 16 21  1  0  0  0
 16 31  1  0  0  0
 17 18  1  0  0  0
 17 97  1  0  0  0
 18 19  2  0  0  0
 18 98  1  0  0  0
 19 20  1  0  0  0
 19 24  1  0  0  0
 20 21  2  0  0  0
 20 99  1  0  0  0
 21 23  1  0  0  0
 22 28  1  0  0  0
 22 32  2  0  0  0
 26 27  1  0  0  0
 28100  1  0  0  0
 28101  1  0  0  0
 29102  1  0  0  0
 29103  1  0  0  0
 33 34  1  0  0  0
 33 66  1  0  0  0
 33 70  2  0  0  0
 34 36  1  0  0  0
 34 59  1  0  0  0
 34104  1  0  0  0
 35 44  2  0  0  0
 35 45  1  0  0  0
 35 68  1  0  0  0
 36 56  1  0  0  0
 36105  1  0  0  0
 37 39  1  0  0  0
 37 47  1  0  0  0
 37 66  1  0  0  0
 37106  1  0  0  0
 38 43  2  0  0  0
 38 46  1  0  0  0
 38 47  1  0  0  0
 39 64  1  0  0  0
 39 67  2  0  0  0
 40 52  1  0  0  0
 40 53  2  0  0  0
 40 58  1  0  0  0
 41107  1  0  0  0
 41108  1  0  0  0
 41109  1  0  0  0
 41 48  1  0  0  0
 42 43  1  0  0  0
 42 66  1  0  0  0
 42110  1  0  0  0
 42111  1  0  0  0
 43 44  1  0  0  0
 44112  1  0  0  0
 45 46  2  0  0  0
 45113  1  0  0  0
 46114  1  0  0  0
 47115  1  0  0  0
 47116  1  0  0  0
 48 56  1  0  0  0
 48 65  1  0  0  0
 48117  1  0  0  0
 49 50  1  0  0  0
 49 53  1  0  0  0
 49 64  1  0  0  0
 49118  1  0  0  0
 50 51  1  0  0  0
 50119  1  0  0  0
 50120  1  0  0  0
 51 52  1  0  0  0
 51121  1  0  0  0
 51122  1  0  0  0
 52123  1  0  0  0
 52124  1  0  0  0
 53 54  1  0  0  0
 54 55  2  0  0  0
 54125  1  0  0  0
 55 57  1  0  0  0
 55126  1  0  0  0
 56 69  2  0  0  0
 57 58  2  0  0  0
 57127  1  0  0  0
 58128  1  0  0  0
 59 60  1  0  0  0
 59 61  1  0  0  0
 59 62  1  0  0  0
 60129  1  0  0  0
 60130  1  0  0  0
 60131  1  0  0  0
 61132  1  0  0  0
 61133  1  0  0  0
 61134  1  0  0  0
 62135  1  0  0  0
 62136  1  0  0  0
 62137  1  0  0  0
 63 65  1  0  0  0
 63138  1  0  0  0
 63139  1  0  0  0
 63140  1  0  0  0
 64141  1  0  0  0
 65142  1  0  0  0
 68 78  1  0  0  0
 71 73  2  0  0  0
 71 74  1  0  0  0
 71143  1  0  0  0
 72 73  1  0  0  0
 72 75  2  0  0  0
 72144  1  0  0  0
 73 78  1  0  0  0
 74 79  1  0  0  0
 74 82  2  0  0  0
 75 81  1  0  0  0
 75 82  1  0  0  0
 76145  1  0  0  0
 76146  1  0  0  0
 76147  1  0  0  0
 76 81  1  0  0  0
 77 81  1  0  0  0
 77148  1  0  0  0
 77149  1  0  0  0
 77150  1  0  0  0
 78151  1  0  0  0
 78152  1  0  0  0
 79 80  1  0  0  0
 79153  1  0  0  0
 79154  1  0  0  0
 80 83  1  0  0  0
 80155  1  0  0  0
 80156  1  0  0  0
 81157  1  0  0  0
 83158  1  0  0  0
M  ISO  4   1 100  68 101  78 101  83 100
M  END
> <chiral flag>
0

> <version>
0

> <s_m_source_file>
/data/baiqing/PycharmProjects/Reinvent-master-3.2/result/LINK_invent/BTK/process_docking_weight1_custom_sum_contain_oxygen_bond_distance_aromatic_linkinvent_7_9_3/rearranged_h_0052.sdf

> <i_m_source_file_index>
60

> <r_mmod_Potential_Energy-OPLS-2005>
348.629974365234

> <r_mmod_Stretch_Energy-OPLS-2005>
278.927001953125

> <r_mmod_Bend_Energy-OPLS-2005>
251.148559570312

> <r_mmod_Torsional_Energy-OPLS-2005>
210.182662963867

> <r_mmod_Improper_Torsional_Energy-OPLS-2005>
4.79982233047485

> <r_mmod_Van_der_Waal_Energy-OPLS-2005>
134.226959228516

> <r_mmod_Electrostatic_Energy-OPLS-2005>
-516.877990722656

> <r_mmod_Solvation_Energy-OPLS-2005>
-227.918319702148

> <b_mmod_Minimization_Converged-OPLS-2005>
0

> <r_mmod_RMS_Derivative-OPLS-2005>
1.10361301898956

$$$$
60
                    3D
 Structure written by MMmdl.
170178  0  0  1  0            999 V2000
  -30.6539  -14.7172   20.5277 C   0  0  0  0  0  0
  -30.4279  -12.4495   19.4746 C   0  0  0  0  0  0
  -29.5082  -12.5369   18.2367 C   0  0  0  0  0  0
  -28.0296  -12.3685   18.6337 C   0  0  0  0  0  0
  -27.6527  -13.2296   19.8685 C   0  0  2  0  0  0
  -28.6986  -13.0735   20.9922 C   0  0  0  0  0  0
  -25.2552  -13.8221   20.5713 C   0  0  0  0  0  0
  -24.1835  -13.0462   20.9185 C   0  0  0  0  0  0
  -24.6421  -11.6938   20.8721 C   0  0  0  0  0  0
  -23.9088  -10.4314   21.0378 C   0  0  0  0  0  0
  -24.3637   -9.4240   21.9168 C   0  0  0  0  0  0
  -23.6318   -8.2265   22.0752 C   0  0  0  0  0  0
  -22.4306   -8.0290   21.3538 C   0  0  0  0  0  0
  -21.9927   -9.0267   20.4640 C   0  0  0  0  0  0
  -22.7244  -10.2151   20.3039 C   0  0  0  0  0  0
  -21.6882   -6.0736   22.5262 C   0  0  0  0  0  0
  -21.4023   -6.5637   23.8190 C   0  0  0  0  0  0
  -21.3658   -5.6792   24.9158 C   0  0  0  0  0  0
  -21.6055   -4.3059   24.7208 C   0  0  0  0  0  0
  -21.8825   -3.8147   23.4325 C   0  0  0  0  0  0
  -21.9209   -4.6962   22.3387 C   0  0  0  0  0  0
  -22.7844  -13.5239   21.1812 C   0  0  0  0  0  0
  -22.1678   -4.2145   21.0964 F   0  0  0  0  0  0
  -21.5629   -3.4543   25.7723 F   0  0  0  0  0  0
  -30.0003  -13.4938   20.4494 N   0  0  0  0  0  0
  -26.2996  -12.9415   20.3358 N   0  0  0  0  0  0
  -25.9359  -11.6556   20.5746 N   0  0  0  0  0  0
  -22.0501  -12.8245   22.0375 N   0  0  0  0  0  0
  -25.4248  -15.1938   20.4123 N   0  0  0  0  0  0
  -31.7648  -14.7804   19.9914 O   0  0  0  0  0  0
  -21.6676   -6.8881   21.4225 O   0  0  0  0  0  0
  -22.3515  -14.5543   20.6653 O   0  0  0  0  0  0
  -24.6294  -31.8558   23.1992 C   0  0  0  0  0  0
  -25.9129  -32.4750   23.8327 C   0  0  1  0  0  0
  -27.2181  -27.2799   20.1316 C   0  0  0  0  0  0
  -25.5936  -33.8550   24.2250 N   0  0  0  0  0  0
  -23.4256  -30.4790   21.5403 C   0  0  2  0  0  0
  -24.8751  -28.9297   20.1060 C   0  0  0  0  0  0
  -22.7503  -29.4600   22.4900 C   0  0  0  0  0  0
  -18.0297  -28.1376   22.8484 C   0  0  0  0  0  0
  -24.1500  -36.7282   23.2638 C   0  0  0  0  0  0
  -25.9702  -30.7760   21.3773 C   0  0  0  0  0  0
  -26.0451  -29.4000   20.7187 C   0  0  0  0  0  0
  -27.2230  -28.5882   20.7186 C   0  0  0  0  0  0
  -26.0323  -26.8754   19.4864 C   0  0  0  0  0  0
  -24.8741  -27.6759   19.4764 C   0  0  0  0  0  0
  -23.6430  -29.8125   20.1558 C   0  0  0  0  0  0
  -25.4126  -36.3065   24.0321 C   0  0  1  0  0  0
  -20.5900  -28.3691   23.1277 C   0  0  2  0  0  0
  -20.6782  -26.9404   22.5412 C   0  0  0  0  0  0
  -19.5754  -26.6379   21.5217 C   0  0  0  0  0  0
  -18.1936  -26.7921   22.1628 C   0  0  0  0  0  0
  -19.1547  -28.8853   23.2876 C   0  0  0  0  0  0
  -18.9463  -30.1460   23.8888 C   0  0  0  0  0  0
  -17.6455  -30.6577   24.0564 C   0  0  0  0  0  0
  -25.9059  -34.9434   23.5087 C   0  0  0  0  0  0
  -16.5348  -29.9069   23.6326 C   0  0  0  0  0  0
  -16.7282  -28.6490   23.0344 C   0  0  0  0  0  0
  -26.4504  -31.6559   25.0709 C   0  0  0  0  0  0
  -25.3733  -31.3698   26.1430 C   0  0  0  0  0  0
  -27.0336  -30.2968   24.6190 C   0  0  0  0  0  0
  -27.6058  -32.4302   25.7481 C   0  0  0  0  0  0
  -27.5579  -37.1800   24.8460 C   0  0  0  0  0  0
  -21.4209  -29.3043   22.3664 N   0  0  0  0  0  0
  -26.4295  -37.3758   23.9400 N   0  0  0  0  0  0
  -24.6935  -31.0554   22.0948 N   0  0  0  0  0  0
  -23.4219  -28.8138   23.2983 O   0  0  0  0  0  0
  -28.3020  -26.3795   20.1612 O   0  0  0  0  0  0
  -26.5636  -34.8906   22.4659 O   0  0  0  0  0  0
  -23.5452  -32.1365   23.7304 O   0  0  0  0  0  0
  -30.7782  -23.4994   21.0557 C   0  0  0  0  0  0
  -29.6441  -22.7631   20.6178 C   0  0  0  0  0  0
  -31.6420  -22.6795   21.6982 C   0  0  0  0  0  0
  -29.9268  -21.3894   20.8866 C   0  0  0  0  0  0
  -32.9496  -23.0141   22.3487 C   0  0  0  0  0  0
  -31.4364  -16.6368   21.9677 C   0  0  0  0  0  0
  -29.1232  -15.9285   22.3398 C   0  0  0  0  0  0
  -31.6460  -20.3119   22.4685 C   0  0  0  0  0  0
  -31.1563  -19.0093   19.2457 C   0  0  0  0  0  0
  -28.4794  -23.6057   19.9770 C   0  0  0  0  0  0
  -29.2849  -19.9648   20.5827 C   0  0  0  0  0  0
  -29.6325  -17.3174   20.2520 C   0  0  0  0  0  0
  -28.0399  -24.9982   20.6883 C   0  0  0  0  0  0
  -30.1742  -16.1177   21.2220 C   0  0  0  0  0  0
  -31.0775  -21.4154   21.7021 N   0  0  0  0  0  0
  -30.2157  -18.7466   20.3641 N   0  3  1  0  0  0
  -31.4718  -12.5444   19.1716 H   0  0  0  0  0  0
  -30.3599  -11.4560   19.9202 H   0  0  0  0  0  0
  -29.7841  -11.7770   17.5041 H   0  0  0  0  0  0
  -29.6511  -13.5009   17.7463 H   0  0  0  0  0  0
  -27.8649  -11.3126   18.8536 H   0  0  0  0  0  0
  -27.3815  -12.6094   17.7899 H   0  0  0  0  0  0
  -27.6717  -14.2699   19.5422 H   0  0  0  0  0  0
  -28.7466  -12.0281   21.3033 H   0  0  0  0  0  0
  -28.4019  -13.5835   21.8977 H   0  0  0  0  0  0
  -25.2780   -9.5743   22.4740 H   0  0  0  0  0  0
  -24.0040   -7.4679   22.7499 H   0  0  0  0  0  0
  -21.0849   -8.8775   19.8958 H   0  0  0  0  0  0
  -22.3685  -10.9689   19.6158 H   0  0  0  0  0  0
  -21.2001   -7.6145   23.9683 H   0  0  0  0  0  0
  -21.1482   -6.0525   25.9058 H   0  0  0  0  0  0
  -22.0602   -2.7606   23.2834 H   0  0  0  0  0  0
  -22.4154  -11.9949   22.4822 H   0  0  0  0  0  0
  -21.1085  -13.1220   22.2523 H   0  0  0  0  0  0
  -24.6567  -15.8470   20.5211 H   0  0  0  0  0  0
  -26.2663  -15.6337   20.0645 H   0  0  0  0  0  0
  -26.7197  -32.5409   23.1068 H   0  0  0  0  0  0
  -25.0074  -33.9686   25.0391 H   0  0  0  0  0  0
  -22.7200  -31.3003   21.3948 H   0  0  0  0  0  0
  -23.3757  -35.9617   23.3291 H   0  0  0  0  0  0
  -24.3589  -36.8919   22.2052 H   0  0  0  0  0  0
  -23.7261  -37.6484   23.6673 H   0  0  0  0  0  0
  -26.1123  -31.5396   20.6112 H   0  0  0  0  0  0
  -26.8460  -30.8213   22.0126 H   0  0  0  0  0  0
  -28.1191  -28.9425   21.2087 H   0  0  0  0  0  0
  -25.9919  -25.9126   18.9975 H   0  0  0  0  0  0
  -23.9816  -27.3154   18.9838 H   0  0  0  0  0  0
  -23.7594  -30.5875   19.3976 H   0  0  0  0  0  0
  -22.7635  -29.2403   19.8560 H   0  0  0  0  0  0
  -25.1312  -36.1898   25.0812 H   0  0  0  0  0  0
  -21.0007  -28.3270   24.1395 H   0  0  0  0  0  0
  -20.5695  -26.2296   23.3621 H   0  0  0  0  0  0
  -21.6648  -26.7434   22.1193 H   0  0  0  0  0  0
  -19.6914  -25.6292   21.1248 H   0  0  0  0  0  0
  -19.6690  -27.3203   20.6758 H   0  0  0  0  0  0
  -17.4211  -26.6689   21.4022 H   0  0  0  0  0  0
  -18.0320  -26.0058   22.9017 H   0  0  0  0  0  0
  -19.7932  -30.7294   24.2248 H   0  0  0  0  0  0
  -17.4994  -31.6258   24.5164 H   0  0  0  0  0  0
  -15.5342  -30.2960   23.7650 H   0  0  0  0  0  0
  -15.8688  -28.0810   22.7043 H   0  0  0  0  0  0
  -24.5928  -30.7023   25.7757 H   0  0  0  0  0  0
  -24.8904  -32.2859   26.4840 H   0  0  0  0  0  0
  -25.8064  -30.8889   27.0211 H   0  0  0  0  0  0
  -26.2902  -29.6717   24.1229 H   0  0  0  0  0  0
  -27.4018  -29.7229   25.4704 H   0  0  0  0  0  0
  -27.8788  -30.4216   23.9418 H   0  0  0  0  0  0
  -27.2667  -33.3620   26.2013 H   0  0  0  0  0  0
  -28.3889  -32.6826   25.0321 H   0  0  0  0  0  0
  -28.0694  -31.8450   26.5430 H   0  0  0  0  0  0
  -28.2592  -38.0100   24.7507 H   0  0  0  0  0  0
  -28.1086  -36.2632   24.6293 H   0  0  0  0  0  0
  -27.2296  -37.1449   25.8863 H   0  0  0  0  0  0
  -20.9391  -29.8764   21.6866 H   0  0  0  0  0  0
  -26.0171  -38.2835   24.1388 H   0  0  0  0  0  0
  -30.9298  -24.5647   20.9442 H   0  0  0  0  0  0
  -33.3119  -23.9852   22.0072 H   0  0  0  0  0  0
  -33.7200  -22.2807   22.1047 H   0  0  0  0  0  0
  -32.8533  -23.0637   23.4339 H   0  0  0  0  0  0
  -31.2171  -17.4726   22.6287 H   0  0  0  0  0  0
  -32.2254  -16.9543   21.2844 H   0  0  0  0  0  0
  -31.8688  -15.8614   22.6045 H   0  0  0  0  0  0
  -28.9786  -16.8470   22.9087 H   0  0  0  0  0  0
  -29.4254  -15.1636   23.0586 H   0  0  0  0  0  0
  -28.1383  -15.6814   21.9437 H   0  0  0  0  0  0
  -32.2106  -20.6849   23.3222 H   0  0  0  0  0  0
  -32.3177  -19.7203   21.8476 H   0  0  0  0  0  0
  -30.8497  -19.6935   22.8775 H   0  0  0  0  0  0
  -31.6602  -19.9702   19.3522 H   0  0  0  0  0  0
  -30.6272  -19.0231   18.2917 H   0  0  0  0  0  0
  -31.9302  -18.2432   19.1905 H   0  0  0  0  0  0
  -27.6070  -22.9512   19.9479 H   0  0  0  0  0  0
  -28.7242  -23.8024   18.9331 H   0  0  0  0  0  0
  -28.6336  -20.0495   19.7119 H   0  0  0  0  0  0
  -28.6223  -19.7145   21.4127 H   0  0  0  0  0  0
  -28.5517  -17.4040   20.3665 H   0  0  0  0  0  0
  -29.7435  -16.9845   19.2178 H   0  0  0  0  0  0
  -28.4373  -24.9840   21.7037 H   0  0  0  0  0  0
  -26.9676  -24.8986   20.8668 H   0  0  0  0  0  0
  -30.7821  -18.7186   21.1977 H   0  0  0  0  0  0
  1 25  1  0  0  0
  1 30  2  0  0  0
  1 84  1  0  0  0
  2  3  1  0  0  0
  2 25  1  0  0  0
  2 87  1  0  0  0
  2 88  1  0  0  0
  3  4  1  0  0  0
  3 89  1  0  0  0
  3 90  1  0  0  0
  4  5  1  0  0  0
  4 91  1  0  0  0
  4 92  1  0  0  0
  5  6  1  0  0  0
  5 26  1  0  0  0
  5 93  1  0  0  0
  6 25  1  0  0  0
  6 94  1  0  0  0
  6 95  1  0  0  0
  7  8  2  0  0  0
  7 26  1  0  0  0
  7 29  1  0  0  0
  8  9  1  0  0  0
  8 22  1  0  0  0
  9 10  1  0  0  0
  9 27  2  0  0  0
 10 11  2  0  0  0
 10 15  1  0  0  0
 11 12  1  0  0  0
 11 96  1  0  0  0
 12 13  2  0  0  0
 12 97  1  0  0  0
 13 14  1  0  0  0
 13 31  1  0  0  0
 14 15  2  0  0  0
 14 98  1  0  0  0
 15 99  1  0  0  0
 16 17  2  0  0  0
 16 21  1  0  0  0
 16 31  1  0  0  0
 17 18  1  0  0  0
 17100  1  0  0  0
 18 19  2  0  0  0
 18101  1  0  0  0
 19 20  1  0  0  0
 19 24  1  0  0  0
 20 21  2  0  0  0
 20102  1  0  0  0
 21 23  1  0  0  0
 22 28  1  0  0  0
 22 32  2  0  0  0
 26 27  1  0  0  0
 28103  1  0  0  0
 28104  1  0  0  0
 29105  1  0  0  0
 29106  1  0  0  0
 33 34  1  0  0  0
 33 66  1  0  0  0
 33 70  2  0  0  0
 34 36  1  0  0  0
 34 59  1  0  0  0
 34107  1  0  0  0
 35 44  2  0  0  0
 35 45  1  0  0  0
 35 68  1  0  0  0
 36 56  1  0  0  0
 36108  1  0  0  0
 37 39  1  0  0  0
 37 47  1  0  0  0
 37 66  1  0  0  0
 37109  1  0  0  0
 38 43  2  0  0  0
 38 46  1  0  0  0
 38 47  1  0  0  0
 39 64  1  0  0  0
 39 67  2  0  0  0
 40 52  1  0  0  0
 40 53  2  0  0  0
 40 58  1  0  0  0
 41110  1  0  0  0
 41111  1  0  0  0
 41112  1  0  0  0
 41 48  1  0  0  0
 42 43  1  0  0  0
 42 66  1  0  0  0
 42113  1  0  0  0
 42114  1  0  0  0
 43 44  1  0  0  0
 44115  1  0  0  0
 45 46  2  0  0  0
 45116  1  0  0  0
 46117  1  0  0  0
 47118  1  0  0  0
 47119  1  0  0  0
 48 56  1  0  0  0
 48 65  1  0  0  0
 48120  1  0  0  0
 49 50  1  0  0  0
 49 53  1  0  0  0
 49 64  1  0  0  0
 49121  1  0  0  0
 50 51  1  0  0  0
 50122  1  0  0  0
 50123  1  0  0  0
 51 52  1  0  0  0
 51124  1  0  0  0
 51125  1  0  0  0
 52126  1  0  0  0
 52127  1  0  0  0
 53 54  1  0  0  0
 54 55  2  0  0  0
 54128  1  0  0  0
 55 57  1  0  0  0
 55129  1  0  0  0
 56 69  2  0  0  0
 57 58  2  0  0  0
 57130  1  0  0  0
 58131  1  0  0  0
 59 60  1  0  0  0
 59 61  1  0  0  0
 59 62  1  0  0  0
 60132  1  0  0  0
 60133  1  0  0  0
 60134  1  0  0  0
 61135  1  0  0  0
 61136  1  0  0  0
 61137  1  0  0  0
 62138  1  0  0  0
 62139  1  0  0  0
 62140  1  0  0  0
 63 65  1  0  0  0
 63141  1  0  0  0
 63142  1  0  0  0
 63143  1  0  0  0
 64144  1  0  0  0
 65145  1  0  0  0
 68 83  1  0  0  0
 71 72  1  0  0  0
 71 73  2  0  0  0
 71146  1  0  0  0
 72 74  2  0  0  0
 72 80  1  0  0  0
 73 75  1  0  0  0
 73 85  1  0  0  0
 74 81  1  0  0  0
 74 85  1  0  0  0
 75147  1  0  0  0
 75148  1  0  0  0
 75149  1  0  0  0
 76150  1  0  0  0
 76151  1  0  0  0
 76152  1  0  0  0
 76 84  1  0  0  0
 77 84  1  0  0  0
 77153  1  0  0  0
 77154  1  0  0  0
 77155  1  0  0  0
 78 85  1  0  0  0
 78156  1  0  0  0
 78157  1  0  0  0
 78158  1  0  0  0
 79159  1  0  0  0
 79160  1  0  0  0
 79161  1  0  0  0
 79 86  1  0  0  0
 80 83  1  0  0  0
 80162  1  0  0  0
 80163  1  0  0  0
 81 86  1  0  0  0
 81164  1  0  0  0
 81165  1  0  0  0
 82 84  1  0  0  0
 82 86  1  0  0  0
 82166  1  0  0  0
 82167  1  0  0  0
 83168  1  0  0  0
 83169  1  0  0  0
 86170  1  0  0  0
M  CHG  1  86   1
M  ISO  4   1 100  68 101  83 101  84 100
M  END
> <chiral flag>
0

> <version>
0

> <s_m_source_file>
/data/baiqing/PycharmProjects/Reinvent-master-3.2/result/LINK_invent/BTK/process_docking_weight1_custom_sum_contain_oxygen_bond_distance_aromatic_linkinvent_7_9_3/rearranged_h_0052.sdf

> <i_m_source_file_index>
61

> <r_mmod_Potential_Energy-OPLS-2005>
166.405029296875

> <r_mmod_Stretch_Energy-OPLS-2005>
145.600372314453

> <r_mmod_Bend_Energy-OPLS-2005>
220.525421142578

> <r_mmod_Torsional_Energy-OPLS-2005>
248.927932739258

> <r_mmod_Improper_Torsional_Energy-OPLS-2005>
2.03253197669983

> <r_mmod_Van_der_Waal_Energy-OPLS-2005>
134.518447875977

> <r_mmod_Electrostatic_Energy-OPLS-2005>
-235.095428466797

> <r_mmod_Solvation_Energy-OPLS-2005>
-418.364196777344

> <b_mmod_Minimization_Converged-OPLS-2005>
0

> <r_mmod_RMS_Derivative-OPLS-2005>
2.60407114028931

$$$$
61
                    3D
 Structure written by MMmdl.
162170  0  0  1  0            999 V2000
  -30.6510  -14.7504   20.5030 C   0  0  0  0  0  0
  -30.4369  -12.4633   19.4915 C   0  0  0  0  0  0
  -29.5178  -12.4969   18.2510 C   0  0  0  0  0  0
  -28.0369  -12.3494   18.6446 C   0  0  0  0  0  0
  -27.6457  -13.2400   19.8520 C   0  0  2  0  0  0
  -28.6851  -13.1785   20.9908 C   0  0  0  0  0  0
  -25.2525  -13.8243   20.5684 C   0  0  0  0  0  0
  -24.1812  -13.0457   20.9191 C   0  0  0  0  0  0
  -24.6407  -11.6949   20.8725 C   0  0  0  0  0  0
  -23.9081  -10.4311   21.0391 C   0  0  0  0  0  0
  -24.3638   -9.4246   21.9186 C   0  0  0  0  0  0
  -23.6316   -8.2271   22.0752 C   0  0  0  0  0  0
  -22.4296   -8.0298   21.3539 C   0  0  0  0  0  0
  -21.9934   -9.0261   20.4631 C   0  0  0  0  0  0
  -22.7256  -10.2149   20.3045 C   0  0  0  0  0  0
  -21.6873   -6.0743   22.5282 C   0  0  0  0  0  0
  -21.4016   -6.5636   23.8223 C   0  0  0  0  0  0
  -21.3661   -5.6786   24.9173 C   0  0  0  0  0  0
  -21.6065   -4.3046   24.7214 C   0  0  0  0  0  0
  -21.8823   -3.8147   23.4330 C   0  0  0  0  0  0
  -21.9196   -4.6975   22.3389 C   0  0  0  0  0  0
  -22.7836  -13.5248   21.1842 C   0  0  0  0  0  0
  -22.1671   -4.2168   21.0969 F   0  0  0  0  0  0
  -21.5623   -3.4520   25.7714 F   0  0  0  0  0  0
  -29.9987  -13.5315   20.4255 N   0  0  0  0  0  0
  -26.2958  -12.9457   20.3278 N   0  0  0  0  0  0
  -25.9349  -11.6591   20.5742 N   0  0  0  0  0  0
  -22.0463  -12.8218   22.0384 N   0  0  0  0  0  0
  -25.4250  -15.1952   20.4114 N   0  0  0  0  0  0
  -31.7817  -14.8622   20.0212 O   0  0  0  0  0  0
  -21.6666   -6.8889   21.4251 O   0  0  0  0  0  0
  -22.3516  -14.5532   20.6677 O   0  0  0  0  0  0
  -24.6336  -31.8542   23.1946 C   0  0  0  0  0  0
  -25.9168  -32.4748   23.8315 C   0  0  1  0  0  0
  -27.2391  -27.2478   20.1260 C   0  0  0  0  0  0
  -25.5973  -33.8551   24.2244 N   0  0  0  0  0  0
  -23.4295  -30.4729   21.5401 C   0  0  2  0  0  0
  -24.8817  -28.9192   20.1092 C   0  0  0  0  0  0
  -22.7532  -29.4572   22.4911 C   0  0  0  0  0  0
  -18.0306  -28.1393   22.8503 C   0  0  0  0  0  0
  -24.1472  -36.7223   23.2641 C   0  0  0  0  0  0
  -25.9795  -30.7649   21.3781 C   0  0  0  0  0  0
  -26.0549  -29.3879   20.7123 C   0  0  0  0  0  0
  -27.2316  -28.5672   20.7046 C   0  0  0  0  0  0
  -26.0333  -26.8485   19.5020 C   0  0  0  0  0  0
  -24.8770  -27.6563   19.4962 C   0  0  0  0  0  0
  -23.6470  -29.8044   20.1581 C   0  0  0  0  0  0
  -25.4120  -36.3031   24.0295 C   0  0  1  0  0  0
  -20.5917  -28.3685   23.1293 C   0  0  2  0  0  0
  -20.6777  -26.9399   22.5429 C   0  0  0  0  0  0
  -19.5753  -26.6392   21.5227 C   0  0  0  0  0  0
  -18.1926  -26.7946   22.1616 C   0  0  0  0  0  0
  -19.1562  -28.8856   23.2891 C   0  0  0  0  0  0
  -18.9474  -30.1467   23.8872 C   0  0  0  0  0  0
  -17.6464  -30.6573   24.0577 C   0  0  0  0  0  0
  -25.9078  -34.9417   23.5065 C   0  0  0  0  0  0
  -16.5367  -29.9059   23.6363 C   0  0  0  0  0  0
  -16.7294  -28.6493   23.0362 C   0  0  0  0  0  0
  -26.4523  -31.6599   25.0721 C   0  0  0  0  0  0
  -25.3716  -31.3753   26.1410 C   0  0  0  0  0  0
  -27.0407  -30.3000   24.6302 C   0  0  0  0  0  0
  -27.6060  -32.4380   25.7503 C   0  0  0  0  0  0
  -27.5557  -37.1760   24.8462 C   0  0  0  0  0  0
  -21.4223  -29.3042   22.3680 N   0  0  0  0  0  0
  -26.4272  -37.3750   23.9411 N   0  0  0  0  0  0
  -24.6986  -31.0490   22.0924 N   0  0  0  0  0  0
  -23.4238  -28.8140   23.3019 O   0  0  0  0  0  0
  -28.3565  -26.3670   20.2086 O   0  0  0  0  0  0
  -26.5649  -34.8894   22.4630 O   0  0  0  0  0  0
  -23.5478  -32.1386   23.7228 O   0  0  0  0  0  0
  -28.0814  -20.1693   21.0268 C   0  0  0  0  0  0
  -27.7781  -21.5207   21.0056 C   0  0  0  0  0  0
  -28.9502  -22.1955   20.5298 C   0  0  0  0  0  0
  -26.6804  -22.7627   22.8956 C   0  0  0  0  0  0
  -28.6262  -24.9386   18.2904 C   0  0  0  0  0  0
  -29.9376  -16.0560   22.4147 C   0  0  0  0  0  0
  -26.5052  -22.1715   21.4902 C   0  0  0  0  0  0
  -29.2463  -23.7797   20.5175 C   0  0  0  0  0  0
  -30.2264  -18.6699   20.6982 C   0  0  0  0  0  0
  -29.6854  -17.2053   20.2049 C   0  0  0  0  0  0
  -28.3011  -24.9069   19.7947 C   0  0  1  0  0  0
  -29.8966  -21.2242   20.2993 N   0  0  0  0  0  0
  -29.3801  -19.9558   20.5980 N   0  0  0  0  0  0
  -29.9758  -15.8857   20.9602 N   0  0  0  0  0  0
  -31.4740  -12.5870   19.1738 H   0  0  0  0  0  0
  -30.3962  -11.4892   19.9835 H   0  0  0  0  0  0
  -29.7917  -11.6934   17.5654 H   0  0  0  0  0  0
  -29.6634  -13.4339   17.7115 H   0  0  0  0  0  0
  -27.8574  -11.2980   18.8743 H   0  0  0  0  0  0
  -27.4020  -12.5881   17.7905 H   0  0  0  0  0  0
  -27.6448  -14.2670   19.4826 H   0  0  0  0  0  0
  -28.7137  -12.1821   21.4333 H   0  0  0  0  0  0
  -28.3886  -13.8612   21.7866 H   0  0  0  0  0  0
  -25.2782   -9.5718   22.4771 H   0  0  0  0  0  0
  -24.0026   -7.4658   22.7463 H   0  0  0  0  0  0
  -21.0871   -8.8748   19.8926 H   0  0  0  0  0  0
  -22.3699  -10.9674   19.6131 H   0  0  0  0  0  0
  -21.2014   -7.6147   23.9720 H   0  0  0  0  0  0
  -21.1494   -6.0514   25.9077 H   0  0  0  0  0  0
  -22.0610   -2.7611   23.2823 H   0  0  0  0  0  0
  -22.4038  -11.9894   22.4811 H   0  0  0  0  0  0
  -21.1050  -13.1221   22.2498 H   0  0  0  0  0  0
  -24.6697  -15.8577   20.5523 H   0  0  0  0  0  0
  -26.2913  -15.6360   20.1247 H   0  0  0  0  0  0
  -26.7252  -32.5377   23.1067 H   0  0  0  0  0  0
  -25.0124  -33.9751   25.0395 H   0  0  0  0  0  0
  -22.7227  -31.2905   21.3938 H   0  0  0  0  0  0
  -23.3758  -35.9530   23.3300 H   0  0  0  0  0  0
  -24.3544  -36.8874   22.2058 H   0  0  0  0  0  0
  -23.7203  -37.6393   23.6700 H   0  0  0  0  0  0
  -26.1351  -31.5369   20.6227 H   0  0  0  0  0  0
  -26.8496  -30.7991   22.0238 H   0  0  0  0  0  0
  -28.1315  -28.9276   21.1805 H   0  0  0  0  0  0
  -25.9384  -25.8843   19.0298 H   0  0  0  0  0  0
  -23.9758  -27.2858   19.0267 H   0  0  0  0  0  0
  -23.7547  -30.5811   19.3986 H   0  0  0  0  0  0
  -22.7665  -29.2278   19.8643 H   0  0  0  0  0  0
  -25.1315  -36.1837   25.0780 H   0  0  0  0  0  0
  -21.0019  -28.3241   24.1404 H   0  0  0  0  0  0
  -20.5643  -26.2299   23.3638 H   0  0  0  0  0  0
  -21.6638  -26.7393   22.1237 H   0  0  0  0  0  0
  -19.6884  -25.6308   21.1234 H   0  0  0  0  0  0
  -19.6677  -27.3222   20.6770 H   0  0  0  0  0  0
  -17.4224  -26.6802   21.3971 H   0  0  0  0  0  0
  -18.0237  -26.0068   22.8969 H   0  0  0  0  0  0
  -19.7945  -30.7321   24.2206 H   0  0  0  0  0  0
  -17.4999  -31.6243   24.5182 H   0  0  0  0  0  0
  -15.5350  -30.2924   23.7686 H   0  0  0  0  0  0
  -15.8714  -28.0788   22.7066 H   0  0  0  0  0  0
  -24.5894  -30.7139   25.7668 H   0  0  0  0  0  0
  -24.8917  -32.2930   26.4816 H   0  0  0  0  0  0
  -25.7972  -30.8886   27.0203 H   0  0  0  0  0  0
  -26.3051  -29.6715   24.1273 H   0  0  0  0  0  0
  -27.3980  -29.7299   25.4897 H   0  0  0  0  0  0
  -27.8960  -30.4226   23.9654 H   0  0  0  0  0  0
  -27.2659  -33.3697   26.2045 H   0  0  0  0  0  0
  -28.3878  -32.6958   25.0341 H   0  0  0  0  0  0
  -28.0754  -31.8565   26.5452 H   0  0  0  0  0  0
  -28.2544  -38.0089   24.7562 H   0  0  0  0  0  0
  -28.1077  -36.2613   24.6229 H   0  0  0  0  0  0
  -27.2274  -37.1343   25.8866 H   0  0  0  0  0  0
  -20.9388  -29.8805   21.6936 H   0  0  0  0  0  0
  -26.0102  -38.2786   24.1470 H   0  0  0  0  0  0
  -27.4914  -19.3363   21.3861 H   0  0  0  0  0  0
  -25.8066  -23.3489   23.1861 H   0  0  0  0  0  0
  -27.5529  -23.4127   22.9528 H   0  0  0  0  0  0
  -26.8154  -21.9780   23.6397 H   0  0  0  0  0  0
  -29.5586  -25.4783   18.1207 H   0  0  0  0  0  0
  -27.8558  -25.4428   17.7058 H   0  0  0  0  0  0
  -28.7518  -23.9328   17.8859 H   0  0  0  0  0  0
  -30.8092  -16.6190   22.7481 H   0  0  0  0  0  0
  -29.9587  -15.1099   22.9604 H   0  0  0  0  0  0
  -29.0417  -16.5894   22.7299 H   0  0  0  0  0  0
  -25.6831  -21.4573   21.5095 H   0  0  0  0  0  0
  -26.1711  -22.9554   20.8124 H   0  0  0  0  0  0
  -30.2693  -23.9264   20.1695 H   0  0  0  0  0  0
  -29.2934  -24.0778   21.5634 H   0  0  0  0  0  0
  -31.1581  -18.8578   20.1643 H   0  0  0  0  0  0
  -30.5355  -18.6021   21.7386 H   0  0  0  0  0  0
  -30.0339  -17.0692   19.1785 H   0  0  0  0  0  0
  -28.6013  -17.2584   20.1136 H   0  0  0  0  0  0
  -27.2861  -24.5558   19.9413 H   0  0  0  0  0  0
  1 25  1  0  0  0
  1 30  2  0  0  0
  1 84  1  0  0  0
  2  3  1  0  0  0
  2 25  1  0  0  0
  2 85  1  0  0  0
  2 86  1  0  0  0
  3  4  1  0  0  0
  3 87  1  0  0  0
  3 88  1  0  0  0
  4  5  1  0  0  0
  4 89  1  0  0  0
  4 90  1  0  0  0
  5  6  1  0  0  0
  5 26  1  0  0  0
  5 91  1  0  0  0
  6 25  1  0  0  0
  6 92  1  0  0  0
  6 93  1  0  0  0
  7  8  2  0  0  0
  7 26  1  0  0  0
  7 29  1  0  0  0
  8  9  1  0  0  0
  8 22  1  0  0  0
  9 10  1  0  0  0
  9 27  2  0  0  0
 10 11  2  0  0  0
 10 15  1  0  0  0
 11 12  1  0  0  0
 11 94  1  0  0  0
 12 13  2  0  0  0
 12 95  1  0  0  0
 13 14  1  0  0  0
 13 31  1  0  0  0
 14 15  2  0  0  0
 14 96  1  0  0  0
 15 97  1  0  0  0
 16 17  2  0  0  0
 16 21  1  0  0  0
 16 31  1  0  0  0
 17 18  1  0  0  0
 17 98  1  0  0  0
 18 19  2  0  0  0
 18 99  1  0  0  0
 19 20  1  0  0  0
 19 24  1  0  0  0
 20 21  2  0  0  0
 20100  1  0  0  0
 21 23  1  0  0  0
 22 28  1  0  0  0
 22 32  2  0  0  0
 26 27  1  0  0  0
 28101  1  0  0  0
 28102  1  0  0  0
 29103  1  0  0  0
 29104  1  0  0  0
 33 34  1  0  0  0
 33 66  1  0  0  0
 33 70  2  0  0  0
 34 36  1  0  0  0
 34 59  1  0  0  0
 34105  1  0  0  0
 35 44  2  0  0  0
 35 45  1  0  0  0
 35 68  1  0  0  0
 36 56  1  0  0  0
 36106  1  0  0  0
 37 39  1  0  0  0
 37 47  1  0  0  0
 37 66  1  0  0  0
 37107  1  0  0  0
 38 43  2  0  0  0
 38 46  1  0  0  0
 38 47  1  0  0  0
 39 64  1  0  0  0
 39 67  2  0  0  0
 40 52  1  0  0  0
 40 53  2  0  0  0
 40 58  1  0  0  0
 41108  1  0  0  0
 41109  1  0  0  0
 41110  1  0  0  0
 41 48  1  0  0  0
 42 43  1  0  0  0
 42 66  1  0  0  0
 42111  1  0  0  0
 42112  1  0  0  0
 43 44  1  0  0  0
 44113  1  0  0  0
 45 46  2  0  0  0
 45114  1  0  0  0
 46115  1  0  0  0
 47116  1  0  0  0
 47117  1  0  0  0
 48 56  1  0  0  0
 48 65  1  0  0  0
 48118  1  0  0  0
 49 50  1  0  0  0
 49 53  1  0  0  0
 49 64  1  0  0  0
 49119  1  0  0  0
 50 51  1  0  0  0
 50120  1  0  0  0
 50121  1  0  0  0
 51 52  1  0  0  0
 51122  1  0  0  0
 51123  1  0  0  0
 52124  1  0  0  0
 52125  1  0  0  0
 53 54  1  0  0  0
 54 55  2  0  0  0
 54126  1  0  0  0
 55 57  1  0  0  0
 55127  1  0  0  0
 56 69  2  0  0  0
 57 58  2  0  0  0
 57128  1  0  0  0
 58129  1  0  0  0
 59 60  1  0  0  0
 59 61  1  0  0  0
 59 62  1  0  0  0
 60130  1  0  0  0
 60131  1  0  0  0
 60132  1  0  0  0
 61133  1  0  0  0
 61134  1  0  0  0
 61135  1  0  0  0
 62136  1  0  0  0
 62137  1  0  0  0
 62138  1  0  0  0
 63 65  1  0  0  0
 63139  1  0  0  0
 63140  1  0  0  0
 63141  1  0  0  0
 64142  1  0  0  0
 65143  1  0  0  0
 68 81  1  0  0  0
 71 72  2  0  0  0
 71 83  1  0  0  0
 71144  1  0  0  0
 72 73  1  0  0  0
 72 77  1  0  0  0
 73 78  1  0  0  0
 73 82  2  0  0  0
 74 77  1  0  0  0
 74145  1  0  0  0
 74146  1  0  0  0
 74147  1  0  0  0
 75148  1  0  0  0
 75149  1  0  0  0
 75150  1  0  0  0
 75 81  1  0  0  0
 76 84  1  0  0  0
 76151  1  0  0  0
 76152  1  0  0  0
 76153  1  0  0  0
 77154  1  0  0  0
 77155  1  0  0  0
 78 81  1  0  0  0
 78156  1  0  0  0
 78157  1  0  0  0
 79 80  1  0  0  0
 79 83  1  0  0  0
 79158  1  0  0  0
 79159  1  0  0  0
 80 84  1  0  0  0
 80160  1  0  0  0
 80161  1  0  0  0
 81162  1  0  0  0
 82 83  1  0  0  0
M  ISO  4   1 100  68 101  81 101  84 100
M  END
> <chiral flag>
0

> <version>
0

> <s_m_source_file>
/data/baiqing/PycharmProjects/Reinvent-master-3.2/result/LINK_invent/BTK/process_docking_weight1_custom_sum_contain_oxygen_bond_distance_aromatic_linkinvent_7_9_3/rearranged_h_0052.sdf

> <i_m_source_file_index>
62

> <r_mmod_Potential_Energy-OPLS-2005>
370.611755371094

> <r_mmod_Stretch_Energy-OPLS-2005>
154.180892944336

> <r_mmod_Bend_Energy-OPLS-2005>
199.944152832031

> <r_mmod_Torsional_Energy-OPLS-2005>
310.683502197266

> <r_mmod_Improper_Torsional_Energy-OPLS-2005>
7.49883079528809

> <r_mmod_Van_der_Waal_Energy-OPLS-2005>
109.940383911133

> <r_mmod_Electrostatic_Energy-OPLS-2005>
-289.386291503906

> <r_mmod_Solvation_Energy-OPLS-2005>
-209.62043762207

> <b_mmod_Minimization_Converged-OPLS-2005>
0

> <r_mmod_RMS_Derivative-OPLS-2005>
4.3696722984314

$$$$
62
                    3D
 Structure written by MMmdl.
166175  0  0  1  0            999 V2000
  -30.2464  -14.4618   20.3754 C   0  0  0  0  0  0
  -30.4655  -12.2447   19.3990 C   0  0  0  0  0  0
  -29.4829  -12.2184   18.1940 C   0  0  0  0  0  0
  -28.0200  -11.8806   18.6414 C   0  0  0  0  0  0
  -27.6803  -12.7844   19.8111 C   0  0  2  0  0  0
  -28.6922  -12.7100   20.9687 C   0  0  0  0  0  0
  -25.5487  -14.2523   20.6728 C   0  0  0  0  0  0
  -24.3773  -13.3897   21.0232 C   0  0  0  0  0  0
  -24.6499  -11.9357   20.9594 C   0  0  0  0  0  0
  -23.8878  -10.6145   21.0960 C   0  0  0  0  0  0
  -24.3464   -9.5640   21.9448 C   0  0  0  0  0  0
  -23.6487   -8.3315   22.0810 C   0  0  0  0  0  0
  -22.4553   -8.0983   21.3552 C   0  0  0  0  0  0
  -22.0259   -9.1045   20.4665 C   0  0  0  0  0  0
  -22.7279  -10.3286   20.3357 C   0  0  0  0  0  0
  -21.7135   -6.1061   22.5196 C   0  0  0  0  0  0
  -21.4203   -6.5862   23.8164 C   0  0  0  0  0  0
  -21.3675   -5.6943   24.9082 C   0  0  0  0  0  0
  -21.6015   -4.3198   24.7111 C   0  0  0  0  0  0
  -21.8795   -3.8353   23.4210 C   0  0  0  0  0  0
  -21.9288   -4.7226   22.3307 C   0  0  0  0  0  0
  -22.9113  -13.7291   21.2456 C   0  0  0  0  0  0
  -22.1706   -4.2372   21.0891 F   0  0  0  0  0  0
  -21.5556   -3.4643   25.7595 F   0  0  0  0  0  0
  -29.9500  -13.1561   20.4303 N   0  0  0  0  0  0
  -26.3304  -12.9927   20.3573 N   0  0  0  0  0  0
  -25.8727  -11.7666   20.6404 N   0  0  0  0  0  0
  -22.1983  -12.9576   22.0708 N   0  0  0  0  0  0
  -26.3637  -17.0312   19.7706 N   0  0  0  0  0  0
  -31.4406  -14.8109   20.2544 O   0  0  0  0  0  0
  -21.7145   -6.9321   21.4159 O   0  0  0  0  0  0
  -22.3454  -14.6599   20.6872 O   0  0  0  0  0  0
  -24.6555  -31.8386   23.1910 C   0  0  0  0  0  0
  -25.9334  -32.4634   23.8299 C   0  0  1  0  0  0
  -26.9323  -26.9108   20.2497 C   0  0  0  0  0  0
  -25.6041  -33.8447   24.2159 N   0  0  0  0  0  0
  -23.4517  -30.4809   21.5385 C   0  0  2  0  0  0
  -24.8595  -28.9100   20.0822 C   0  0  0  0  0  0
  -22.7604  -29.4561   22.4766 C   0  0  0  0  0  0
  -18.0296  -28.1400   22.8452 C   0  0  0  0  0  0
  -24.1485  -36.7190   23.2637 C   0  0  0  0  0  0
  -26.0235  -30.6430   21.4238 C   0  0  0  0  0  0
  -26.0424  -29.2483   20.7517 C   0  0  0  0  0  0
  -27.1082  -28.2538   20.8245 C   0  0  0  0  0  0
  -25.8068  -26.7646   19.4373 C   0  0  0  0  0  0
  -24.7716  -27.6992   19.3909 C   0  0  0  0  0  0
  -23.6762  -29.8594   20.1377 C   0  0  0  0  0  0
  -25.4128  -36.2971   24.0297 C   0  0  1  0  0  0
  -20.5926  -28.3741   23.1185 C   0  0  2  0  0  0
  -20.6797  -26.9442   22.5378 C   0  0  0  0  0  0
  -19.5773  -26.6374   21.5192 C   0  0  0  0  0  0
  -18.1947  -26.7927   22.1600 C   0  0  0  0  0  0
  -19.1560  -28.8888   23.2804 C   0  0  0  0  0  0
  -18.9487  -30.1479   23.8841 C   0  0  0  0  0  0
  -17.6489  -30.6605   24.0550 C   0  0  0  0  0  0
  -25.9110  -34.9367   23.5027 C   0  0  0  0  0  0
  -16.5371  -29.9099   23.6353 C   0  0  0  0  0  0
  -16.7280  -28.6510   23.0376 C   0  0  0  0  0  0
  -26.4580  -31.6570   25.0819 C   0  0  0  0  0  0
  -25.3710  -31.3856   26.1481 C   0  0  0  0  0  0
  -27.0484  -30.2917   24.6607 C   0  0  0  0  0  0
  -27.6050  -32.4411   25.7610 C   0  0  0  0  0  0
  -27.5562  -37.1761   24.8462 C   0  0  0  0  0  0
  -21.4283  -29.3051   22.3538 N   0  0  0  0  0  0
  -26.4261  -37.3718   23.9418 N   0  0  0  0  0  0
  -24.7333  -31.0166   22.1007 N   0  0  0  0  0  0
  -23.4237  -28.8044   23.2887 O   0  0  0  0  0  0
  -27.5967  -25.6327   20.4371 O   0  0  0  0  0  0
  -26.5698  -34.8882   22.4604 O   0  0  0  0  0  0
  -23.5686  -32.1355   23.7072 O   0  0  0  0  0  0
  -24.7699  -20.6926   20.4995 C   0  0  0  0  0  0
  -25.2328  -22.0920   20.3051 C   0  0  0  0  0  0
  -26.6815  -20.3150   21.6887 C   0  0  0  0  0  0
  -24.5129  -15.8607   19.5261 C   0  0  0  0  0  0
  -26.5807  -15.9667   21.7486 C   0  0  0  0  0  0
  -25.4502  -19.6501   21.2534 C   0  0  0  0  0  0
  -24.9344  -16.4236   21.3438 C   0  0  0  0  0  0
  -26.4473  -22.6851   20.8333 C   0  0  0  0  0  0
  -28.4837  -16.2461   17.4072 C   0  0  0  0  0  0
  -26.7295  -24.3938   21.0806 C   0  0  0  0  0  0
  -29.4648  -16.0835   18.5801 C   0  0  0  0  0  0
  -23.4414  -18.3343   22.4972 C   0  0  0  0  0  0
  -24.8104  -18.1170   21.8339 C   0  0  2  0  0  0
  -29.0572  -15.4902   19.9974 C   0  0  1  0  0  0
  -27.1138  -21.6688   21.5303 N   0  0  0  0  0  0
  -26.1403  -15.1277   18.7451 N   0  0  0  0  0  0
  -27.5219  -15.2683   20.2671 N   0  0  0  0  0  0
  -23.2163  -17.2849   23.5049 N   0  3  0  0  0  0
  -31.4555  -12.5513   19.0576 H   0  0  0  0  0  0
  -30.5874  -11.2423   19.8118 H   0  0  0  0  0  0
  -29.8233  -11.4888   17.4600 H   0  0  0  0  0  0
  -29.5074  -13.1814   17.6807 H   0  0  0  0  0  0
  -27.9465  -10.8372   18.9482 H   0  0  0  0  0  0
  -27.3237  -12.0119   17.8098 H   0  0  0  0  0  0
  -27.8586  -13.5296   19.0618 H   0  0  0  0  0  0
  -28.7730  -11.6827   21.3272 H   0  0  0  0  0  0
  -28.3941  -13.3080   21.8338 H   0  0  0  0  0  0
  -25.2477   -9.7204   22.5196 H   0  0  0  0  0  0
  -24.0399   -7.5762   22.7475 H   0  0  0  0  0  0
  -21.1398   -8.9398   19.8685 H   0  0  0  0  0  0
  -22.3597  -11.0744   19.6451 H   0  0  0  0  0  0
  -21.2259   -7.6376   23.9764 H   0  0  0  0  0  0
  -21.1446   -6.0621   25.8996 H   0  0  0  0  0  0
  -22.0514   -2.7812   23.2651 H   0  0  0  0  0  0
  -22.6183  -12.1816   22.5609 H   0  0  0  0  0  0
  -21.2153  -13.1436   22.2078 H   0  0  0  0  0  0
  -25.6279  -17.7232   19.7244 H   0  0  0  0  0  0
  -26.6230  -16.6941   18.8457 H   0  0  0  0  0  0
  -26.7369  -32.5150   23.0985 H   0  0  0  0  0  0
  -25.0182  -33.9547   25.0305 H   0  0  0  0  0  0
  -22.7609  -31.3172   21.4076 H   0  0  0  0  0  0
  -23.3774  -35.9493   23.3284 H   0  0  0  0  0  0
  -24.3543  -36.8856   22.2049 H   0  0  0  0  0  0
  -23.7230  -37.6365   23.6711 H   0  0  0  0  0  0
  -26.2382  -31.3979   20.6663 H   0  0  0  0  0  0
  -26.8741  -30.6591   22.0926 H   0  0  0  0  0  0
  -27.9862  -28.4600   21.4186 H   0  0  0  0  0  0
  -25.6490  -25.8232   18.9297 H   0  0  0  0  0  0
  -23.8714  -27.4505   18.8443 H   0  0  0  0  0  0
  -23.8696  -30.6612   19.4243 H   0  0  0  0  0  0
  -22.7724  -29.3628   19.7789 H   0  0  0  0  0  0
  -25.1336  -36.1749   25.0790 H   0  0  0  0  0  0
  -20.9999  -28.3326   24.1317 H   0  0  0  0  0  0
  -20.5683  -26.2370   23.3609 H   0  0  0  0  0  0
  -21.6676  -26.7458   22.1199 H   0  0  0  0  0  0
  -19.6960  -25.6262   21.1287 H   0  0  0  0  0  0
  -19.6707  -27.3134   20.6678 H   0  0  0  0  0  0
  -17.4221  -26.6629   21.4004 H   0  0  0  0  0  0
  -18.0366  -26.0074   22.9006 H   0  0  0  0  0  0
  -19.7970  -30.7292   24.2196 H   0  0  0  0  0  0
  -17.5059  -31.6282   24.5160 H   0  0  0  0  0  0
  -15.5380  -30.3008   23.7730 H   0  0  0  0  0  0
  -15.8652  -28.0826   22.7166 H   0  0  0  0  0  0
  -24.5861  -30.7224   25.7828 H   0  0  0  0  0  0
  -24.8950  -32.3086   26.4804 H   0  0  0  0  0  0
  -25.7954  -30.9101   27.0329 H   0  0  0  0  0  0
  -26.3151  -29.6546   24.1646 H   0  0  0  0  0  0
  -27.3993  -29.7344   25.5307 H   0  0  0  0  0  0
  -27.9126  -30.4063   24.0058 H   0  0  0  0  0  0
  -27.2549  -33.3709   26.2106 H   0  0  0  0  0  0
  -28.3896  -32.6984   25.0483 H   0  0  0  0  0  0
  -28.0678  -31.8621   26.5608 H   0  0  0  0  0  0
  -28.2565  -38.0076   24.7541 H   0  0  0  0  0  0
  -28.1082  -36.2610   24.6263 H   0  0  0  0  0  0
  -27.2278  -37.1371   25.8863 H   0  0  0  0  0  0
  -20.9501  -29.8776   21.6719 H   0  0  0  0  0  0
  -26.0104  -38.2764   24.1471 H   0  0  0  0  0  0
  -23.7954  -20.4540   20.0975 H   0  0  0  0  0  0
  -24.5538  -22.7571   19.7853 H   0  0  0  0  0  0
  -27.3614  -19.7384   22.2971 H   0  0  0  0  0  0
  -23.6845  -16.1410   18.8895 H   0  0  0  0  0  0
  -27.1683  -16.3273   22.5792 H   0  0  0  0  0  0
  -28.0234  -15.2968   17.1282 H   0  0  0  0  0  0
  -29.0251  -16.5898   16.5262 H   0  0  0  0  0  0
  -27.7112  -16.9885   17.6010 H   0  0  0  0  0  0
  -27.0950  -24.4016   22.1073 H   0  0  0  0  0  0
  -25.7177  -24.7841   21.1840 H   0  0  0  0  0  0
  -29.9493  -17.0487   18.7310 H   0  0  0  0  0  0
  -30.2517  -15.4630   18.1430 H   0  0  0  0  0  0
  -22.6412  -18.3252   21.7566 H   0  0  0  0  0  0
  -23.4036  -19.3022   23.0016 H   0  0  0  0  0  0
  -25.4695  -18.1304   22.7025 H   0  0  0  0  0  0
  -29.2745  -16.2973   20.6941 H   0  0  0  0  0  0
  -23.1877  -16.3883   23.0539 H   0  0  0  0  0  0
  -22.3690  -17.4356   24.0209 H   0  0  0  0  0  0
  -23.9891  -17.2859   24.1472 H   0  0  0  0  0  0
  1 25  1  0  0  0
  1 30  2  0  0  0
  1 84  1  0  0  0
  2  3  1  0  0  0
  2 25  1  0  0  0
  2 89  1  0  0  0
  2 90  1  0  0  0
  3  4  1  0  0  0
  3 91  1  0  0  0
  3 92  1  0  0  0
  4  5  1  0  0  0
  4 93  1  0  0  0
  4 94  1  0  0  0
  5  6  1  0  0  0
  5 26  1  0  0  0
  5 95  1  0  0  0
  6 25  1  0  0  0
  6 96  1  0  0  0
  6 97  1  0  0  0
  7  8  2  0  0  0
  7 26  1  0  0  0
  7 29  1  0  0  0
  8  9  1  0  0  0
  8 22  1  0  0  0
  9 10  1  0  0  0
  9 27  2  0  0  0
 10 11  2  0  0  0
 10 15  1  0  0  0
 11 12  1  0  0  0
 11 98  1  0  0  0
 12 13  2  0  0  0
 12 99  1  0  0  0
 13 14  1  0  0  0
 13 31  1  0  0  0
 14 15  2  0  0  0
 14100  1  0  0  0
 15101  1  0  0  0
 16 17  2  0  0  0
 16 21  1  0  0  0
 16 31  1  0  0  0
 17 18  1  0  0  0
 17102  1  0  0  0
 18 19  2  0  0  0
 18103  1  0  0  0
 19 20  1  0  0  0
 19 24  1  0  0  0
 20 21  2  0  0  0
 20104  1  0  0  0
 21 23  1  0  0  0
 22 28  1  0  0  0
 22 32  2  0  0  0
 26 27  1  0  0  0
 28105  1  0  0  0
 28106  1  0  0  0
 29107  1  0  0  0
 29108  1  0  0  0
 33 34  1  0  0  0
 33 66  1  0  0  0
 33 70  2  0  0  0
 34 36  1  0  0  0
 34 59  1  0  0  0
 34109  1  0  0  0
 35 44  2  0  0  0
 35 45  1  0  0  0
 35 68  1  0  0  0
 36 56  1  0  0  0
 36110  1  0  0  0
 37 39  1  0  0  0
 37 47  1  0  0  0
 37 66  1  0  0  0
 37111  1  0  0  0
 38 43  2  0  0  0
 38 46  1  0  0  0
 38 47  1  0  0  0
 39 64  1  0  0  0
 39 67  2  0  0  0
 40 52  1  0  0  0
 40 53  2  0  0  0
 40 58  1  0  0  0
 41112  1  0  0  0
 41113  1  0  0  0
 41114  1  0  0  0
 41 48  1  0  0  0
 42 43  1  0  0  0
 42 66  1  0  0  0
 42115  1  0  0  0
 42116  1  0  0  0
 43 44  1  0  0  0
 44117  1  0  0  0
 45 46  2  0  0  0
 45118  1  0  0  0
 46119  1  0  0  0
 47120  1  0  0  0
 47121  1  0  0  0
 48 56  1  0  0  0
 48 65  1  0  0  0
 48122  1  0  0  0
 49 50  1  0  0  0
 49 53  1  0  0  0
 49 64  1  0  0  0
 49123  1  0  0  0
 50 51  1  0  0  0
 50124  1  0  0  0
 50125  1  0  0  0
 51 52  1  0  0  0
 51126  1  0  0  0
 51127  1  0  0  0
 52128  1  0  0  0
 52129  1  0  0  0
 53 54  1  0  0  0
 54 55  2  0  0  0
 54130  1  0  0  0
 55 57  1  0  0  0
 55131  1  0  0  0
 56 69  2  0  0  0
 57 58  2  0  0  0
 57132  1  0  0  0
 58133  1  0  0  0
 59 60  1  0  0  0
 59 61  1  0  0  0
 59 62  1  0  0  0
 60134  1  0  0  0
 60135  1  0  0  0
 60136  1  0  0  0
 61137  1  0  0  0
 61138  1  0  0  0
 61139  1  0  0  0
 62140  1  0  0  0
 62141  1  0  0  0
 62142  1  0  0  0
 63 65  1  0  0  0
 63143  1  0  0  0
 63144  1  0  0  0
 63145  1  0  0  0
 64146  1  0  0  0
 65147  1  0  0  0
 68 80  1  0  0  0
 71 72  2  0  0  0
 71 76  1  0  0  0
 71148  1  0  0  0
 72 78  1  0  0  0
 72149  1  0  0  0
 73 76  2  0  0  0
 73 85  1  0  0  0
 73150  1  0  0  0
 74 77  1  0  0  0
 74 86  2  0  0  0
 74151  1  0  0  0
 75 77  2  0  0  0
 75 87  1  0  0  0
 75152  1  0  0  0
 76 83  1  0  0  0
 77 83  1  0  0  0
 78 80  1  0  0  0
 78 85  2  0  0  0
 79 81  1  0  0  0
 79153  1  0  0  0
 79154  1  0  0  0
 79155  1  0  0  0
 80156  1  0  0  0
 80157  1  0  0  0
 81158  1  0  0  0
 81159  1  0  0  0
 81 84  1  0  0  0
 82 88  1  0  0  0
 82160  1  0  0  0
 82161  1  0  0  0
 82 83  1  0  0  0
 83162  1  0  0  0
 84 87  1  0  0  0
 84163  1  0  0  0
 86 87  1  0  0  0
 88164  1  0  0  0
 88165  1  0  0  0
 88166  1  0  0  0
M  CHG  1  88   1
M  ISO  4   1 100  68 101  80 101  84 100
M  END
> <chiral flag>
0

> <version>
0

> <s_m_source_file>
/data/baiqing/PycharmProjects/Reinvent-master-3.2/result/LINK_invent/BTK/process_docking_weight1_custom_sum_contain_oxygen_bond_distance_aromatic_linkinvent_7_9_3/rearranged_h_0052.sdf

> <i_m_source_file_index>
63

> <r_mmod_Potential_Energy-OPLS-2005>
12576.5068359375

> <r_mmod_Stretch_Energy-OPLS-2005>
8165.7822265625

> <r_mmod_Bend_Energy-OPLS-2005>
687.107360839844

> <r_mmod_Torsional_Energy-OPLS-2005>
438.285675048828

> <r_mmod_Improper_Torsional_Energy-OPLS-2005>
68.9836502075195

> <r_mmod_Van_der_Waal_Energy-OPLS-2005>
3173.1640625

> <r_mmod_Electrostatic_Energy-OPLS-2005>
-428.147644042969

> <r_mmod_Solvation_Energy-OPLS-2005>
-517.022705078125

> <b_mmod_Minimization_Converged-OPLS-2005>
0

> <r_mmod_RMS_Derivative-OPLS-2005>
10.3258085250854

$$$$
63
                    3D
 Structure written by MMmdl.
175183  0  0  1  0            999 V2000
  -30.5840  -14.8597   20.4945 C   0  0  0  0  0  0
  -30.4344  -12.5388   19.5047 C   0  0  0  0  0  0
  -29.5228  -12.5454   18.2553 C   0  0  0  0  0  0
  -28.0495  -12.3348   18.6529 C   0  0  0  0  0  0
  -27.6353  -13.2397   19.8396 C   0  0  2  0  0  0
  -28.6658  -13.1988   20.9812 C   0  0  0  0  0  0
  -25.2501  -13.8203   20.5724 C   0  0  0  0  0  0
  -24.1805  -13.0428   20.9213 C   0  0  0  0  0  0
  -24.6421  -11.6922   20.8764 C   0  0  0  0  0  0
  -23.9078  -10.4291   21.0411 C   0  0  0  0  0  0
  -24.3628   -9.4196   21.9177 C   0  0  0  0  0  0
  -23.6315   -8.2227   22.0738 C   0  0  0  0  0  0
  -22.4296   -8.0264   21.3532 C   0  0  0  0  0  0
  -21.9924   -9.0242   20.4644 C   0  0  0  0  0  0
  -22.7256  -10.2129   20.3054 C   0  0  0  0  0  0
  -21.6860   -6.0740   22.5274 C   0  0  0  0  0  0
  -21.4037   -6.5631   23.8209 C   0  0  0  0  0  0
  -21.3656   -5.6773   24.9164 C   0  0  0  0  0  0
  -21.6027   -4.3038   24.7196 C   0  0  0  0  0  0
  -21.8821   -3.8141   23.4312 C   0  0  0  0  0  0
  -21.9205   -4.6971   22.3386 C   0  0  0  0  0  0
  -22.7820  -13.5206   21.1871 C   0  0  0  0  0  0
  -22.1674   -4.2170   21.0962 F   0  0  0  0  0  0
  -21.5612   -3.4515   25.7695 F   0  0  0  0  0  0
  -29.9648  -13.6121   20.4279 N   0  0  0  0  0  0
  -26.2902  -12.9410   20.3207 N   0  0  0  0  0  0
  -25.9334  -11.6556   20.5721 N   0  0  0  0  0  0
  -22.0471  -12.8230   22.0457 N   0  0  0  0  0  0
  -25.4170  -15.1935   20.4215 N   0  0  0  0  0  0
  -31.7149  -14.9560   20.0048 O   0  0  0  0  0  0
  -21.6645   -6.8881   21.4239 O   0  0  0  0  0  0
  -22.3480  -14.5476   20.6668 O   0  0  0  0  0  0
  -24.6457  -31.8462   23.1897 C   0  0  0  0  0  0
  -25.9218  -32.4715   23.8288 C   0  0  1  0  0  0
  -27.1999  -27.1442   20.1371 C   0  0  0  0  0  0
  -25.5971  -33.8526   24.2203 N   0  0  0  0  0  0
  -23.4492  -30.4692   21.5353 C   0  0  2  0  0  0
  -24.8883  -28.8964   20.1068 C   0  0  0  0  0  0
  -22.7598  -29.4573   22.4860 C   0  0  0  0  0  0
  -18.0330  -28.1409   22.8490 C   0  0  0  0  0  0
  -24.1487  -36.7274   23.2641 C   0  0  0  0  0  0
  -26.0066  -30.7123   21.3907 C   0  0  0  0  0  0
  -26.0675  -29.3281   20.7275 C   0  0  0  0  0  0
  -27.2260  -28.4686   20.7278 C   0  0  0  0  0  0
  -25.9924  -26.8078   19.4831 C   0  0  0  0  0  0
  -24.8624  -27.6482   19.4701 C   0  0  0  0  0  0
  -23.6744  -29.8069   20.1504 C   0  0  0  0  0  0
  -25.4120  -36.3079   24.0327 C   0  0  1  0  0  0
  -20.5940  -28.3742   23.1212 C   0  0  2  0  0  0
  -20.6819  -26.9450   22.5383 C   0  0  0  0  0  0
  -19.5782  -26.6387   21.5212 C   0  0  0  0  0  0
  -18.1963  -26.7949   22.1621 C   0  0  0  0  0  0
  -19.1584  -28.8898   23.2843 C   0  0  0  0  0  0
  -18.9501  -30.1487   23.8880 C   0  0  0  0  0  0
  -17.6495  -30.6603   24.0580 C   0  0  0  0  0  0
  -25.9080  -34.9443   23.5081 C   0  0  0  0  0  0
  -16.5390  -29.9103   23.6335 C   0  0  0  0  0  0
  -16.7306  -28.6517   23.0355 C   0  0  0  0  0  0
  -26.4506  -31.6599   25.0750 C   0  0  0  0  0  0
  -25.3672  -31.3792   26.1434 C   0  0  0  0  0  0
  -27.0375  -30.3009   24.6326 C   0  0  0  0  0  0
  -27.6060  -32.4376   25.7504 C   0  0  0  0  0  0
  -27.5590  -37.1780   24.8468 C   0  0  0  0  0  0
  -21.4299  -29.3062   22.3589 N   0  0  0  0  0  0
  -26.4288  -37.3787   23.9433 N   0  0  0  0  0  0
  -24.7211  -31.0300   22.0931 N   0  0  0  0  0  0
  -23.4224  -28.8112   23.3023 O   0  0  0  0  0  0
  -28.2537  -26.1674   20.1906 O   0  0  0  0  0  0
  -26.5649  -34.8958   22.4652 O   0  0  0  0  0  0
  -23.5575  -32.1347   23.7101 O   0  0  0  0  0  0
  -28.8664  -19.1110   22.0907 C   0  0  0  0  0  0
  -28.9649  -19.9088   23.1738 C   0  0  0  0  0  0
  -31.2552  -21.0088   23.0045 C   0  0  0  0  0  0
  -29.8132  -18.9550   20.9393 C   0  0  2  0  0  0
  -29.7803  -20.4886   20.1851 C   0  0  1  0  0  0
  -27.8482  -19.9725   24.1984 C   0  0  0  0  0  0
  -32.3521  -21.1703   24.0082 C   0  0  0  0  0  0
  -30.1215  -21.3813   17.7112 C   0  0  0  0  0  0
  -31.0775  -16.4886   23.1604 C   0  0  0  0  0  0
  -29.7263  -17.4202   20.2365 C   0  0  0  0  0  0
  -30.0574  -20.1938   18.6874 C   0  0  0  0  0  0
  -28.6658  -21.7475   20.3563 C   0  0  0  0  0  0
  -29.0361  -23.3927   20.2391 C   0  0  0  0  0  0
  -29.7903  -16.0438   22.4425 C   0  0  0  0  0  0
  -27.9430  -24.6494   20.1449 C   0  0  0  0  0  0
  -31.6274  -21.2321   21.7084 N   0  0  0  0  0  0
  -30.9926  -21.2371   20.6236 N   0  0  0  0  0  0
  -30.0724  -20.7775   23.5082 N   0  3  0  0  0  0
  -29.9127  -16.0196   20.9689 N   0  0  0  0  0  0
  -31.0469  -18.7285   21.3844 F   0  0  0  0  0  0
  -31.4794  -12.6680   19.2162 H   0  0  0  0  0  0
  -30.4018  -11.5712   20.0015 H   0  0  0  0  0  0
  -29.8357  -11.7714   17.5552 H   0  0  0  0  0  0
  -29.6309  -13.4970   17.7321 H   0  0  0  0  0  0
  -27.9204  -11.2858   18.9238 H   0  0  0  0  0  0
  -27.3982  -12.5131   17.7975 H   0  0  0  0  0  0
  -27.6231  -14.2594   19.4531 H   0  0  0  0  0  0
  -28.7263  -12.2019   21.4194 H   0  0  0  0  0  0
  -28.3148  -13.8471   21.7773 H   0  0  0  0  0  0
  -25.2779   -9.5664   22.4739 H   0  0  0  0  0  0
  -24.0029   -7.4597   22.7437 H   0  0  0  0  0  0
  -21.0850   -8.8768   19.8945 H   0  0  0  0  0  0
  -22.3721  -10.9660   19.6158 H   0  0  0  0  0  0
  -21.2047   -7.6139   23.9739 H   0  0  0  0  0  0
  -21.1484   -6.0486   25.9072 H   0  0  0  0  0  0
  -22.0625   -2.7610   23.2798 H   0  0  0  0  0  0
  -22.4099  -11.9905   22.4866 H   0  0  0  0  0  0
  -21.1070  -13.1238   22.2625 H   0  0  0  0  0  0
  -24.6492  -15.8466   20.5293 H   0  0  0  0  0  0
  -26.2686  -15.6367   20.1006 H   0  0  0  0  0  0
  -26.7294  -32.5280   23.1022 H   0  0  0  0  0  0
  -25.0194  -33.9619   25.0400 H   0  0  0  0  0  0
  -22.7553  -31.2974   21.3831 H   0  0  0  0  0  0
  -23.3777  -35.9577   23.3300 H   0  0  0  0  0  0
  -24.3599  -36.8907   22.2063 H   0  0  0  0  0  0
  -23.7176  -37.6443   23.6672 H   0  0  0  0  0  0
  -26.1754  -31.4636   20.6182 H   0  0  0  0  0  0
  -26.8745  -30.7475   22.0370 H   0  0  0  0  0  0
  -28.1238  -28.7937   21.2347 H   0  0  0  0  0  0
  -25.8809  -25.8604   18.9816 H   0  0  0  0  0  0
  -23.9613  -27.3146   18.9714 H   0  0  0  0  0  0
  -23.8302  -30.5865   19.4041 H   0  0  0  0  0  0
  -22.7851  -29.2650   19.8257 H   0  0  0  0  0  0
  -25.1295  -36.1947   25.0813 H   0  0  0  0  0  0
  -21.0033  -28.3338   24.1324 H   0  0  0  0  0  0
  -20.5734  -26.2375   23.3604 H   0  0  0  0  0  0
  -21.6685  -26.7460   22.1169 H   0  0  0  0  0  0
  -19.6956  -25.6284   21.1271 H   0  0  0  0  0  0
  -19.6727  -27.3178   20.6723 H   0  0  0  0  0  0
  -17.4239  -26.6716   21.4008 H   0  0  0  0  0  0
  -18.0362  -26.0084   22.9013 H   0  0  0  0  0  0
  -19.7982  -30.7320   24.2229 H   0  0  0  0  0  0
  -17.5051  -31.6273   24.5204 H   0  0  0  0  0  0
  -15.5389  -30.3007   23.7650 H   0  0  0  0  0  0
  -15.8715  -28.0834   22.7051 H   0  0  0  0  0  0
  -24.5833  -30.7181   25.7718 H   0  0  0  0  0  0
  -24.8854  -32.2965   26.4831 H   0  0  0  0  0  0
  -25.7901  -30.8949   27.0238 H   0  0  0  0  0  0
  -26.2976  -29.6733   24.1327 H   0  0  0  0  0  0
  -27.4014  -29.7336   25.4892 H   0  0  0  0  0  0
  -27.8914  -30.4311   23.9675 H   0  0  0  0  0  0
  -27.2669  -33.3698   26.2057 H   0  0  0  0  0  0
  -28.3842  -32.6887   25.0285 H   0  0  0  0  0  0
  -28.0774  -31.8515   26.5402 H   0  0  0  0  0  0
  -28.2584  -38.0098   24.7561 H   0  0  0  0  0  0
  -28.1101  -36.2621   24.6245 H   0  0  0  0  0  0
  -27.2332  -37.1413   25.8875 H   0  0  0  0  0  0
  -20.9533  -29.8817   21.6792 H   0  0  0  0  0  0
  -26.0188  -38.2877   24.1404 H   0  0  0  0  0  0
  -27.9522  -18.5474   21.9715 H   0  0  0  0  0  0
  -27.4889  -18.9721   24.4430 H   0  0  0  0  0  0
  -27.0136  -20.5435   23.7929 H   0  0  0  0  0  0
  -28.1564  -20.4498   25.1293 H   0  0  0  0  0  0
  -32.9124  -22.0825   23.8021 H   0  0  0  0  0  0
  -33.0416  -20.3296   23.9273 H   0  0  0  0  0  0
  -31.9819  -21.2195   25.0346 H   0  0  0  0  0  0
  -30.9350  -22.0658   17.9489 H   0  0  0  0  0  0
  -29.1907  -21.9473   17.6844 H   0  0  0  0  0  0
  -30.3010  -21.0183   16.6992 H   0  0  0  0  0  0
  -31.3003  -15.8159   23.9909 H   0  0  0  0  0  0
  -30.9716  -17.4883   23.5795 H   0  0  0  0  0  0
  -31.9471  -16.4877   22.5002 H   0  0  0  0  0  0
  -28.7660  -17.3494   19.7238 H   0  0  0  0  0  0
  -30.4603  -17.4111   19.4313 H   0  0  0  0  0  0
  -29.2782  -19.5231   18.3247 H   0  0  0  0  0  0
  -30.9913  -19.6334   18.6070 H   0  0  0  0  0  0
  -28.1869  -21.6349   21.3268 H   0  0  0  0  0  0
  -27.8559  -21.5453   19.6526 H   0  0  0  0  0  0
  -29.6764  -23.6235   21.0897 H   0  0  0  0  0  0
  -29.6899  -23.5239   19.3783 H   0  0  0  0  0  0
  -28.9246  -16.6085   22.7800 H   0  0  0  0  0  0
  -29.6060  -15.0419   22.8279 H   0  0  0  0  0  0
  -27.2001  -24.4708   20.9234 H   0  0  0  0  0  0
  -27.4293  -24.4637   19.2029 H   0  0  0  0  0  0
  -29.9631  -21.1787   24.4326 H   0  0  0  0  0  0
  1 25  1  0  0  0
  1 30  2  0  0  0
  1 89  1  0  0  0
  2  3  1  0  0  0
  2 25  1  0  0  0
  2 91  1  0  0  0
  2 92  1  0  0  0
  3  4  1  0  0  0
  3 93  1  0  0  0
  3 94  1  0  0  0
  4  5  1  0  0  0
  4 95  1  0  0  0
  4 96  1  0  0  0
  5  6  1  0  0  0
  5 26  1  0  0  0
  5 97  1  0  0  0
  6 25  1  0  0  0
  6 98  1  0  0  0
  6 99  1  0  0  0
  7  8  2  0  0  0
  7 26  1  0  0  0
  7 29  1  0  0  0
  8  9  1  0  0  0
  8 22  1  0  0  0
  9 10  1  0  0  0
  9 27  2  0  0  0
 10 11  2  0  0  0
 10 15  1  0  0  0
 11 12  1  0  0  0
 11100  1  0  0  0
 12 13  2  0  0  0
 12101  1  0  0  0
 13 14  1  0  0  0
 13 31  1  0  0  0
 14 15  2  0  0  0
 14102  1  0  0  0
 15103  1  0  0  0
 16 17  2  0  0  0
 16 21  1  0  0  0
 16 31  1  0  0  0
 17 18  1  0  0  0
 17104  1  0  0  0
 18 19  2  0  0  0
 18105  1  0  0  0
 19 20  1  0  0  0
 19 24  1  0  0  0
 20 21  2  0  0  0
 20106  1  0  0  0
 21 23  1  0  0  0
 22 28  1  0  0  0
 22 32  2  0  0  0
 26 27  1  0  0  0
 28107  1  0  0  0
 28108  1  0  0  0
 29109  1  0  0  0
 29110  1  0  0  0
 33 34  1  0  0  0
 33 66  1  0  0  0
 33 70  2  0  0  0
 34 36  1  0  0  0
 34 59  1  0  0  0
 34111  1  0  0  0
 35 44  2  0  0  0
 35 45  1  0  0  0
 35 68  1  0  0  0
 36 56  1  0  0  0
 36112  1  0  0  0
 37 39  1  0  0  0
 37 47  1  0  0  0
 37 66  1  0  0  0
 37113  1  0  0  0
 38 43  2  0  0  0
 38 46  1  0  0  0
 38 47  1  0  0  0
 39 64  1  0  0  0
 39 67  2  0  0  0
 40 52  1  0  0  0
 40 53  2  0  0  0
 40 58  1  0  0  0
 41114  1  0  0  0
 41115  1  0  0  0
 41116  1  0  0  0
 41 48  1  0  0  0
 42 43  1  0  0  0
 42 66  1  0  0  0
 42117  1  0  0  0
 42118  1  0  0  0
 43 44  1  0  0  0
 44119  1  0  0  0
 45 46  2  0  0  0
 45120  1  0  0  0
 46121  1  0  0  0
 47122  1  0  0  0
 47123  1  0  0  0
 48 56  1  0  0  0
 48 65  1  0  0  0
 48124  1  0  0  0
 49 50  1  0  0  0
 49 53  1  0  0  0
 49 64  1  0  0  0
 49125  1  0  0  0
 50 51  1  0  0  0
 50126  1  0  0  0
 50127  1  0  0  0
 51 52  1  0  0  0
 51128  1  0  0  0
 51129  1  0  0  0
 52130  1  0  0  0
 52131  1  0  0  0
 53 54  1  0  0  0
 54 55  2  0  0  0
 54132  1  0  0  0
 55 57  1  0  0  0
 55133  1  0  0  0
 56 69  2  0  0  0
 57 58  2  0  0  0
 57134  1  0  0  0
 58135  1  0  0  0
 59 60  1  0  0  0
 59 61  1  0  0  0
 59 62  1  0  0  0
 60136  1  0  0  0
 60137  1  0  0  0
 60138  1  0  0  0
 61139  1  0  0  0
 61140  1  0  0  0
 61141  1  0  0  0
 62142  1  0  0  0
 62143  1  0  0  0
 62144  1  0  0  0
 63 65  1  0  0  0
 63145  1  0  0  0
 63146  1  0  0  0
 63147  1  0  0  0
 64148  1  0  0  0
 65149  1  0  0  0
 68 85  1  0  0  0
 71 72  2  0  0  0
 71 74  1  0  0  0
 71150  1  0  0  0
 72 76  1  0  0  0
 72 88  1  0  0  0
 73 77  1  0  0  0
 73 86  1  0  0  0
 73 88  2  0  0  0
 74 75  1  0  0  0
 74 80  1  0  0  0
 74 90  1  0  0  0
 75 81  1  0  0  0
 75 82  1  0  0  0
 75 87  1  0  0  0
 76151  1  0  0  0
 76152  1  0  0  0
 76153  1  0  0  0
 77154  1  0  0  0
 77155  1  0  0  0
 77156  1  0  0  0
 78 81  1  0  0  0
 78157  1  0  0  0
 78158  1  0  0  0
 78159  1  0  0  0
 79 84  1  0  0  0
 79160  1  0  0  0
 79161  1  0  0  0
 79162  1  0  0  0
 80 89  1  0  0  0
 80163  1  0  0  0
 80164  1  0  0  0
 81165  1  0  0  0
 81166  1  0  0  0
 82 83  1  0  0  0
 82167  1  0  0  0
 82168  1  0  0  0
 83 85  1  0  0  0
 83169  1  0  0  0
 83170  1  0  0  0
 84 89  1  0  0  0
 84171  1  0  0  0
 84172  1  0  0  0
 85173  1  0  0  0
 85174  1  0  0  0
 86 87  2  0  0  0
 88175  1  0  0  0
M  CHG  1  88   1
M  ISO  4   1 100  68 101  85 101  89 100
M  END
> <chiral flag>
0

> <version>
0

> <s_m_source_file>
/data/baiqing/PycharmProjects/Reinvent-master-3.2/result/LINK_invent/BTK/process_docking_weight1_custom_sum_contain_oxygen_bond_distance_aromatic_linkinvent_7_9_3/rearranged_h_0052.sdf

> <i_m_source_file_index>
64

> <r_mmod_Potential_Energy-OPLS-2005>
760.538269042969

> <r_mmod_Stretch_Energy-OPLS-2005>
282.720977783203

> <r_mmod_Bend_Energy-OPLS-2005>
435.928649902344

> <r_mmod_Torsional_Energy-OPLS-2005>
385.229705810547

> <r_mmod_Improper_Torsional_Energy-OPLS-2005>
4.97041702270508

> <r_mmod_Van_der_Waal_Energy-OPLS-2005>
145.643569946289

> <r_mmod_Electrostatic_Energy-OPLS-2005>
-207.499816894531

> <r_mmod_Solvation_Energy-OPLS-2005>
-442.596282958984

> <b_mmod_Minimization_Converged-OPLS-2005>
0

> <r_mmod_RMS_Derivative-OPLS-2005>
4.44618511199951

$$$$
64
                    3D
 Structure written by MMmdl.
170178  0  0  1  0            999 V2000
  -31.0957  -14.1591   20.1540 C   0  0  0  0  0  0
  -30.2821  -12.0365   19.3126 C   0  0  0  0  0  0
  -29.3944  -12.3616   18.1121 C   0  0  0  0  0  0
  -27.9421  -12.3686   18.5912 C   0  0  0  0  0  0
  -27.6937  -13.2308   19.8636 C   0  0  2  0  0  0
  -28.8457  -13.1164   20.9272 C   0  0  0  0  0  0
  -25.2802  -13.8250   20.5852 C   0  0  0  0  0  0
  -24.2013  -13.0494   20.9247 C   0  0  0  0  0  0
  -24.6584  -11.6976   20.8845 C   0  0  0  0  0  0
  -23.9193  -10.4331   21.0417 C   0  0  0  0  0  0
  -24.3682   -9.4222   21.9196 C   0  0  0  0  0  0
  -23.6323   -8.2276   22.0767 C   0  0  0  0  0  0
  -22.4313   -8.0325   21.3549 C   0  0  0  0  0  0
  -21.9982   -9.0324   20.4654 C   0  0  0  0  0  0
  -22.7356  -10.2186   20.3065 C   0  0  0  0  0  0
  -21.6869   -6.0751   22.5263 C   0  0  0  0  0  0
  -21.4035   -6.5650   23.8200 C   0  0  0  0  0  0
  -21.3663   -5.6802   24.9162 C   0  0  0  0  0  0
  -21.6035   -4.3066   24.7214 C   0  0  0  0  0  0
  -21.8818   -3.8160   23.4337 C   0  0  0  0  0  0
  -21.9201   -4.6975   22.3389 C   0  0  0  0  0  0
  -22.7984  -13.5258   21.1783 C   0  0  0  0  0  0
  -22.1664   -4.2160   21.0961 F   0  0  0  0  0  0
  -21.5622   -3.4540   25.7718 F   0  0  0  0  0  0
  -30.1578  -13.1651   20.2260 N   0  0  0  0  0  0
  -26.3402  -12.9516   20.3791 N   0  0  0  0  0  0
  -25.9600  -11.6640   20.6115 N   0  0  0  0  0  0
  -22.0580  -12.8249   22.0310 N   0  0  0  0  0  0
  -25.4406  -15.1955   20.4137 N   0  0  0  0  0  0
  -31.3377  -15.0137   20.9639 O   0  0  0  0  0  0
  -21.6666   -6.8920   21.4238 O   0  0  0  0  0  0
  -22.3657  -14.5543   20.6607 O   0  0  0  0  0  0
  -24.6115  -31.8710   23.2156 C   0  0  0  0  0  0
  -25.9034  -32.4838   23.8437 C   0  0  1  0  0  0
  -27.2305  -27.4492   20.0651 C   0  0  0  0  0  0
  -25.5876  -33.8633   24.2347 N   0  0  0  0  0  0
  -23.3980  -30.4999   21.5567 C   0  0  2  0  0  0
  -24.8403  -28.9732   20.1154 C   0  0  0  0  0  0
  -22.7379  -29.4699   22.4997 C   0  0  0  0  0  0
  -18.0263  -28.1345   22.8470 C   0  0  0  0  0  0
  -24.1483  -36.7318   23.2639 C   0  0  0  0  0  0
  -25.9302  -30.8300   21.3810 C   0  0  0  0  0  0
  -26.0021  -29.4704   20.7185 C   0  0  0  0  0  0
  -27.1944  -28.7097   20.7066 C   0  0  0  0  0  0
  -26.0398  -26.9686   19.4622 C   0  0  0  0  0  0
  -24.8520  -27.7174   19.4931 C   0  0  0  0  0  0
  -23.6039  -29.8416   20.1680 C   0  0  0  0  0  0
  -25.4109  -36.3132   24.0329 C   0  0  1  0  0  0
  -20.5857  -28.3649   23.1276 C   0  0  2  0  0  0
  -20.6765  -26.9382   22.5386 C   0  0  0  0  0  0
  -19.5751  -26.6363   21.5159 C   0  0  0  0  0  0
  -18.1923  -26.7895   22.1580 C   0  0  0  0  0  0
  -19.1514  -28.8803   23.2882 C   0  0  0  0  0  0
  -18.9459  -30.1410   23.8907 C   0  0  0  0  0  0
  -17.6469  -30.6571   24.0542 C   0  0  0  0  0  0
  -25.9027  -34.9488   23.5143 C   0  0  0  0  0  0
  -16.5350  -29.9070   23.6315 C   0  0  0  0  0  0
  -16.7257  -28.6468   23.0356 C   0  0  0  0  0  0
  -26.4467  -31.6636   25.0780 C   0  0  0  0  0  0
  -25.3719  -31.3746   26.1516 C   0  0  0  0  0  0
  -27.0343  -30.3073   24.6219 C   0  0  0  0  0  0
  -27.6023  -32.4404   25.7522 C   0  0  0  0  0  0
  -27.5603  -37.1814   24.8453 C   0  0  0  0  0  0
  -21.4105  -29.3042   22.3697 N   0  0  0  0  0  0
  -26.4306  -37.3808   23.9401 N   0  0  0  0  0  0
  -24.6632  -31.0818   22.1075 N   0  0  0  0  0  0
  -23.4159  -28.8214   23.3023 O   0  0  0  0  0  0
  -28.4155  -26.7370   20.0629 O   0  0  0  0  0  0
  -26.5603  -34.8933   22.4715 O   0  0  0  0  0  0
  -23.5307  -32.1479   23.7543 O   0  0  0  0  0  0
  -29.9056  -24.0909   20.6785 C   0  0  0  0  0  0
  -30.5649  -24.3927   18.3745 C   0  0  0  0  0  0
  -29.7068  -24.7193   19.4379 C   0  0  0  0  0  0
  -30.9092  -23.1056   20.7884 C   0  0  0  0  0  0
  -31.6869  -22.8032   19.6461 C   0  0  0  0  0  0
  -31.0903  -22.3735   22.1084 C   0  0  0  0  0  0
  -33.0851  -13.6478   18.8300 C   0  0  0  0  0  0
  -34.1254  -19.3464   18.2556 C   0  0  0  0  0  0
  -28.4904  -25.5929   19.2072 C   0  0  0  0  0  0
  -32.6592  -21.6322   19.5978 C   0  0  0  0  0  0
  -32.5628  -16.6477   18.5570 C   0  0  0  0  0  0
  -31.6009  -15.4929   18.1624 C   0  0  0  0  0  0
  -31.9815  -20.4096   18.9358 C   0  0  0  0  0  0
  -32.0044  -18.0559   18.2516 C   0  0  0  0  0  0
  -31.5339  -23.4576   18.4755 N   0  0  0  0  0  0
  -31.7639  -14.2729   18.9766 N   0  0  0  0  0  0
  -32.7905  -19.1588   18.8770 N   0  3  1  0  0  0
  -31.2951  -11.7947   18.9976 H   0  0  0  0  0  0
  -29.9373  -11.1227   19.7998 H   0  0  0  0  0  0
  -29.5200  -11.6024   17.3393 H   0  0  0  0  0  0
  -29.6497  -13.3151   17.6495 H   0  0  0  0  0  0
  -27.6733  -11.3289   18.7827 H   0  0  0  0  0  0
  -27.2830  -12.6953   17.7862 H   0  0  0  0  0  0
  -27.7068  -14.2661   19.5216 H   0  0  0  0  0  0
  -28.7659  -12.1825   21.4864 H   0  0  0  0  0  0
  -28.7744  -13.9252   21.6560 H   0  0  0  0  0  0
  -25.2810   -9.5672   22.4807 H   0  0  0  0  0  0
  -24.0005   -7.4662   22.7510 H   0  0  0  0  0  0
  -21.0912   -8.8878   19.8951 H   0  0  0  0  0  0
  -22.3833  -10.9737   19.6186 H   0  0  0  0  0  0
  -21.2042   -7.6160   23.9710 H   0  0  0  0  0  0
  -21.1477   -6.0527   25.9064 H   0  0  0  0  0  0
  -22.0591   -2.7626   23.2827 H   0  0  0  0  0  0
  -22.4183  -11.9919   22.4731 H   0  0  0  0  0  0
  -21.1180  -13.1265   22.2432 H   0  0  0  0  0  0
  -24.6706  -15.8484   20.5161 H   0  0  0  0  0  0
  -26.3069  -15.6426   20.1398 H   0  0  0  0  0  0
  -26.7113  -32.5540   23.1205 H   0  0  0  0  0  0
  -25.0008  -33.9796   25.0481 H   0  0  0  0  0  0
  -22.6870  -31.3171   21.4262 H   0  0  0  0  0  0
  -23.3766  -35.9642   23.3295 H   0  0  0  0  0  0
  -24.3569  -36.8935   22.2059 H   0  0  0  0  0  0
  -23.7227  -37.6505   23.6675 H   0  0  0  0  0  0
  -26.0712  -31.6078   20.6286 H   0  0  0  0  0  0
  -26.8040  -30.8585   22.0193 H   0  0  0  0  0  0
  -28.0894  -29.0868   21.1823 H   0  0  0  0  0  0
  -25.9775  -26.0243   18.9479 H   0  0  0  0  0  0
  -23.9575  -27.3265   19.0267 H   0  0  0  0  0  0
  -23.7150  -30.6240   19.4152 H   0  0  0  0  0  0
  -22.7244  -29.2673   19.8738 H   0  0  0  0  0  0
  -25.1310  -36.1996   25.0826 H   0  0  0  0  0  0
  -20.9956  -28.3245   24.1389 H   0  0  0  0  0  0
  -20.5632  -26.2268   23.3596 H   0  0  0  0  0  0
  -21.6658  -26.7417   22.1227 H   0  0  0  0  0  0
  -19.6933  -25.6265   21.1208 H   0  0  0  0  0  0
  -19.6710  -27.3159   20.6672 H   0  0  0  0  0  0
  -17.4209  -26.6609   21.3974 H   0  0  0  0  0  0
  -18.0338  -26.0015   22.8956 H   0  0  0  0  0  0
  -19.7951  -30.7174   24.2311 H   0  0  0  0  0  0
  -17.5052  -31.6258   24.5148 H   0  0  0  0  0  0
  -15.5363  -30.2999   23.7641 H   0  0  0  0  0  0
  -15.8633  -28.0794   22.7103 H   0  0  0  0  0  0
  -24.5870  -30.7125   25.7846 H   0  0  0  0  0  0
  -24.8933  -32.2903   26.5005 H   0  0  0  0  0  0
  -25.8038  -30.8888   27.0269 H   0  0  0  0  0  0
  -26.2938  -29.6781   24.1266 H   0  0  0  0  0  0
  -27.4076  -29.7369   25.4738 H   0  0  0  0  0  0
  -27.8790  -30.4393   23.9447 H   0  0  0  0  0  0
  -27.2630  -33.3699   26.2115 H   0  0  0  0  0  0
  -28.3798  -32.6972   25.0317 H   0  0  0  0  0  0
  -28.0752  -31.8546   26.5416 H   0  0  0  0  0  0
  -28.2602  -38.0136   24.7560 H   0  0  0  0  0  0
  -28.1119  -36.2662   24.6230 H   0  0  0  0  0  0
  -27.2313  -37.1401   25.8851 H   0  0  0  0  0  0
  -20.9248  -29.8799   21.6962 H   0  0  0  0  0  0
  -26.0193  -38.2883   24.1414 H   0  0  0  0  0  0
  -29.2564  -24.3185   21.5122 H   0  0  0  0  0  0
  -30.4366  -24.8381   17.4002 H   0  0  0  0  0  0
  -30.3248  -22.6605   22.8295 H   0  0  0  0  0  0
  -32.0580  -22.6167   22.5473 H   0  0  0  0  0  0
  -31.0257  -21.2930   21.9751 H   0  0  0  0  0  0
  -33.2248  -13.2726   17.8155 H   0  0  0  0  0  0
  -33.2238  -12.8086   19.5153 H   0  0  0  0  0  0
  -33.8865  -14.3564   19.0435 H   0  0  0  0  0  0
  -34.7369  -20.0398   18.8312 H   0  0  0  0  0  0
  -34.0412  -19.7350   17.2417 H   0  0  0  0  0  0
  -34.6889  -18.4148   18.2124 H   0  0  0  0  0  0
  -27.6550  -24.9146   19.3773 H   0  0  0  0  0  0
  -28.4499  -25.9154   18.1640 H   0  0  0  0  0  0
  -33.0203  -21.3856   20.5962 H   0  0  0  0  0  0
  -33.5321  -21.9477   19.0280 H   0  0  0  0  0  0
  -33.5044  -16.5026   18.0278 H   0  0  0  0  0  0
  -32.8036  -16.5966   19.6179 H   0  0  0  0  0  0
  -31.7291  -15.2426   17.1074 H   0  0  0  0  0  0
  -30.5651  -15.8266   18.2562 H   0  0  0  0  0  0
  -31.6678  -20.6776   17.9249 H   0  0  0  0  0  0
  -31.0668  -20.2024   19.4925 H   0  0  0  0  0  0
  -30.9886  -18.0990   18.6462 H   0  0  0  0  0  0
  -31.9161  -18.2163   17.1759 H   0  0  0  0  0  0
  -32.9550  -18.8806   19.8343 H   0  0  0  0  0  0
  1 25  1  0  0  0
  1 30  2  0  0  0
  1 86  1  0  0  0
  2  3  1  0  0  0
  2 25  1  0  0  0
  2 88  1  0  0  0
  2 89  1  0  0  0
  3  4  1  0  0  0
  3 90  1  0  0  0
  3 91  1  0  0  0
  4  5  1  0  0  0
  4 92  1  0  0  0
  4 93  1  0  0  0
  5  6  1  0  0  0
  5 26  1  0  0  0
  5 94  1  0  0  0
  6 25  1  0  0  0
  6 95  1  0  0  0
  6 96  1  0  0  0
  7  8  2  0  0  0
  7 26  1  0  0  0
  7 29  1  0  0  0
  8  9  1  0  0  0
  8 22  1  0  0  0
  9 10  1  0  0  0
  9 27  2  0  0  0
 10 11  2  0  0  0
 10 15  1  0  0  0
 11 12  1  0  0  0
 11 97  1  0  0  0
 12 13  2  0  0  0
 12 98  1  0  0  0
 13 14  1  0  0  0
 13 31  1  0  0  0
 14 15  2  0  0  0
 14 99  1  0  0  0
 15100  1  0  0  0
 16 17  2  0  0  0
 16 21  1  0  0  0
 16 31  1  0  0  0
 17 18  1  0  0  0
 17101  1  0  0  0
 18 19  2  0  0  0
 18102  1  0  0  0
 19 20  1  0  0  0
 19 24  1  0  0  0
 20 21  2  0  0  0
 20103  1  0  0  0
 21 23  1  0  0  0
 22 28  1  0  0  0
 22 32  2  0  0  0
 26 27  1  0  0  0
 28104  1  0  0  0
 28105  1  0  0  0
 29106  1  0  0  0
 29107  1  0  0  0
 33 34  1  0  0  0
 33 66  1  0  0  0
 33 70  2  0  0  0
 34 36  1  0  0  0
 34 59  1  0  0  0
 34108  1  0  0  0
 35 44  2  0  0  0
 35 45  1  0  0  0
 35 68  1  0  0  0
 36 56  1  0  0  0
 36109  1  0  0  0
 37 39  1  0  0  0
 37 47  1  0  0  0
 37 66  1  0  0  0
 37110  1  0  0  0
 38 43  2  0  0  0
 38 46  1  0  0  0
 38 47  1  0  0  0
 39 64  1  0  0  0
 39 67  2  0  0  0
 40 52  1  0  0  0
 40 53  2  0  0  0
 40 58  1  0  0  0
 41111  1  0  0  0
 41112  1  0  0  0
 41113  1  0  0  0
 41 48  1  0  0  0
 42 43  1  0  0  0
 42 66  1  0  0  0
 42114  1  0  0  0
 42115  1  0  0  0
 43 44  1  0  0  0
 44116  1  0  0  0
 45 46  2  0  0  0
 45117  1  0  0  0
 46118  1  0  0  0
 47119  1  0  0  0
 47120  1  0  0  0
 48 56  1  0  0  0
 48 65  1  0  0  0
 48121  1  0  0  0
 49 50  1  0  0  0
 49 53  1  0  0  0
 49 64  1  0  0  0
 49122  1  0  0  0
 50 51  1  0  0  0
 50123  1  0  0  0
 50124  1  0  0  0
 51 52  1  0  0  0
 51125  1  0  0  0
 51126  1  0  0  0
 52127  1  0  0  0
 52128  1  0  0  0
 53 54  1  0  0  0
 54 55  2  0  0  0
 54129  1  0  0  0
 55 57  1  0  0  0
 55130  1  0  0  0
 56 69  2  0  0  0
 57 58  2  0  0  0
 57131  1  0  0  0
 58132  1  0  0  0
 59 60  1  0  0  0
 59 61  1  0  0  0
 59 62  1  0  0  0
 60133  1  0  0  0
 60134  1  0  0  0
 60135  1  0  0  0
 61136  1  0  0  0
 61137  1  0  0  0
 61138  1  0  0  0
 62139  1  0  0  0
 62140  1  0  0  0
 62141  1  0  0  0
 63 65  1  0  0  0
 63142  1  0  0  0
 63143  1  0  0  0
 63144  1  0  0  0
 64145  1  0  0  0
 65146  1  0  0  0
 68 79  1  0  0  0
 71 73  2  0  0  0
 71 74  1  0  0  0
 71147  1  0  0  0
 72 73  1  0  0  0
 72 85  2  0  0  0
 72148  1  0  0  0
 73 79  1  0  0  0
 74 75  2  0  0  0
 74 76  1  0  0  0
 75 80  1  0  0  0
 75 85  1  0  0  0
 76149  1  0  0  0
 76150  1  0  0  0
 76151  1  0  0  0
 77 86  1  0  0  0
 77152  1  0  0  0
 77153  1  0  0  0
 77154  1  0  0  0
 78155  1  0  0  0
 78156  1  0  0  0
 78157  1  0  0  0
 78 87  1  0  0  0
 79158  1  0  0  0
 79159  1  0  0  0
 80 83  1  0  0  0
 80160  1  0  0  0
 80161  1  0  0  0
 81 82  1  0  0  0
 81 84  1  0  0  0
 81162  1  0  0  0
 81163  1  0  0  0
 82 86  1  0  0  0
 82164  1  0  0  0
 82165  1  0  0  0
 83 87  1  0  0  0
 83166  1  0  0  0
 83167  1  0  0  0
 84 87  1  0  0  0
 84168  1  0  0  0
 84169  1  0  0  0
 87170  1  0  0  0
M  CHG  1  87   1
M  ISO  4   1 100  68 101  79 101  86 100
M  END
> <chiral flag>
0

> <version>
0

> <s_m_source_file>
/data/baiqing/PycharmProjects/Reinvent-master-3.2/result/LINK_invent/BTK/process_docking_weight1_custom_sum_contain_oxygen_bond_distance_aromatic_linkinvent_7_9_3/rearranged_h_0052.sdf

> <i_m_source_file_index>
65

> <r_mmod_Potential_Energy-OPLS-2005>
89.9352722167969

> <r_mmod_Stretch_Energy-OPLS-2005>
44.2177658081055

> <r_mmod_Bend_Energy-OPLS-2005>
122.603729248047

> <r_mmod_Torsional_Energy-OPLS-2005>
307.842010498047

> <r_mmod_Improper_Torsional_Energy-OPLS-2005>
5.98056077957153

> <r_mmod_Van_der_Waal_Energy-OPLS-2005>
180.170150756836

> <r_mmod_Electrostatic_Energy-OPLS-2005>
-331.471984863281

> <r_mmod_Solvation_Energy-OPLS-2005>
-429.805694580078

> <b_mmod_Minimization_Converged-OPLS-2005>
0

> <r_mmod_RMS_Derivative-OPLS-2005>
2.89007687568665

$$$$
65
                    3D
 Structure written by MMmdl.
163171  0  0  1  0            999 V2000
  -30.6525  -14.6264   20.5809 C   0  0  0  0  0  0
  -30.4323  -12.4091   19.4560 C   0  0  0  0  0  0
  -29.5049  -12.5322   18.2256 C   0  0  0  0  0  0
  -28.0257  -12.3709   18.6255 C   0  0  0  0  0  0
  -27.6527  -13.2187   19.8687 C   0  0  2  0  0  0
  -28.6895  -13.0380   20.9943 C   0  0  0  0  0  0
  -25.2542  -13.8170   20.5676 C   0  0  0  0  0  0
  -24.1808  -13.0420   20.9172 C   0  0  0  0  0  0
  -24.6379  -11.6908   20.8709 C   0  0  0  0  0  0
  -23.9046  -10.4288   21.0381 C   0  0  0  0  0  0
  -24.3603   -9.4219   21.9177 C   0  0  0  0  0  0
  -23.6282   -8.2249   22.0754 C   0  0  0  0  0  0
  -22.4270   -8.0280   21.3538 C   0  0  0  0  0  0
  -21.9897   -9.0243   20.4640 C   0  0  0  0  0  0
  -22.7215  -10.2128   20.3043 C   0  0  0  0  0  0
  -21.6856   -6.0722   22.5265 C   0  0  0  0  0  0
  -21.4018   -6.5623   23.8199 C   0  0  0  0  0  0
  -21.3664   -5.6783   24.9159 C   0  0  0  0  0  0
  -21.6046   -4.3046   24.7218 C   0  0  0  0  0  0
  -21.8823   -3.8135   23.4336 C   0  0  0  0  0  0
  -21.9196   -4.6944   22.3392 C   0  0  0  0  0  0
  -22.7840  -13.5224   21.1843 C   0  0  0  0  0  0
  -22.1665   -4.2134   21.0968 F   0  0  0  0  0  0
  -21.5632   -3.4531   25.7725 F   0  0  0  0  0  0
  -30.0093  -13.4148   20.4559 N   0  0  0  0  0  0
  -26.2972  -12.9358   20.3309 N   0  0  0  0  0  0
  -25.9311  -11.6511   20.5727 N   0  0  0  0  0  0
  -22.0492  -12.8209   22.0402 N   0  0  0  0  0  0
  -25.4249  -15.1896   20.4135 N   0  0  0  0  0  0
  -31.7532  -14.8053   20.0469 O   0  0  0  0  0  0
  -21.6644   -6.8866   21.4234 O   0  0  0  0  0  0
  -22.3527  -14.5541   20.6716 O   0  0  0  0  0  0
  -24.6252  -31.8593   23.2005 C   0  0  0  0  0  0
  -25.9099  -32.4781   23.8332 C   0  0  1  0  0  0
  -27.2380  -27.3249   20.1075 C   0  0  0  0  0  0
  -25.5912  -33.8576   24.2262 N   0  0  0  0  0  0
  -23.4186  -30.4797   21.5432 C   0  0  2  0  0  0
  -24.8663  -28.9256   20.1154 C   0  0  0  0  0  0
  -22.7463  -29.4609   22.4940 C   0  0  0  0  0  0
  -18.0281  -28.1382   22.8482 C   0  0  0  0  0  0
  -24.1480  -36.7279   23.2636 C   0  0  0  0  0  0
  -25.9582  -30.7899   21.3706 C   0  0  0  0  0  0
  -26.0329  -29.4154   20.7134 C   0  0  0  0  0  0
  -27.2164  -28.6243   20.6990 C   0  0  0  0  0  0
  -26.0431  -26.8725   19.5038 C   0  0  0  0  0  0
  -24.8714  -27.6588   19.5060 C   0  0  0  0  0  0
  -23.6356  -29.8082   20.1609 C   0  0  0  0  0  0
  -25.4108  -36.3070   24.0327 C   0  0  1  0  0  0
  -20.5877  -28.3677   23.1285 C   0  0  2  0  0  0
  -20.6766  -26.9406   22.5403 C   0  0  0  0  0  0
  -19.5743  -26.6385   21.5202 C   0  0  0  0  0  0
  -18.1917  -26.7921   22.1619 C   0  0  0  0  0  0
  -19.1535  -28.8845   23.2871 C   0  0  0  0  0  0
  -18.9465  -30.1448   23.8887 C   0  0  0  0  0  0
  -17.6475  -30.6589   24.0566 C   0  0  0  0  0  0
  -25.9044  -34.9447   23.5095 C   0  0  0  0  0  0
  -16.5358  -29.9092   23.6337 C   0  0  0  0  0  0
  -16.7269  -28.6514   23.0347 C   0  0  0  0  0  0
  -26.4488  -31.6607   25.0715 C   0  0  0  0  0  0
  -25.3716  -31.3753   26.1446 C   0  0  0  0  0  0
  -27.0362  -30.3033   24.6179 C   0  0  0  0  0  0
  -27.6017  -32.4372   25.7507 C   0  0  0  0  0  0
  -27.5576  -37.1789   24.8463 C   0  0  0  0  0  0
  -21.4173  -29.3057   22.3701 N   0  0  0  0  0  0
  -26.4287  -37.3776   23.9417 N   0  0  0  0  0  0
  -24.6861  -31.0595   22.0957 N   0  0  0  0  0  0
  -23.4189  -28.8148   23.3015 O   0  0  0  0  0  0
  -28.4103  -26.5568   20.1398 O   0  0  0  0  0  0
  -26.5622  -34.8927   22.4667 O   0  0  0  0  0  0
  -23.5420  -32.1409   23.7336 O   0  0  0  0  0  0
  -30.4390  -20.8589   20.5315 C   0  0  0  0  0  0
  -29.5214  -19.8129   20.8419 C   0  0  0  0  0  0
  -27.8360  -21.4607   20.8862 C   0  0  0  0  0  0
  -28.7711  -22.5266   20.6682 C   0  0  0  0  0  0
  -26.0645  -22.0110   22.6242 C   0  0  0  0  0  0
  -29.1895  -24.5543   22.1685 C   0  0  0  0  0  0
  -29.7128  -15.6785   22.5696 C   0  0  0  0  0  0
  -29.9745  -18.3849   21.3375 C   0  0  0  0  0  0
  -26.3589  -21.7082   21.1484 C   0  0  0  0  0  0
  -29.7916  -17.0597   20.4603 C   0  0  0  0  0  0
  -28.5010  -25.1254   19.7616 C   0  0  0  0  0  0
  -28.4249  -24.0560   20.9302 C   0  0  1  0  0  0
  -30.0757  -22.1821   20.4454 N   0  0  0  0  0  0
  -28.2072  -20.1419   20.9757 N   0  0  0  0  0  0
  -29.9581  -15.6938   21.1216 N   0  0  0  0  0  0
  -31.4720  -12.5384   19.1534 H   0  0  0  0  0  0
  -30.3744  -11.4065   19.8813 H   0  0  0  0  0  0
  -29.7718  -11.7868   17.4756 H   0  0  0  0  0  0
  -29.6518  -13.5049   17.7521 H   0  0  0  0  0  0
  -27.8486  -11.3147   18.8301 H   0  0  0  0  0  0
  -27.3775  -12.6305   17.7874 H   0  0  0  0  0  0
  -27.6819  -14.2640   19.5616 H   0  0  0  0  0  0
  -28.7041  -12.0013   21.3340 H   0  0  0  0  0  0
  -28.3863  -13.6160   21.8637 H   0  0  0  0  0  0
  -25.2746   -9.5700   22.4755 H   0  0  0  0  0  0
  -23.9985   -7.4648   22.7483 H   0  0  0  0  0  0
  -21.0830   -8.8759   19.8947 H   0  0  0  0  0  0
  -22.3671  -10.9662   19.6154 H   0  0  0  0  0  0
  -21.2019   -7.6135   23.9695 H   0  0  0  0  0  0
  -21.1486   -6.0510   25.9062 H   0  0  0  0  0  0
  -22.0604   -2.7595   23.2837 H   0  0  0  0  0  0
  -22.4120  -11.9858   22.4745 H   0  0  0  0  0  0
  -21.1125  -13.1257   22.2646 H   0  0  0  0  0  0
  -24.6628  -15.8470   20.5426 H   0  0  0  0  0  0
  -26.2862  -15.6337   20.1202 H   0  0  0  0  0  0
  -26.7168  -32.5459   23.1080 H   0  0  0  0  0  0
  -25.0056  -33.9704   25.0405 H   0  0  0  0  0  0
  -22.7135  -31.3007   21.3959 H   0  0  0  0  0  0
  -23.3756  -35.9596   23.3300 H   0  0  0  0  0  0
  -24.3542  -36.8903   22.2046 H   0  0  0  0  0  0
  -23.7242  -37.6474   23.6679 H   0  0  0  0  0  0
  -26.0875  -31.5578   20.6072 H   0  0  0  0  0  0
  -26.8368  -30.8380   22.0014 H   0  0  0  0  0  0
  -28.1166  -28.9987   21.1662 H   0  0  0  0  0  0
  -25.9838  -25.9052   19.0302 H   0  0  0  0  0  0
  -23.9737  -27.2730   19.0412 H   0  0  0  0  0  0
  -23.7611  -30.5844   19.4052 H   0  0  0  0  0  0
  -22.7553  -29.2388   19.8557 H   0  0  0  0  0  0
  -25.1299  -36.1899   25.0823 H   0  0  0  0  0  0
  -20.9947  -28.3255   24.1413 H   0  0  0  0  0  0
  -20.5656  -26.2290   23.3604 H   0  0  0  0  0  0
  -21.6635  -26.7450   22.1196 H   0  0  0  0  0  0
  -19.6906  -25.6292   21.1239 H   0  0  0  0  0  0
  -19.6670  -27.3198   20.6730 H   0  0  0  0  0  0
  -17.4179  -26.6664   21.4026 H   0  0  0  0  0  0
  -18.0314  -26.0066   22.9023 H   0  0  0  0  0  0
  -19.7955  -30.7248   24.2247 H   0  0  0  0  0  0
  -17.5051  -31.6268   24.5168 H   0  0  0  0  0  0
  -15.5364  -30.3001   23.7677 H   0  0  0  0  0  0
  -15.8664  -28.0851   22.7051 H   0  0  0  0  0  0
  -24.5863  -30.7138   25.7771 H   0  0  0  0  0  0
  -24.8944  -32.2932   26.4888 H   0  0  0  0  0  0
  -25.8024  -30.8913   27.0217 H   0  0  0  0  0  0
  -26.2975  -29.6759   24.1180 H   0  0  0  0  0  0
  -27.4044  -29.7303   25.4694 H   0  0  0  0  0  0
  -27.8828  -30.4322   23.9434 H   0  0  0  0  0  0
  -27.2588  -33.3668   26.2066 H   0  0  0  0  0  0
  -28.3840  -32.6945   25.0357 H   0  0  0  0  0  0
  -28.0675  -31.8524   26.5448 H   0  0  0  0  0  0
  -28.2577  -38.0106   24.7528 H   0  0  0  0  0  0
  -28.1089  -36.2627   24.6277 H   0  0  0  0  0  0
  -27.2269  -37.1413   25.8858 H   0  0  0  0  0  0
  -20.9342  -29.8806   21.6939 H   0  0  0  0  0  0
  -26.0157  -38.2834   24.1456 H   0  0  0  0  0  0
  -31.4962  -20.6492   20.4478 H   0  0  0  0  0  0
  -24.9901  -22.0777   22.7935 H   0  0  0  0  0  0
  -26.5022  -22.9581   22.9381 H   0  0  0  0  0  0
  -26.4620  -21.2334   23.2767 H   0  0  0  0  0  0
  -29.0123  -23.9029   23.0240 H   0  0  0  0  0  0
  -28.8714  -25.5565   22.4562 H   0  0  0  0  0  0
  -30.2629  -24.5900   21.9857 H   0  0  0  0  0  0
  -29.8759  -14.6993   23.0240 H   0  0  0  0  0  0
  -28.6843  -15.9713   22.7854 H   0  0  0  0  0  0
  -30.3863  -16.3565   23.0930 H   0  0  0  0  0  0
  -29.4449  -18.2635   22.2813 H   0  0  0  0  0  0
  -31.0263  -18.4589   21.6152 H   0  0  0  0  0  0
  -25.7966  -20.8237   20.8461 H   0  0  0  0  0  0
  -25.9916  -22.5104   20.5087 H   0  0  0  0  0  0
  -30.4553  -17.1254   19.5961 H   0  0  0  0  0  0
  -28.7810  -17.0732   20.0512 H   0  0  0  0  0  0
  -27.8006  -24.8595   18.9717 H   0  0  0  0  0  0
  -29.4820  -25.0204   19.2984 H   0  0  0  0  0  0
  -27.3810  -24.0979   21.2257 H   0  0  0  0  0  0
  1 25  1  0  0  0
  1 30  2  0  0  0
  1 85  1  0  0  0
  2  3  1  0  0  0
  2 25  1  0  0  0
  2 86  1  0  0  0
  2 87  1  0  0  0
  3  4  1  0  0  0
  3 88  1  0  0  0
  3 89  1  0  0  0
  4  5  1  0  0  0
  4 90  1  0  0  0
  4 91  1  0  0  0
  5  6  1  0  0  0
  5 26  1  0  0  0
  5 92  1  0  0  0
  6 25  1  0  0  0
  6 93  1  0  0  0
  6 94  1  0  0  0
  7  8  2  0  0  0
  7 26  1  0  0  0
  7 29  1  0  0  0
  8  9  1  0  0  0
  8 22  1  0  0  0
  9 10  1  0  0  0
  9 27  2  0  0  0
 10 11  2  0  0  0
 10 15  1  0  0  0
 11 12  1  0  0  0
 11 95  1  0  0  0
 12 13  2  0  0  0
 12 96  1  0  0  0
 13 14  1  0  0  0
 13 31  1  0  0  0
 14 15  2  0  0  0
 14 97  1  0  0  0
 15 98  1  0  0  0
 16 17  2  0  0  0
 16 21  1  0  0  0
 16 31  1  0  0  0
 17 18  1  0  0  0
 17 99  1  0  0  0
 18 19  2  0  0  0
 18100  1  0  0  0
 19 20  1  0  0  0
 19 24  1  0  0  0
 20 21  2  0  0  0
 20101  1  0  0  0
 21 23  1  0  0  0
 22 28  1  0  0  0
 22 32  2  0  0  0
 26 27  1  0  0  0
 28102  1  0  0  0
 28103  1  0  0  0
 29104  1  0  0  0
 29105  1  0  0  0
 33 34  1  0  0  0
 33 66  1  0  0  0
 33 70  2  0  0  0
 34 36  1  0  0  0
 34 59  1  0  0  0
 34106  1  0  0  0
 35 44  2  0  0  0
 35 45  1  0  0  0
 35 68  1  0  0  0
 36 56  1  0  0  0
 36107  1  0  0  0
 37 39  1  0  0  0
 37 47  1  0  0  0
 37 66  1  0  0  0
 37108  1  0  0  0
 38 43  2  0  0  0
 38 46  1  0  0  0
 38 47  1  0  0  0
 39 64  1  0  0  0
 39 67  2  0  0  0
 40 52  1  0  0  0
 40 53  2  0  0  0
 40 58  1  0  0  0
 41109  1  0  0  0
 41110  1  0  0  0
 41111  1  0  0  0
 41 48  1  0  0  0
 42 43  1  0  0  0
 42 66  1  0  0  0
 42112  1  0  0  0
 42113  1  0  0  0
 43 44  1  0  0  0
 44114  1  0  0  0
 45 46  2  0  0  0
 45115  1  0  0  0
 46116  1  0  0  0
 47117  1  0  0  0
 47118  1  0  0  0
 48 56  1  0  0  0
 48 65  1  0  0  0
 48119  1  0  0  0
 49 50  1  0  0  0
 49 53  1  0  0  0
 49 64  1  0  0  0
 49120  1  0  0  0
 50 51  1  0  0  0
 50121  1  0  0  0
 50122  1  0  0  0
 51 52  1  0  0  0
 51123  1  0  0  0
 51124  1  0  0  0
 52125  1  0  0  0
 52126  1  0  0  0
 53 54  1  0  0  0
 54 55  2  0  0  0
 54127  1  0  0  0
 55 57  1  0  0  0
 55128  1  0  0  0
 56 69  2  0  0  0
 57 58  2  0  0  0
 57129  1  0  0  0
 58130  1  0  0  0
 59 60  1  0  0  0
 59 61  1  0  0  0
 59 62  1  0  0  0
 60131  1  0  0  0
 60132  1  0  0  0
 60133  1  0  0  0
 61134  1  0  0  0
 61135  1  0  0  0
 61136  1  0  0  0
 62137  1  0  0  0
 62138  1  0  0  0
 62139  1  0  0  0
 63 65  1  0  0  0
 63140  1  0  0  0
 63141  1  0  0  0
 63142  1  0  0  0
 64143  1  0  0  0
 65144  1  0  0  0
 68 81  1  0  0  0
 71 72  2  0  0  0
 71 83  1  0  0  0
 71145  1  0  0  0
 72 78  1  0  0  0
 72 84  1  0  0  0
 73 74  1  0  0  0
 73 79  1  0  0  0
 73 84  2  0  0  0
 74 82  1  0  0  0
 74 83  2  0  0  0
 75 79  1  0  0  0
 75146  1  0  0  0
 75147  1  0  0  0
 75148  1  0  0  0
 76149  1  0  0  0
 76150  1  0  0  0
 76151  1  0  0  0
 76 82  1  0  0  0
 77 85  1  0  0  0
 77152  1  0  0  0
 77153  1  0  0  0
 77154  1  0  0  0
 78 80  1  0  0  0
 78155  1  0  0  0
 78156  1  0  0  0
 79157  1  0  0  0
 79158  1  0  0  0
 80 85  1  0  0  0
 80159  1  0  0  0
 80160  1  0  0  0
 81 82  1  0  0  0
 81161  1  0  0  0
 81162  1  0  0  0
 82163  1  0  0  0
M  ISO  4   1 100  68 101  81 101  85 100
M  END
> <chiral flag>
0

> <version>
0

> <s_m_source_file>
/data/baiqing/PycharmProjects/Reinvent-master-3.2/result/LINK_invent/BTK/process_docking_weight1_custom_sum_contain_oxygen_bond_distance_aromatic_linkinvent_7_9_3/rearranged_h_0052.sdf

> <i_m_source_file_index>
66

> <r_mmod_Potential_Energy-OPLS-2005>
265.796020507812

> <r_mmod_Stretch_Energy-OPLS-2005>
94.6874847412109

> <r_mmod_Bend_Energy-OPLS-2005>
163.119644165039

> <r_mmod_Torsional_Energy-OPLS-2005>
265.577026367188

> <r_mmod_Improper_Torsional_Energy-OPLS-2005>
8.59163665771484

> <r_mmod_Van_der_Waal_Energy-OPLS-2005>
146.958206176758

> <r_mmod_Electrostatic_Energy-OPLS-2005>
-249.500030517578

> <r_mmod_Solvation_Energy-OPLS-2005>
-203.172943115234

> <b_mmod_Minimization_Converged-OPLS-2005>
0

> <r_mmod_RMS_Derivative-OPLS-2005>
2.43857288360596

$$$$
66
                    3D
 Structure written by MMmdl.
154162  0  0  1  0            999 V2000
  -30.5199  -14.9279   20.3392 C   0  0  0  0  0  0
  -30.4457  -12.5494   19.4803 C   0  0  0  0  0  0
  -29.5203  -12.4161   18.2457 C   0  0  0  0  0  0
  -28.0370  -12.2869   18.6562 C   0  0  0  0  0  0
  -27.6189  -13.2208   19.8246 C   0  0  2  0  0  0
  -28.6710  -13.2658   20.9452 C   0  0  0  0  0  0
  -25.2472  -13.8161   20.5729 C   0  0  0  0  0  0
  -24.1762  -13.0444   20.9230 C   0  0  0  0  0  0
  -24.6331  -11.6906   20.8780 C   0  0  0  0  0  0
  -23.9000  -10.4313   21.0444 C   0  0  0  0  0  0
  -24.3577   -9.4236   21.9204 C   0  0  0  0  0  0
  -23.6282   -8.2257   22.0757 C   0  0  0  0  0  0
  -22.4267   -8.0288   21.3539 C   0  0  0  0  0  0
  -21.9888   -9.0258   20.4646 C   0  0  0  0  0  0
  -22.7191  -10.2145   20.3084 C   0  0  0  0  0  0
  -21.6866   -6.0739   22.5276 C   0  0  0  0  0  0
  -21.4013   -6.5643   23.8206 C   0  0  0  0  0  0
  -21.3667   -5.6792   24.9164 C   0  0  0  0  0  0
  -21.6047   -4.3055   24.7223 C   0  0  0  0  0  0
  -21.8821   -3.8149   23.4344 C   0  0  0  0  0  0
  -21.9206   -4.6967   22.3400 C   0  0  0  0  0  0
  -22.7792  -13.5231   21.1914 C   0  0  0  0  0  0
  -22.1682   -4.2160   21.0975 F   0  0  0  0  0  0
  -21.5629   -3.4540   25.7741 F   0  0  0  0  0  0
  -29.9363  -13.6652   20.3181 N   0  0  0  0  0  0
  -26.2831  -12.9314   20.3235 N   0  0  0  0  0  0
  -25.9241  -11.6480   20.5757 N   0  0  0  0  0  0
  -22.0440  -12.8204   22.0452 N   0  0  0  0  0  0
  -25.4225  -15.1894   20.4181 N   0  0  0  0  0  0
  -31.7535  -14.9910   20.2819 O   0  0  0  0  0  0
  -21.6640   -6.8877   21.4235 O   0  0  0  0  0  0
  -22.3505  -14.5572   20.6789 O   0  0  0  0  0  0
  -24.6410  -31.8492   23.1939 C   0  0  0  0  0  0
  -25.9203  -32.4729   23.8320 C   0  0  1  0  0  0
  -27.2234  -27.1862   20.1657 C   0  0  0  0  0  0
  -25.5953  -33.8529   24.2232 N   0  0  0  0  0  0
  -23.4417  -30.4687   21.5385 C   0  0  2  0  0  0
  -24.8927  -28.8996   20.1178 C   0  0  0  0  0  0
  -22.7546  -29.4592   22.4899 C   0  0  0  0  0  0
  -18.0308  -28.1404   22.8499 C   0  0  0  0  0  0
  -24.1476  -36.7268   23.2637 C   0  0  0  0  0  0
  -25.9933  -30.7418   21.3817 C   0  0  0  0  0  0
  -26.0689  -29.3554   20.7296 C   0  0  0  0  0  0
  -27.2401  -28.5163   20.7330 C   0  0  0  0  0  0
  -26.0256  -26.8170   19.5180 C   0  0  0  0  0  0
  -24.8813  -27.6409   19.4983 C   0  0  0  0  0  0
  -23.6666  -29.7968   20.1582 C   0  0  0  0  0  0
  -25.4115  -36.3052   24.0307 C   0  0  1  0  0  0
  -20.5917  -28.3741   23.1254 C   0  0  2  0  0  0
  -20.6798  -26.9447   22.5419 C   0  0  0  0  0  0
  -19.5765  -26.6401   21.5236 C   0  0  0  0  0  0
  -18.1946  -26.7953   22.1644 C   0  0  0  0  0  0
  -19.1558  -28.8893   23.2872 C   0  0  0  0  0  0
  -18.9470  -30.1484   23.8884 C   0  0  0  0  0  0
  -17.6466  -30.6605   24.0578 C   0  0  0  0  0  0
  -25.9068  -34.9420   23.5080 C   0  0  0  0  0  0
  -16.5366  -29.9095   23.6339 C   0  0  0  0  0  0
  -16.7296  -28.6520   23.0371 C   0  0  0  0  0  0
  -26.4524  -31.6575   25.0733 C   0  0  0  0  0  0
  -25.3713  -31.3763   26.1434 C   0  0  0  0  0  0
  -27.0373  -30.2973   24.6284 C   0  0  0  0  0  0
  -27.6069  -32.4319   25.7523 C   0  0  0  0  0  0
  -27.5580  -37.1794   24.8462 C   0  0  0  0  0  0
  -21.4249  -29.3066   22.3624 N   0  0  0  0  0  0
  -26.4290  -37.3763   23.9405 N   0  0  0  0  0  0
  -24.7118  -31.0396   22.0943 N   0  0  0  0  0  0
  -23.4197  -28.8155   23.3050 O   0  0  0  0  0  0
  -28.2692  -26.2098   20.1959 O   0  0  0  0  0  0
  -26.5658  -34.8913   22.4658 O   0  0  0  0  0  0
  -23.5535  -32.1356   23.7183 O   0  0  0  0  0  0
  -28.8188  -22.7566   19.3251 C   0  0  0  0  0  0
  -28.5494  -23.3627   20.5897 C   0  0  0  0  0  0
  -28.8221  -21.1052   21.4679 C   0  0  0  0  0  0
  -29.1055  -20.4998   20.1992 C   0  0  0  0  0  0
  -28.6912  -20.2464   22.7102 C   0  0  0  0  0  0
  -29.1444  -16.0953   18.7217 C   0  0  0  0  0  0
  -27.9726  -24.8728   20.8898 C   0  0  0  0  0  0
  -29.7737  -17.5592   20.6526 C   0  0  0  0  0  0
  -29.2147  -18.9020   19.8023 C   0  0  0  0  0  0
  -29.0897  -21.4020   19.1508 N   0  0  0  0  0  0
  -28.5783  -22.4690   21.6458 N   0  0  0  0  0  0
  -29.7217  -16.0837   20.0791 N   0  0  0  0  0  0
  -27.9716  -18.6069   19.4174 F   0  0  0  0  0  0
  -29.9865  -18.9530   18.7162 F   0  0  0  0  0  0
  -31.4722  -12.7280   19.1598 H   0  0  0  0  0  0
  -30.4626  -11.6192   20.0536 H   0  0  0  0  0  0
  -29.8070  -11.5376   17.6674 H   0  0  0  0  0  0
  -29.6652  -13.2443   17.5591 H   0  0  0  0  0  0
  -27.8774  -11.2473   18.9482 H   0  0  0  0  0  0
  -27.3922  -12.4571   17.7929 H   0  0  0  0  0  0
  -27.5530  -14.2091   19.3900 H   0  0  0  0  0  0
  -28.7606  -12.2968   21.4362 H   0  0  0  0  0  0
  -28.3824  -13.9828   21.7132 H   0  0  0  0  0  0
  -25.2734   -9.5727   22.4756 H   0  0  0  0  0  0
  -24.0030   -7.4637   22.7456 H   0  0  0  0  0  0
  -21.0845   -8.8757   19.8909 H   0  0  0  0  0  0
  -22.3680  -10.9678   19.6182 H   0  0  0  0  0  0
  -21.1997   -7.6149   23.9708 H   0  0  0  0  0  0
  -21.1487   -6.0517   25.9055 H   0  0  0  0  0  0
  -22.0591   -2.7612   23.2834 H   0  0  0  0  0  0
  -22.4060  -11.9844   22.4796 H   0  0  0  0  0  0
  -21.1048  -13.1188   22.2663 H   0  0  0  0  0  0
  -24.6562  -15.8449   20.5281 H   0  0  0  0  0  0
  -26.2807  -15.6310   20.1154 H   0  0  0  0  0  0
  -26.7274  -32.5342   23.1068 H   0  0  0  0  0  0
  -25.0069  -33.9662   25.0356 H   0  0  0  0  0  0
  -22.7418  -31.2934   21.3859 H   0  0  0  0  0  0
  -23.3748  -35.9594   23.3294 H   0  0  0  0  0  0
  -24.3574  -36.8915   22.2060 H   0  0  0  0  0  0
  -23.7227  -37.6455   23.6683 H   0  0  0  0  0  0
  -26.1368  -31.4971   20.6073 H   0  0  0  0  0  0
  -26.8682  -30.7970   22.0182 H   0  0  0  0  0  0
  -28.1402  -28.8665   21.2194 H   0  0  0  0  0  0
  -25.9619  -25.8466   19.0461 H   0  0  0  0  0  0
  -23.9836  -27.2839   19.0141 H   0  0  0  0  0  0
  -23.8009  -30.5732   19.4030 H   0  0  0  0  0  0
  -22.7810  -29.2389   19.8484 H   0  0  0  0  0  0
  -25.1304  -36.1900   25.0800 H   0  0  0  0  0  0
  -21.0010  -28.3342   24.1380 H   0  0  0  0  0  0
  -20.5740  -26.2352   23.3644 H   0  0  0  0  0  0
  -21.6659  -26.7486   22.1193 H   0  0  0  0  0  0
  -19.6930  -25.6307   21.1290 H   0  0  0  0  0  0
  -19.6700  -27.3199   20.6750 H   0  0  0  0  0  0
  -17.4224  -26.6727   21.4034 H   0  0  0  0  0  0
  -18.0322  -26.0097   22.9031 H   0  0  0  0  0  0
  -19.7932  -30.7328   24.2239 H   0  0  0  0  0  0
  -17.5008  -31.6275   24.5191 H   0  0  0  0  0  0
  -15.5363  -30.2998   23.7654 H   0  0  0  0  0  0
  -15.8709  -28.0833   22.7091 H   0  0  0  0  0  0
  -24.5875  -30.7136   25.7756 H   0  0  0  0  0  0
  -24.8916  -32.2936   26.4847 H   0  0  0  0  0  0
  -25.7983  -30.8939   27.0235 H   0  0  0  0  0  0
  -26.2973  -29.6722   24.1272 H   0  0  0  0  0  0
  -27.3974  -29.7258   25.4856 H   0  0  0  0  0  0
  -27.8887  -30.4227   23.9591 H   0  0  0  0  0  0
  -27.2681  -33.3641   26.2077 H   0  0  0  0  0  0
  -28.3904  -32.6864   25.0358 H   0  0  0  0  0  0
  -28.0716  -31.8454   26.5475 H   0  0  0  0  0  0
  -28.2585  -38.0103   24.7521 H   0  0  0  0  0  0
  -28.1085  -36.2639   24.6260 H   0  0  0  0  0  0
  -27.2297  -37.1398   25.8862 H   0  0  0  0  0  0
  -20.9465  -29.8733   21.6766 H   0  0  0  0  0  0
  -26.0156  -38.2827   24.1430 H   0  0  0  0  0  0
  -28.7687  -23.3514   18.4243 H   0  0  0  0  0  0
  -29.6680  -19.8793   23.0272 H   0  0  0  0  0  0
  -28.0475  -19.3875   22.5165 H   0  0  0  0  0  0
  -28.2474  -20.8033   23.5370 H   0  0  0  0  0  0
  -28.0669  -16.2441   18.7463 H   0  0  0  0  0  0
  -29.3189  -15.1868   18.1601 H   0  0  0  0  0  0
  -29.5750  -16.8561   18.0806 H   0  0  0  0  0  0
  -28.2981  -25.0692   21.9129 H   0  0  0  0  0  0
  -26.8946  -24.7527   20.9830 H   0  0  0  0  0  0
  -29.1948  -17.5068   21.5746 H   0  0  0  0  0  0
  -30.7961  -17.7492   20.9743 H   0  0  0  0  0  0
  1 25  1  0  0  0
  1 30  2  0  0  0
  1 82  1  0  0  0
  2  3  1  0  0  0
  2 25  1  0  0  0
  2 85  1  0  0  0
  2 86  1  0  0  0
  3  4  1  0  0  0
  3 87  1  0  0  0
  3 88  1  0  0  0
  4  5  1  0  0  0
  4 89  1  0  0  0
  4 90  1  0  0  0
  5  6  1  0  0  0
  5 26  1  0  0  0
  5 91  1  0  0  0
  6 25  1  0  0  0
  6 92  1  0  0  0
  6 93  1  0  0  0
  7  8  2  0  0  0
  7 26  1  0  0  0
  7 29  1  0  0  0
  8  9  1  0  0  0
  8 22  1  0  0  0
  9 10  1  0  0  0
  9 27  2  0  0  0
 10 11  2  0  0  0
 10 15  1  0  0  0
 11 12  1  0  0  0
 11 94  1  0  0  0
 12 13  2  0  0  0
 12 95  1  0  0  0
 13 14  1  0  0  0
 13 31  1  0  0  0
 14 15  2  0  0  0
 14 96  1  0  0  0
 15 97  1  0  0  0
 16 17  2  0  0  0
 16 21  1  0  0  0
 16 31  1  0  0  0
 17 18  1  0  0  0
 17 98  1  0  0  0
 18 19  2  0  0  0
 18 99  1  0  0  0
 19 20  1  0  0  0
 19 24  1  0  0  0
 20 21  2  0  0  0
 20100  1  0  0  0
 21 23  1  0  0  0
 22 28  1  0  0  0
 22 32  2  0  0  0
 26 27  1  0  0  0
 28101  1  0  0  0
 28102  1  0  0  0
 29103  1  0  0  0
 29104  1  0  0  0
 33 34  1  0  0  0
 33 66  1  0  0  0
 33 70  2  0  0  0
 34 36  1  0  0  0
 34 59  1  0  0  0
 34105  1  0  0  0
 35 44  2  0  0  0
 35 45  1  0  0  0
 35 68  1  0  0  0
 36 56  1  0  0  0
 36106  1  0  0  0
 37 39  1  0  0  0
 37 47  1  0  0  0
 37 66  1  0  0  0
 37107  1  0  0  0
 38 43  2  0  0  0
 38 46  1  0  0  0
 38 47  1  0  0  0
 39 64  1  0  0  0
 39 67  2  0  0  0
 40 52  1  0  0  0
 40 53  2  0  0  0
 40 58  1  0  0  0
 41108  1  0  0  0
 41109  1  0  0  0
 41110  1  0  0  0
 41 48  1  0  0  0
 42 43  1  0  0  0
 42 66  1  0  0  0
 42111  1  0  0  0
 42112  1  0  0  0
 43 44  1  0  0  0
 44113  1  0  0  0
 45 46  2  0  0  0
 45114  1  0  0  0
 46115  1  0  0  0
 47116  1  0  0  0
 47117  1  0  0  0
 48 56  1  0  0  0
 48 65  1  0  0  0
 48118  1  0  0  0
 49 50  1  0  0  0
 49 53  1  0  0  0
 49 64  1  0  0  0
 49119  1  0  0  0
 50 51  1  0  0  0
 50120  1  0  0  0
 50121  1  0  0  0
 51 52  1  0  0  0
 51122  1  0  0  0
 51123  1  0  0  0
 52124  1  0  0  0
 52125  1  0  0  0
 53 54  1  0  0  0
 54 55  2  0  0  0
 54126  1  0  0  0
 55 57  1  0  0  0
 55127  1  0  0  0
 56 69  2  0  0  0
 57 58  2  0  0  0
 57128  1  0  0  0
 58129  1  0  0  0
 59 60  1  0  0  0
 59 61  1  0  0  0
 59 62  1  0  0  0
 60130  1  0  0  0
 60131  1  0  0  0
 60132  1  0  0  0
 61133  1  0  0  0
 61134  1  0  0  0
 61135  1  0  0  0
 62136  1  0  0  0
 62137  1  0  0  0
 62138  1  0  0  0
 63 65  1  0  0  0
 63139  1  0  0  0
 63140  1  0  0  0
 63141  1  0  0  0
 64142  1  0  0  0
 65143  1  0  0  0
 68 77  1  0  0  0
 71 72  2  0  0  0
 71 80  1  0  0  0
 71144  1  0  0  0
 72 77  1  0  0  0
 72 81  1  0  0  0
 73 74  1  0  0  0
 73 75  1  0  0  0
 73 81  2  0  0  0
 74 79  1  0  0  0
 74 80  2  0  0  0
 75145  1  0  0  0
 75146  1  0  0  0
 75147  1  0  0  0
 76 82  1  0  0  0
 76148  1  0  0  0
 76149  1  0  0  0
 76150  1  0  0  0
 77151  1  0  0  0
 77152  1  0  0  0
 78 79  1  0  0  0
 78 82  1  0  0  0
 78153  1  0  0  0
 78154  1  0  0  0
 79 83  1  0  0  0
 79 84  1  0  0  0
M  ISO  4   1 100  68 101  77 101  82 100
M  END
> <chiral flag>
0

> <version>
0

> <s_m_source_file>
/data/baiqing/PycharmProjects/Reinvent-master-3.2/result/LINK_invent/BTK/process_docking_weight1_custom_sum_contain_oxygen_bond_distance_aromatic_linkinvent_7_9_3/rearranged_h_0052.sdf

> <i_m_source_file_index>
67

> <r_mmod_Potential_Energy-OPLS-2005>
722.96875

> <r_mmod_Stretch_Energy-OPLS-2005>
220.726165771484

> <r_mmod_Bend_Energy-OPLS-2005>
268.409729003906

> <r_mmod_Torsional_Energy-OPLS-2005>
343.305084228516

> <r_mmod_Improper_Torsional_Energy-OPLS-2005>
12.4039754867554

> <r_mmod_Van_der_Waal_Energy-OPLS-2005>
148.16276550293

> <r_mmod_Electrostatic_Energy-OPLS-2005>
-234.162948608398

> <r_mmod_Solvation_Energy-OPLS-2005>
-215.163558959961

> <b_mmod_Minimization_Converged-OPLS-2005>
0

> <r_mmod_RMS_Derivative-OPLS-2005>
3.8812735080719

$$$$
67
                    3D
 Structure written by MMmdl.
153161  0  0  1  0            999 V2000
  -30.5275  -15.0180   20.3945 C   0  0  0  0  0  0
  -30.4351  -12.6316   19.5091 C   0  0  0  0  0  0
  -29.5222  -12.5401   18.2637 C   0  0  0  0  0  0
  -28.0569  -12.3152   18.6800 C   0  0  0  0  0  0
  -27.6230  -13.2557   19.8338 C   0  0  2  0  0  0
  -28.6642  -13.3248   20.9725 C   0  0  0  0  0  0
  -25.2441  -13.8233   20.5724 C   0  0  0  0  0  0
  -24.1772  -13.0448   20.9235 C   0  0  0  0  0  0
  -24.6386  -11.6933   20.8764 C   0  0  0  0  0  0
  -23.9063  -10.4302   21.0411 C   0  0  0  0  0  0
  -24.3605   -9.4216   21.9187 C   0  0  0  0  0  0
  -23.6281   -8.2255   22.0749 C   0  0  0  0  0  0
  -22.4266   -8.0291   21.3542 C   0  0  0  0  0  0
  -21.9913   -9.0269   20.4637 C   0  0  0  0  0  0
  -22.7239  -10.2152   20.3049 C   0  0  0  0  0  0
  -21.6862   -6.0733   22.5275 C   0  0  0  0  0  0
  -21.4017   -6.5631   23.8207 C   0  0  0  0  0  0
  -21.3657   -5.6785   24.9173 C   0  0  0  0  0  0
  -21.6046   -4.3041   24.7222 C   0  0  0  0  0  0
  -21.8830   -3.8138   23.4347 C   0  0  0  0  0  0
  -21.9197   -4.6957   22.3403 C   0  0  0  0  0  0
  -22.7794  -13.5215   21.1907 C   0  0  0  0  0  0
  -22.1672   -4.2137   21.0984 F   0  0  0  0  0  0
  -21.5635   -3.4525   25.7738 F   0  0  0  0  0  0
  -29.9299  -13.7514   20.3643 N   0  0  0  0  0  0
  -26.2852  -12.9467   20.3236 N   0  0  0  0  0  0
  -25.9315  -11.6592   20.5729 N   0  0  0  0  0  0
  -22.0459  -12.8180   22.0449 N   0  0  0  0  0  0
  -25.4152  -15.1970   20.4144 N   0  0  0  0  0  0
  -31.7354  -15.0489   20.1354 O   0  0  0  0  0  0
  -21.6644   -6.8880   21.4237 O   0  0  0  0  0  0
  -22.3461  -14.5525   20.6768 O   0  0  0  0  0  0
  -24.6491  -31.8393   23.1818 C   0  0  0  0  0  0
  -25.9234  -32.4670   23.8230 C   0  0  1  0  0  0
  -27.2180  -27.0801   20.1616 C   0  0  0  0  0  0
  -25.5958  -33.8476   24.2143 N   0  0  0  0  0  0
  -23.4548  -30.4546   21.5313 C   0  0  2  0  0  0
  -24.9045  -28.8687   20.1120 C   0  0  0  0  0  0
  -22.7599  -29.4515   22.4867 C   0  0  0  0  0  0
  -18.0306  -28.1401   22.8484 C   0  0  0  0  0  0
  -24.1495  -36.7244   23.2645 C   0  0  0  0  0  0
  -26.0142  -30.6944   21.3877 C   0  0  0  0  0  0
  -26.0843  -29.2996   20.7308 C   0  0  0  0  0  0
  -27.2419  -28.4248   20.7320 C   0  0  0  0  0  0
  -26.0098  -26.7626   19.5044 C   0  0  0  0  0  0
  -24.8836  -27.6161   19.4800 C   0  0  0  0  0  0
  -23.6825  -29.7770   20.1534 C   0  0  0  0  0  0
  -25.4135  -36.3023   24.0310 C   0  0  1  0  0  0
  -20.5919  -28.3731   23.1237 C   0  0  2  0  0  0
  -20.6785  -26.9428   22.5420 C   0  0  0  0  0  0
  -19.5755  -26.6385   21.5232 C   0  0  0  0  0  0
  -18.1937  -26.7940   22.1641 C   0  0  0  0  0  0
  -19.1560  -28.8890   23.2845 C   0  0  0  0  0  0
  -18.9476  -30.1494   23.8856 C   0  0  0  0  0  0
  -17.6468  -30.6597   24.0556 C   0  0  0  0  0  0
  -25.9092  -34.9401   23.5042 C   0  0  0  0  0  0
  -16.5360  -29.9082   23.6341 C   0  0  0  0  0  0
  -16.7295  -28.6509   23.0353 C   0  0  0  0  0  0
  -26.4525  -31.6555   25.0697 C   0  0  0  0  0  0
  -25.3695  -31.3743   26.1384 C   0  0  0  0  0  0
  -27.0397  -30.2944   24.6312 C   0  0  0  0  0  0
  -27.6046  -32.4331   25.7486 C   0  0  0  0  0  0
  -27.5576  -37.1780   24.8464 C   0  0  0  0  0  0
  -21.4284  -29.3044   22.3606 N   0  0  0  0  0  0
  -26.4292  -37.3748   23.9400 N   0  0  0  0  0  0
  -24.7265  -31.0197   22.0874 N   0  0  0  0  0  0
  -23.4228  -28.8085   23.3050 O   0  0  0  0  0  0
  -28.2664  -26.0724   20.2202 O   0  0  0  0  0  0
  -26.5700  -34.8911   22.4633 O   0  0  0  0  0  0
  -23.5600  -32.1291   23.7017 O   0  0  0  0  0  0
  -29.9441  -20.5679   20.0754 C   0  0  0  0  0  0
  -27.9795  -20.8799   20.7717 C   0  0  0  0  0  0
  -29.4785  -19.2385   20.3565 C   0  0  0  0  0  0
  -30.0348  -23.6085   21.5156 C   0  0  0  0  0  0
  -30.0894  -23.5347   19.0258 C   0  0  0  0  0  0
  -30.2520  -17.7510   20.2593 C   0  0  0  0  0  0
  -28.0160  -24.5041   20.1853 C   0  0  0  0  0  0
  -29.2075  -23.2700   20.2624 C   0  0  0  0  0  0
  -28.1731  -19.5224   20.8033 N   0  0  0  0  0  0
  -28.9967  -21.6609   20.3232 N   0  0  0  0  0  0
  -29.7834  -16.2431   20.4968 N   0  0  0  0  0  0
  -31.4682  -12.7889   19.1959 H   0  0  0  0  0  0
  -30.4357  -11.6910   20.0626 H   0  0  0  0  0  0
  -29.8538  -11.7395   17.6016 H   0  0  0  0  0  0
  -29.5997  -13.4655   17.6902 H   0  0  0  0  0  0
  -27.9600  -11.2760   18.9961 H   0  0  0  0  0  0
  -27.3943  -12.4347   17.8206 H   0  0  0  0  0  0
  -27.5737  -14.2485   19.3865 H   0  0  0  0  0  0
  -28.7675  -12.3630   21.4764 H   0  0  0  0  0  0
  -28.3513  -14.0412   21.7342 H   0  0  0  0  0  0
  -25.2750   -9.5698   22.4761 H   0  0  0  0  0  0
  -24.0000   -7.4638   22.7462 H   0  0  0  0  0  0
  -21.0861   -8.8782   19.8926 H   0  0  0  0  0  0
  -22.3697  -10.9692   19.6156 H   0  0  0  0  0  0
  -21.1997   -7.6137   23.9705 H   0  0  0  0  0  0
  -21.1477   -6.0516   25.9076 H   0  0  0  0  0  0
  -22.0605   -2.7601   23.2849 H   0  0  0  0  0  0
  -22.4059  -11.9789   22.4753 H   0  0  0  0  0  0
  -21.1099  -13.1223   22.2713 H   0  0  0  0  0  0
  -24.6553  -15.8590   20.5284 H   0  0  0  0  0  0
  -26.2630  -15.6302   20.0710 H   0  0  0  0  0  0
  -26.7299  -32.5246   23.0956 H   0  0  0  0  0  0
  -25.0041  -33.9576   25.0246 H   0  0  0  0  0  0
  -22.7602  -31.2821   21.3726 H   0  0  0  0  0  0
  -23.3778  -35.9555   23.3290 H   0  0  0  0  0  0
  -24.3576  -36.8906   22.2063 H   0  0  0  0  0  0
  -23.7237  -37.6424   23.6704 H   0  0  0  0  0  0
  -26.1780  -31.4460   20.6145 H   0  0  0  0  0  0
  -26.8816  -30.7454   22.0335 H   0  0  0  0  0  0
  -28.1418  -28.7550   21.2313 H   0  0  0  0  0  0
  -25.9031  -25.8071   19.0138 H   0  0  0  0  0  0
  -23.9853  -27.2819   18.9796 H   0  0  0  0  0  0
  -23.8162  -30.5473   19.3931 H   0  0  0  0  0  0
  -22.7956  -29.2191   19.8482 H   0  0  0  0  0  0
  -25.1328  -36.1838   25.0806 H   0  0  0  0  0  0
  -21.0004  -28.3324   24.1362 H   0  0  0  0  0  0
  -20.5687  -26.2346   23.3646 H   0  0  0  0  0  0
  -21.6644  -26.7425   22.1207 H   0  0  0  0  0  0
  -19.6904  -25.6298   21.1264 H   0  0  0  0  0  0
  -19.6673  -27.3198   20.6763 H   0  0  0  0  0  0
  -17.4204  -26.6700   21.4041 H   0  0  0  0  0  0
  -18.0306  -26.0089   22.9036 H   0  0  0  0  0  0
  -19.7948  -30.7323   24.2192 H   0  0  0  0  0  0
  -17.5018  -31.6270   24.5175 H   0  0  0  0  0  0
  -15.5359  -30.2965   23.7692 H   0  0  0  0  0  0
  -15.8698  -28.0825   22.7065 H   0  0  0  0  0  0
  -24.5896  -30.7069   25.7690 H   0  0  0  0  0  0
  -24.8863  -32.2924   26.4739 H   0  0  0  0  0  0
  -25.7981  -30.8958   27.0203 H   0  0  0  0  0  0
  -26.3021  -29.6667   24.1300 H   0  0  0  0  0  0
  -27.3967  -29.7245   25.4899 H   0  0  0  0  0  0
  -27.8947  -30.4166   23.9662 H   0  0  0  0  0  0
  -27.2632  -33.3658   26.1984 H   0  0  0  0  0  0
  -28.3894  -32.6853   25.0341 H   0  0  0  0  0  0
  -28.0672  -31.8510   26.5466 H   0  0  0  0  0  0
  -28.2586  -38.0086   24.7531 H   0  0  0  0  0  0
  -28.1085  -36.2619   24.6276 H   0  0  0  0  0  0
  -27.2289  -37.1402   25.8865 H   0  0  0  0  0  0
  -20.9521  -29.8741   21.6750 H   0  0  0  0  0  0
  -26.0154  -38.2811   24.1416 H   0  0  0  0  0  0
  -30.9348  -20.8281   19.7294 H   0  0  0  0  0  0
  -27.0556  -21.3216   21.1169 H   0  0  0  0  0  0
  -30.3497  -24.6529   21.5138 H   0  0  0  0  0  0
  -30.9335  -22.9946   21.5854 H   0  0  0  0  0  0
  -29.4551  -23.4419   22.4239 H   0  0  0  0  0  0
  -30.3401  -24.5929   18.9369 H   0  0  0  0  0  0
  -29.5747  -23.2443   18.1097 H   0  0  0  0  0  0
  -31.0323  -22.9900   19.0603 H   0  0  0  0  0  0
  -31.1372  -17.8354   20.8914 H   0  0  0  0  0  0
  -30.6753  -17.7116   19.2548 H   0  0  0  0  0  0
  -27.3144  -24.3092   20.9974 H   0  0  0  0  0  0
  -27.4483  -24.3024   19.2775 H   0  0  0  0  0  0
  -28.7978  -16.1338   20.6806 H   0  0  0  0  0  0
  1 25  1  0  0  0
  1 30  2  0  0  0
  1 81  1  0  0  0
  2  3  1  0  0  0
  2 25  1  0  0  0
  2 82  1  0  0  0
  2 83  1  0  0  0
  3  4  1  0  0  0
  3 84  1  0  0  0
  3 85  1  0  0  0
  4  5  1  0  0  0
  4 86  1  0  0  0
  4 87  1  0  0  0
  5  6  1  0  0  0
  5 26  1  0  0  0
  5 88  1  0  0  0
  6 25  1  0  0  0
  6 89  1  0  0  0
  6 90  1  0  0  0
  7  8  2  0  0  0
  7 26  1  0  0  0
  7 29  1  0  0  0
  8  9  1  0  0  0
  8 22  1  0  0  0
  9 10  1  0  0  0
  9 27  2  0  0  0
 10 11  2  0  0  0
 10 15  1  0  0  0
 11 12  1  0  0  0
 11 91  1  0  0  0
 12 13  2  0  0  0
 12 92  1  0  0  0
 13 14  1  0  0  0
 13 31  1  0  0  0
 14 15  2  0  0  0
 14 93  1  0  0  0
 15 94  1  0  0  0
 16 17  2  0  0  0
 16 21  1  0  0  0
 16 31  1  0  0  0
 17 18  1  0  0  0
 17 95  1  0  0  0
 18 19  2  0  0  0
 18 96  1  0  0  0
 19 20  1  0  0  0
 19 24  1  0  0  0
 20 21  2  0  0  0
 20 97  1  0  0  0
 21 23  1  0  0  0
 22 28  1  0  0  0
 22 32  2  0  0  0
 26 27  1  0  0  0
 28 98  1  0  0  0
 28 99  1  0  0  0
 29100  1  0  0  0
 29101  1  0  0  0
 33 34  1  0  0  0
 33 66  1  0  0  0
 33 70  2  0  0  0
 34 36  1  0  0  0
 34 59  1  0  0  0
 34102  1  0  0  0
 35 44  2  0  0  0
 35 45  1  0  0  0
 35 68  1  0  0  0
 36 56  1  0  0  0
 36103  1  0  0  0
 37 39  1  0  0  0
 37 47  1  0  0  0
 37 66  1  0  0  0
 37104  1  0  0  0
 38 43  2  0  0  0
 38 46  1  0  0  0
 38 47  1  0  0  0
 39 64  1  0  0  0
 39 67  2  0  0  0
 40 52  1  0  0  0
 40 53  2  0  0  0
 40 58  1  0  0  0
 41105  1  0  0  0
 41106  1  0  0  0
 41107  1  0  0  0
 41 48  1  0  0  0
 42 43  1  0  0  0
 42 66  1  0  0  0
 42108  1  0  0  0
 42109  1  0  0  0
 43 44  1  0  0  0
 44110  1  0  0  0
 45 46  2  0  0  0
 45111  1  0  0  0
 46112  1  0  0  0
 47113  1  0  0  0
 47114  1  0  0  0
 48 56  1  0  0  0
 48 65  1  0  0  0
 48115  1  0  0  0
 49 50  1  0  0  0
 49 53  1  0  0  0
 49 64  1  0  0  0
 49116  1  0  0  0
 50 51  1  0  0  0
 50117  1  0  0  0
 50118  1  0  0  0
 51 52  1  0  0  0
 51119  1  0  0  0
 51120  1  0  0  0
 52121  1  0  0  0
 52122  1  0  0  0
 53 54  1  0  0  0
 54 55  2  0  0  0
 54123  1  0  0  0
 55 57  1  0  0  0
 55124  1  0  0  0
 56 69  2  0  0  0
 57 58  2  0  0  0
 57125  1  0  0  0
 58126  1  0  0  0
 59 60  1  0  0  0
 59 61  1  0  0  0
 59 62  1  0  0  0
 60127  1  0  0  0
 60128  1  0  0  0
 60129  1  0  0  0
 61130  1  0  0  0
 61131  1  0  0  0
 61132  1  0  0  0
 62133  1  0  0  0
 62134  1  0  0  0
 62135  1  0  0  0
 63 65  1  0  0  0
 63136  1  0  0  0
 63137  1  0  0  0
 63138  1  0  0  0
 64139  1  0  0  0
 65140  1  0  0  0
 68 77  1  0  0  0
 71 73  2  0  0  0
 71 80  1  0  0  0
 71141  1  0  0  0
 72 79  2  0  0  0
 72 80  1  0  0  0
 72142  1  0  0  0
 73 76  1  0  0  0
 73 79  1  0  0  0
 74143  1  0  0  0
 74144  1  0  0  0
 74145  1  0  0  0
 74 78  1  0  0  0
 75 78  1  0  0  0
 75146  1  0  0  0
 75147  1  0  0  0
 75148  1  0  0  0
 76 81  1  0  0  0
 76149  1  0  0  0
 76150  1  0  0  0
 77 78  1  0  0  0
 77151  1  0  0  0
 77152  1  0  0  0
 78 80  1  0  0  0
 81153  1  0  0  0
M  ISO  4   1 100  68 101  77 101  81 100
M  END
> <chiral flag>
0

> <version>
0

> <s_m_source_file>
/data/baiqing/PycharmProjects/Reinvent-master-3.2/result/LINK_invent/BTK/process_docking_weight1_custom_sum_contain_oxygen_bond_distance_aromatic_linkinvent_7_9_3/rearranged_h_0052.sdf

> <i_m_source_file_index>
68

> <r_mmod_Potential_Energy-OPLS-2005>
554.444885253906

> <r_mmod_Stretch_Energy-OPLS-2005>
319.492034912109

> <r_mmod_Bend_Energy-OPLS-2005>
312.232299804688

> <r_mmod_Torsional_Energy-OPLS-2005>
244.710662841797

> <r_mmod_Improper_Torsional_Energy-OPLS-2005>
5.47023296356201

> <r_mmod_Van_der_Waal_Energy-OPLS-2005>
108.969596862793

> <r_mmod_Electrostatic_Energy-OPLS-2005>
-455.668548583984

> <r_mmod_Solvation_Energy-OPLS-2005>
-223.60954284668

> <b_mmod_Minimization_Converged-OPLS-2005>
0

> <r_mmod_RMS_Derivative-OPLS-2005>
1.76565265655518

$$$$
68
                    3D
 Structure written by MMmdl.
156164  0  0  1  0            999 V2000
  -30.5857  -14.7465   20.4700 C   0  0  0  0  0  0
  -30.4439  -12.4624   19.4592 C   0  0  0  0  0  0
  -29.5134  -12.5127   18.2265 C   0  0  0  0  0  0
  -28.0382  -12.3342   18.6387 C   0  0  0  0  0  0
  -27.6431  -13.2271   19.8452 C   0  0  2  0  0  0
  -28.6872  -13.1428   20.9788 C   0  0  0  0  0  0
  -25.2522  -13.8185   20.5663 C   0  0  0  0  0  0
  -24.1816  -13.0442   20.9198 C   0  0  0  0  0  0
  -24.6401  -11.6917   20.8732 C   0  0  0  0  0  0
  -23.9074  -10.4300   21.0396 C   0  0  0  0  0  0
  -24.3634   -9.4214   21.9169 C   0  0  0  0  0  0
  -23.6306   -8.2253   22.0747 C   0  0  0  0  0  0
  -22.4282   -8.0299   21.3548 C   0  0  0  0  0  0
  -21.9918   -9.0268   20.4644 C   0  0  0  0  0  0
  -22.7246  -10.2145   20.3044 C   0  0  0  0  0  0
  -21.6864   -6.0744   22.5277 C   0  0  0  0  0  0
  -21.4024   -6.5641   23.8212 C   0  0  0  0  0  0
  -21.3655   -5.6788   24.9169 C   0  0  0  0  0  0
  -21.6034   -4.3051   24.7212 C   0  0  0  0  0  0
  -21.8822   -3.8150   23.4332 C   0  0  0  0  0  0
  -21.9203   -4.6972   22.3394 C   0  0  0  0  0  0
  -22.7837  -13.5227   21.1858 C   0  0  0  0  0  0
  -22.1664   -4.2157   21.0970 F   0  0  0  0  0  0
  -21.5628   -3.4535   25.7723 F   0  0  0  0  0  0
  -29.9864  -13.5100   20.3989 N   0  0  0  0  0  0
  -26.2941  -12.9379   20.3224 N   0  0  0  0  0  0
  -25.9324  -11.6525   20.5707 N   0  0  0  0  0  0
  -22.0479  -12.8228   22.0417 N   0  0  0  0  0  0
  -25.4198  -15.1910   20.4085 N   0  0  0  0  0  0
  -31.7768  -14.8784   20.1736 O   0  0  0  0  0  0
  -21.6650   -6.8894   21.4245 O   0  0  0  0  0  0
  -22.3508  -14.5511   20.6678 O   0  0  0  0  0  0
  -24.6325  -31.8541   23.1984 C   0  0  0  0  0  0
  -25.9153  -32.4745   23.8323 C   0  0  1  0  0  0
  -27.2180  -27.2611   20.1260 C   0  0  0  0  0  0
  -25.5952  -33.8552   24.2245 N   0  0  0  0  0  0
  -23.4279  -30.4782   21.5428 C   0  0  2  0  0  0
  -24.8729  -28.9239   20.1120 C   0  0  0  0  0  0
  -22.7502  -29.4608   22.4925 C   0  0  0  0  0  0
  -18.0290  -28.1393   22.8483 C   0  0  0  0  0  0
  -24.1488  -36.7286   23.2641 C   0  0  0  0  0  0
  -25.9744  -30.7656   21.3787 C   0  0  0  0  0  0
  -26.0461  -29.3883   20.7213 C   0  0  0  0  0  0
  -27.2218  -28.5714   20.7148 C   0  0  0  0  0  0
  -26.0237  -26.8692   19.4810 C   0  0  0  0  0  0
  -24.8672  -27.6719   19.4803 C   0  0  0  0  0  0
  -23.6444  -29.8122   20.1587 C   0  0  0  0  0  0
  -25.4116  -36.3065   24.0321 C   0  0  1  0  0  0
  -20.5890  -28.3717   23.1257 C   0  0  2  0  0  0
  -20.6790  -26.9432   22.5412 C   0  0  0  0  0  0
  -19.5761  -26.6386   21.5220 C   0  0  0  0  0  0
  -18.1938  -26.7938   22.1621 C   0  0  0  0  0  0
  -19.1542  -28.8871   23.2865 C   0  0  0  0  0  0
  -18.9467  -30.1476   23.8888 C   0  0  0  0  0  0
  -17.6466  -30.6597   24.0563 C   0  0  0  0  0  0
  -25.9061  -34.9437   23.5080 C   0  0  0  0  0  0
  -16.5361  -29.9096   23.6327 C   0  0  0  0  0  0
  -16.7277  -28.6508   23.0354 C   0  0  0  0  0  0
  -26.4523  -31.6584   25.0724 C   0  0  0  0  0  0
  -25.3749  -31.3737   26.1445 C   0  0  0  0  0  0
  -27.0383  -30.2997   24.6230 C   0  0  0  0  0  0
  -27.6054  -32.4352   25.7504 C   0  0  0  0  0  0
  -27.5574  -37.1795   24.8462 C   0  0  0  0  0  0
  -21.4205  -29.3059   22.3649 N   0  0  0  0  0  0
  -26.4288  -37.3768   23.9403 N   0  0  0  0  0  0
  -24.6979  -31.0499   22.0967 N   0  0  0  0  0  0
  -23.4191  -28.8150   23.3030 O   0  0  0  0  0  0
  -28.3202  -26.3746   20.1430 O   0  0  0  0  0  0
  -26.5628  -34.8914   22.4646 O   0  0  0  0  0  0
  -23.5475  -32.1385   23.7275 O   0  0  0  0  0  0
  -29.2197  -21.1020   19.5527 C   0  0  0  0  0  0
  -29.1961  -20.4457   21.5914 C   0  0  0  0  0  0
  -29.1208  -22.2636   20.3412 C   0  0  0  0  0  0
  -27.7999  -18.0194   19.8433 C   0  0  0  0  0  0
  -29.8964  -18.3035   18.5351 C   0  0  0  0  0  0
  -29.2155  -23.8098   19.9742 C   0  0  0  0  0  0
  -30.0561  -17.3399   20.8646 C   0  0  0  0  0  0
  -28.0971  -24.8992   20.3876 C   0  0  0  0  0  0
  -29.2808  -18.4300   19.9405 C   0  0  0  0  0  0
  -29.1228  -21.7901   21.6594 N   0  0  0  0  0  0
  -29.2922  -19.9156   20.3564 N   0  0  0  0  0  0
  -29.7689  -15.8416   20.6917 N   0  0  0  0  0  0
  -31.4811  -12.6100   19.1526 H   0  0  0  0  0  0
  -30.4088  -11.4809   19.9336 H   0  0  0  0  0  0
  -29.7963  -11.7402   17.5103 H   0  0  0  0  0  0
  -29.6376  -13.4673   17.7106 H   0  0  0  0  0  0
  -27.8946  -11.2843   18.8947 H   0  0  0  0  0  0
  -27.3827  -12.5359   17.7900 H   0  0  0  0  0  0
  -27.6407  -14.2511   19.4710 H   0  0  0  0  0  0
  -28.7246  -12.1361   21.3984 H   0  0  0  0  0  0
  -28.4184  -13.8072   21.8016 H   0  0  0  0  0  0
  -25.2788   -9.5691   22.4729 H   0  0  0  0  0  0
  -24.0029   -7.4640   22.7455 H   0  0  0  0  0  0
  -21.0851   -8.8774   19.8948 H   0  0  0  0  0  0
  -22.3703  -10.9681   19.6148 H   0  0  0  0  0  0
  -21.2012   -7.6150   23.9715 H   0  0  0  0  0  0
  -21.1473   -6.0516   25.9073 H   0  0  0  0  0  0
  -22.0605   -2.7615   23.2819 H   0  0  0  0  0  0
  -22.4121  -11.9930   22.4855 H   0  0  0  0  0  0
  -21.1081  -13.1223   22.2591 H   0  0  0  0  0  0
  -24.6451  -15.8370   20.5138 H   0  0  0  0  0  0
  -26.2526  -15.6306   20.0412 H   0  0  0  0  0  0
  -26.7227  -32.5380   23.1067 H   0  0  0  0  0  0
  -25.0135  -33.9693   25.0413 H   0  0  0  0  0  0
  -22.7274  -31.3033   21.3986 H   0  0  0  0  0  0
  -23.3751  -35.9620   23.3304 H   0  0  0  0  0  0
  -24.3586  -36.8910   22.2058 H   0  0  0  0  0  0
  -23.7237  -37.6482   23.6679 H   0  0  0  0  0  0
  -26.1157  -31.5256   20.6093 H   0  0  0  0  0  0
  -26.8524  -30.8112   22.0123 H   0  0  0  0  0  0
  -28.1218  -28.9271   21.1984 H   0  0  0  0  0  0
  -25.9621  -25.9279   18.9580 H   0  0  0  0  0  0
  -23.9736  -27.3153   18.9864 H   0  0  0  0  0  0
  -23.7698  -30.5907   19.4049 H   0  0  0  0  0  0
  -22.7623  -29.2480   19.8490 H   0  0  0  0  0  0
  -25.1294  -36.1919   25.0815 H   0  0  0  0  0  0
  -20.9982  -28.3311   24.1372 H   0  0  0  0  0  0
  -20.5707  -26.2330   23.3627 H   0  0  0  0  0  0
  -21.6657  -26.7472   22.1191 H   0  0  0  0  0  0
  -19.6929  -25.6291   21.1259 H   0  0  0  0  0  0
  -19.6697  -27.3192   20.6743 H   0  0  0  0  0  0
  -17.4215  -26.6698   21.4014 H   0  0  0  0  0  0
  -18.0332  -26.0079   22.9011 H   0  0  0  0  0  0
  -19.7949  -30.7290   24.2252 H   0  0  0  0  0  0
  -17.5023  -31.6268   24.5188 H   0  0  0  0  0  0
  -15.5360  -30.2996   23.7658 H   0  0  0  0  0  0
  -15.8677  -28.0824   22.7075 H   0  0  0  0  0  0
  -24.5916  -30.7094   25.7778 H   0  0  0  0  0  0
  -24.8964  -32.2913   26.4875 H   0  0  0  0  0  0
  -25.8068  -30.8911   27.0220 H   0  0  0  0  0  0
  -26.2971  -29.6725   24.1263 H   0  0  0  0  0  0
  -27.4066  -29.7278   25.4759 H   0  0  0  0  0  0
  -27.8853  -30.4265   23.9482 H   0  0  0  0  0  0
  -27.2633  -33.3659   26.2046 H   0  0  0  0  0  0
  -28.3883  -32.6905   25.0350 H   0  0  0  0  0  0
  -28.0714  -31.8516   26.5454 H   0  0  0  0  0  0
  -28.2587  -38.0095   24.7504 H   0  0  0  0  0  0
  -28.1069  -36.2621   24.6294 H   0  0  0  0  0  0
  -27.2293  -37.1452   25.8865 H   0  0  0  0  0  0
  -20.9420  -29.8775   21.6833 H   0  0  0  0  0  0
  -26.0161  -38.2836   24.1420 H   0  0  0  0  0  0
  -29.2674  -21.0343   18.4745 H   0  0  0  0  0  0
  -29.1647  -19.8258   22.4750 H   0  0  0  0  0  0
  -27.6800  -17.0234   19.4181 H   0  0  0  0  0  0
  -27.2421  -18.7044   19.2036 H   0  0  0  0  0  0
  -27.3229  -18.0244   20.8244 H   0  0  0  0  0  0
  -29.9097  -17.2656   18.2014 H   0  0  0  0  0  0
  -30.9260  -18.6634   18.5266 H   0  0  0  0  0  0
  -29.3348  -18.8659   17.7888 H   0  0  0  0  0  0
  -29.3252  -23.8875   18.8924 H   0  0  0  0  0  0
  -30.1655  -24.1785   20.3602 H   0  0  0  0  0  0
  -29.8179  -17.5548   21.9072 H   0  0  0  0  0  0
  -31.1321  -17.5035   20.7829 H   0  0  0  0  0  0
  -27.9409  -24.8032   21.4618 H   0  0  0  0  0  0
  -27.1684  -24.5564   19.9396 H   0  0  0  0  0  0
  -28.8061  -15.5878   20.8511 H   0  0  0  0  0  0
  1 25  1  0  0  0
  1 30  2  0  0  0
  1 82  1  0  0  0
  2  3  1  0  0  0
  2 25  1  0  0  0
  2 83  1  0  0  0
  2 84  1  0  0  0
  3  4  1  0  0  0
  3 85  1  0  0  0
  3 86  1  0  0  0
  4  5  1  0  0  0
  4 87  1  0  0  0
  4 88  1  0  0  0
  5  6  1  0  0  0
  5 26  1  0  0  0
  5 89  1  0  0  0
  6 25  1  0  0  0
  6 90  1  0  0  0
  6 91  1  0  0  0
  7  8  2  0  0  0
  7 26  1  0  0  0
  7 29  1  0  0  0
  8  9  1  0  0  0
  8 22  1  0  0  0
  9 10  1  0  0  0
  9 27  2  0  0  0
 10 11  2  0  0  0
 10 15  1  0  0  0
 11 12  1  0  0  0
 11 92  1  0  0  0
 12 13  2  0  0  0
 12 93  1  0  0  0
 13 14  1  0  0  0
 13 31  1  0  0  0
 14 15  2  0  0  0
 14 94  1  0  0  0
 15 95  1  0  0  0
 16 17  2  0  0  0
 16 21  1  0  0  0
 16 31  1  0  0  0
 17 18  1  0  0  0
 17 96  1  0  0  0
 18 19  2  0  0  0
 18 97  1  0  0  0
 19 20  1  0  0  0
 19 24  1  0  0  0
 20 21  2  0  0  0
 20 98  1  0  0  0
 21 23  1  0  0  0
 22 28  1  0  0  0
 22 32  2  0  0  0
 26 27  1  0  0  0
 28 99  1  0  0  0
 28100  1  0  0  0
 29101  1  0  0  0
 29102  1  0  0  0
 33 34  1  0  0  0
 33 66  1  0  0  0
 33 70  2  0  0  0
 34 36  1  0  0  0
 34 59  1  0  0  0
 34103  1  0  0  0
 35 44  2  0  0  0
 35 45  1  0  0  0
 35 68  1  0  0  0
 36 56  1  0  0  0
 36104  1  0  0  0
 37 39  1  0  0  0
 37 47  1  0  0  0
 37 66  1  0  0  0
 37105  1  0  0  0
 38 43  2  0  0  0
 38 46  1  0  0  0
 38 47  1  0  0  0
 39 64  1  0  0  0
 39 67  2  0  0  0
 40 52  1  0  0  0
 40 53  2  0  0  0
 40 58  1  0  0  0
 41106  1  0  0  0
 41107  1  0  0  0
 41108  1  0  0  0
 41 48  1  0  0  0
 42 43  1  0  0  0
 42 66  1  0  0  0
 42109  1  0  0  0
 42110  1  0  0  0
 43 44  1  0  0  0
 44111  1  0  0  0
 45 46  2  0  0  0
 45112  1  0  0  0
 46113  1  0  0  0
 47114  1  0  0  0
 47115  1  0  0  0
 48 56  1  0  0  0
 48 65  1  0  0  0
 48116  1  0  0  0
 49 50  1  0  0  0
 49 53  1  0  0  0
 49 64  1  0  0  0
 49117  1  0  0  0
 50 51  1  0  0  0
 50118  1  0  0  0
 50119  1  0  0  0
 51 52  1  0  0  0
 51120  1  0  0  0
 51121  1  0  0  0
 52122  1  0  0  0
 52123  1  0  0  0
 53 54  1  0  0  0
 54 55  2  0  0  0
 54124  1  0  0  0
 55 57  1  0  0  0
 55125  1  0  0  0
 56 69  2  0  0  0
 57 58  2  0  0  0
 57126  1  0  0  0
 58127  1  0  0  0
 59 60  1  0  0  0
 59 61  1  0  0  0
 59 62  1  0  0  0
 60128  1  0  0  0
 60129  1  0  0  0
 60130  1  0  0  0
 61131  1  0  0  0
 61132  1  0  0  0
 61133  1  0  0  0
 62134  1  0  0  0
 62135  1  0  0  0
 62136  1  0  0  0
 63 65  1  0  0  0
 63137  1  0  0  0
 63138  1  0  0  0
 63139  1  0  0  0
 64140  1  0  0  0
 65141  1  0  0  0
 68 78  1  0  0  0
 71 73  2  0  0  0
 71 81  1  0  0  0
 71142  1  0  0  0
 72 80  2  0  0  0
 72 81  1  0  0  0
 72143  1  0  0  0
 73 76  1  0  0  0
 73 80  1  0  0  0
 74144  1  0  0  0
 74145  1  0  0  0
 74146  1  0  0  0
 74 79  1  0  0  0
 75 79  1  0  0  0
 75147  1  0  0  0
 75148  1  0  0  0
 75149  1  0  0  0
 76 78  1  0  0  0
 76150  1  0  0  0
 76151  1  0  0  0
 77 79  1  0  0  0
 77 82  1  0  0  0
 77152  1  0  0  0
 77153  1  0  0  0
 78154  1  0  0  0
 78155  1  0  0  0
 79 81  1  0  0  0
 82156  1  0  0  0
M  ISO  4   1 100  68 101  78 101  82 100
M  END
> <chiral flag>
0

> <version>
0

> <s_m_source_file>
/data/baiqing/PycharmProjects/Reinvent-master-3.2/result/LINK_invent/BTK/process_docking_weight1_custom_sum_contain_oxygen_bond_distance_aromatic_linkinvent_7_9_3/rearranged_h_0052.sdf

> <i_m_source_file_index>
69

> <r_mmod_Potential_Energy-OPLS-2005>
119.614311218262

> <r_mmod_Stretch_Energy-OPLS-2005>
124.600311279297

> <r_mmod_Bend_Energy-OPLS-2005>
174.013565063477

> <r_mmod_Torsional_Energy-OPLS-2005>
253.885025024414

> <r_mmod_Improper_Torsional_Energy-OPLS-2005>
5.9136061668396

> <r_mmod_Van_der_Waal_Energy-OPLS-2005>
113.439804077148

> <r_mmod_Electrostatic_Energy-OPLS-2005>
-408.923645019531

> <r_mmod_Solvation_Energy-OPLS-2005>
-228.197479248047

> <b_mmod_Minimization_Converged-OPLS-2005>
0

> <r_mmod_RMS_Derivative-OPLS-2005>
1.97709608078003

$$$$
69
                    3D
 Structure written by MMmdl.
173181  0  0  1  0            999 V2000
  -30.7679  -14.5593   20.4788 C   0  0  0  0  0  0
  -30.3970  -12.3463   19.4366 C   0  0  0  0  0  0
  -29.4857  -12.4897   18.2011 C   0  0  0  0  0  0
  -28.0101  -12.3165   18.6072 C   0  0  0  0  0  0
  -27.6136  -13.1807   19.8330 C   0  0  2  0  0  0
  -28.6765  -13.0941   20.9548 C   0  0  0  0  0  0
  -25.2510  -13.8055   20.5753 C   0  0  0  0  0  0
  -24.1764  -13.0303   20.9239 C   0  0  0  0  0  0
  -24.6302  -11.6790   20.8697 C   0  0  0  0  0  0
  -23.8984  -10.4233   21.0426 C   0  0  0  0  0  0
  -24.3578   -9.4199   21.9237 C   0  0  0  0  0  0
  -23.6290   -8.2219   22.0770 C   0  0  0  0  0  0
  -22.4265   -8.0292   21.3543 C   0  0  0  0  0  0
  -21.9863   -9.0264   20.4620 C   0  0  0  0  0  0
  -22.7161  -10.2152   20.3081 C   0  0  0  0  0  0
  -21.6839   -6.0729   22.5298 C   0  0  0  0  0  0
  -21.3972   -6.5621   23.8249 C   0  0  0  0  0  0
  -21.3653   -5.6761   24.9196 C   0  0  0  0  0  0
  -21.6029   -4.3033   24.7218 C   0  0  0  0  0  0
  -21.8816   -3.8134   23.4362 C   0  0  0  0  0  0
  -21.9222   -4.6964   22.3406 C   0  0  0  0  0  0
  -22.7839  -13.5172   21.1874 C   0  0  0  0  0  0
  -22.1717   -4.2133   21.0988 F   0  0  0  0  0  0
  -21.5639   -3.4557   25.7766 F   0  0  0  0  0  0
  -30.0170  -13.3998   20.4067 N   0  0  0  0  0  0
  -26.2775  -12.9065   20.3217 N   0  0  0  0  0  0
  -25.9159  -11.6261   20.5579 N   0  0  0  0  0  0
  -22.0418  -12.8222   22.0424 N   0  0  0  0  0  0
  -25.4174  -15.1806   20.4261 N   0  0  0  0  0  0
  -31.9246  -14.5005   20.0777 O   0  0  0  0  0  0
  -21.6652   -6.8887   21.4268 O   0  0  0  0  0  0
  -22.3584  -14.5460   20.6694 O   0  0  0  0  0  0
  -24.6320  -31.8615   23.2087 C   0  0  0  0  0  0
  -25.9145  -32.4793   23.8448 C   0  0  1  0  0  0
  -27.2228  -27.3750   20.0422 C   0  0  0  0  0  0
  -25.5943  -33.8596   24.2361 N   0  0  0  0  0  0
  -23.4249  -30.4916   21.5537 C   0  0  2  0  0  0
  -24.8570  -28.9595   20.1094 C   0  0  0  0  0  0
  -22.7550  -29.4633   22.4965 C   0  0  0  0  0  0
  -18.0299  -28.1396   22.8476 C   0  0  0  0  0  0
  -24.1465  -36.7323   23.2636 C   0  0  0  0  0  0
  -25.9692  -30.7877   21.3843 C   0  0  0  0  0  0
  -26.0297  -29.4272   20.7174 C   0  0  0  0  0  0
  -27.2155  -28.6432   20.6829 C   0  0  0  0  0  0
  -26.0268  -26.9632   19.4016 C   0  0  0  0  0  0
  -24.8549  -27.7284   19.4443 C   0  0  0  0  0  0
  -23.6318  -29.8391   20.1653 C   0  0  0  0  0  0
  -25.4084  -36.3128   24.0358 C   0  0  1  0  0  0
  -20.5894  -28.3709   23.1252 C   0  0  2  0  0  0
  -20.6777  -26.9429   22.5379 C   0  0  0  0  0  0
  -19.5741  -26.6393   21.5191 C   0  0  0  0  0  0
  -18.1927  -26.7930   22.1623 C   0  0  0  0  0  0
  -19.1545  -28.8876   23.2854 C   0  0  0  0  0  0
  -18.9458  -30.1460   23.8897 C   0  0  0  0  0  0
  -17.6449  -30.6577   24.0557 C   0  0  0  0  0  0
  -25.9030  -34.9467   23.5166 C   0  0  0  0  0  0
  -16.5344  -29.9072   23.6315 C   0  0  0  0  0  0
  -16.7283  -28.6490   23.0344 C   0  0  0  0  0  0
  -26.4476  -31.6611   25.0848 C   0  0  0  0  0  0
  -25.3716  -31.3722   26.1601 C   0  0  0  0  0  0
  -27.0292  -30.3045   24.6272 C   0  0  0  0  0  0
  -27.6056  -32.4357   25.7563 C   0  0  0  0  0  0
  -27.5592  -37.1824   24.8476 C   0  0  0  0  0  0
  -21.4256  -29.3061   22.3698 N   0  0  0  0  0  0
  -26.4299  -37.3809   23.9422 N   0  0  0  0  0  0
  -24.6957  -31.0648   22.1039 N   0  0  0  0  0  0
  -23.4262  -28.8130   23.3034 O   0  0  0  0  0  0
  -28.3539  -26.5540   20.0464 O   0  0  0  0  0  0
  -26.5578  -34.8922   22.4719 O   0  0  0  0  0  0
  -23.5474  -32.1391   23.7400 O   0  0  0  0  0  0
  -32.5054  -17.2216   20.3634 C   0  0  0  0  0  0
  -33.0233  -18.4569   20.6304 C   0  0  0  0  0  0
  -30.8698  -18.4859   21.1634 C   0  0  0  0  0  0
  -29.5154  -17.2127   18.5088 C   0  0  0  0  0  0
  -28.2225  -16.2813   22.6625 C   0  0  0  0  0  0
  -30.5224  -24.5953   20.5059 C   0  0  0  0  0  0
  -29.5574  -19.1386   21.5584 C   0  0  0  0  0  0
  -29.1289  -16.3241   19.7171 C   0  0  0  0  0  0
  -29.6916  -15.9385   22.3291 C   0  0  0  0  0  0
  -29.4715  -20.6980   21.6558 C   0  0  0  0  0  0
  -29.3263  -21.5268   20.3424 C   0  0  0  0  0  0
  -28.1359  -25.1637   19.6352 C   0  0  0  0  0  0
  -29.2369  -24.0652   19.8426 C   0  0  2  0  0  0
  -30.1896  -16.0170   20.8356 C   0  0  0  0  0  0
  -31.1878  -17.1950   20.8015 N   0  0  0  0  0  0
  -32.0069  -19.1854   21.1589 N   0  3  0  0  0  0
  -28.6898  -22.8642   20.5685 N   0  3  0  0  0  0
  -31.4429  -12.3693   19.1247 H   0  0  0  0  0  0
  -30.2550  -11.3644   19.8849 H   0  0  0  0  0  0
  -29.7475  -11.7321   17.4606 H   0  0  0  0  0  0
  -29.6279  -13.4541   17.7122 H   0  0  0  0  0  0
  -27.8564  -11.2566   18.8254 H   0  0  0  0  0  0
  -27.3681  -12.5432   17.7546 H   0  0  0  0  0  0
  -27.5040  -14.1845   19.4647 H   0  0  0  0  0  0
  -28.6642  -12.0829   21.3649 H   0  0  0  0  0  0
  -28.4019  -13.7224   21.7870 H   0  0  0  0  0  0
  -25.2714   -9.5762   22.4841 H   0  0  0  0  0  0
  -24.0032   -7.4565   22.7468 H   0  0  0  0  0  0
  -21.0794   -8.8805   19.8870 H   0  0  0  0  0  0
  -22.3639  -10.9788   19.6259 H   0  0  0  0  0  0
  -21.1915   -7.6116   23.9750 H   0  0  0  0  0  0
  -21.1474   -6.0487   25.9097 H   0  0  0  0  0  0
  -22.0587   -2.7616   23.2871 H   0  0  0  0  0  0
  -22.3968  -11.9922   22.4936 H   0  0  0  0  0  0
  -21.1058  -13.1402   22.2459 H   0  0  0  0  0  0
  -24.6569  -15.8343   20.5819 H   0  0  0  0  0  0
  -26.2793  -15.6477   20.1695 H   0  0  0  0  0  0
  -26.7253  -32.5434   23.1225 H   0  0  0  0  0  0
  -25.0184  -33.9720   25.0578 H   0  0  0  0  0  0
  -22.7257  -31.3175   21.4190 H   0  0  0  0  0  0
  -23.3748  -35.9647   23.3295 H   0  0  0  0  0  0
  -24.3589  -36.8930   22.2067 H   0  0  0  0  0  0
  -23.7184  -37.6517   23.6626 H   0  0  0  0  0  0
  -26.1222  -31.5397   20.6097 H   0  0  0  0  0  0
  -26.8490  -30.8191   22.0163 H   0  0  0  0  0  0
  -28.1212  -28.9974   21.1543 H   0  0  0  0  0  0
  -25.9556  -26.0544   18.8235 H   0  0  0  0  0  0
  -23.9692  -27.3709   18.9339 H   0  0  0  0  0  0
  -23.7718  -30.6216   19.4211 H   0  0  0  0  0  0
  -22.7462  -29.2804   19.8531 H   0  0  0  0  0  0
  -25.1242  -36.2038   25.0863 H   0  0  0  0  0  0
  -20.9987  -28.3252   24.1364 H   0  0  0  0  0  0
  -20.5664  -26.2332   23.3590 H   0  0  0  0  0  0
  -21.6642  -26.7430   22.1157 H   0  0  0  0  0  0
  -19.6883  -25.6298   21.1223 H   0  0  0  0  0  0
  -19.6641  -27.3206   20.6718 H   0  0  0  0  0  0
  -17.4185  -26.6680   21.4033 H   0  0  0  0  0  0
  -18.0322  -26.0071   22.9029 H   0  0  0  0  0  0
  -19.7918  -30.7281   24.2285 H   0  0  0  0  0  0
  -17.4979  -31.6241   24.5186 H   0  0  0  0  0  0
  -15.5338  -30.2967   23.7621 H   0  0  0  0  0  0
  -15.8683  -28.0800   22.7062 H   0  0  0  0  0  0
  -24.5909  -30.7016   25.7991 H   0  0  0  0  0  0
  -24.8853  -32.2843   26.5077 H   0  0  0  0  0  0
  -25.8080  -30.8932   27.0375 H   0  0  0  0  0  0
  -26.2848  -29.6861   24.1243 H   0  0  0  0  0  0
  -27.3945  -29.7250   25.4761 H   0  0  0  0  0  0
  -27.8753  -30.4387   23.9528 H   0  0  0  0  0  0
  -27.2698  -33.3681   26.2109 H   0  0  0  0  0  0
  -28.3816  -32.6882   25.0331 H   0  0  0  0  0  0
  -28.0760  -31.8515   26.5476 H   0  0  0  0  0  0
  -28.2610  -38.0117   24.7528 H   0  0  0  0  0  0
  -28.1073  -36.2659   24.6272 H   0  0  0  0  0  0
  -27.2324  -37.1460   25.8880 H   0  0  0  0  0  0
  -20.9502  -29.8884   21.6940 H   0  0  0  0  0  0
  -26.0203  -38.2909   24.1387 H   0  0  0  0  0  0
  -33.0322  -16.4069   19.8890 H   0  0  0  0  0  0
  -34.0067  -18.8745   20.4577 H   0  0  0  0  0  0
  -28.6827  -17.2447   17.8100 H   0  0  0  0  0  0
  -30.3549  -16.7885   17.9574 H   0  0  0  0  0  0
  -29.7681  -18.2412   18.7649 H   0  0  0  0  0  0
  -27.5056  -15.5972   22.2156 H   0  0  0  0  0  0
  -27.9109  -17.2701   22.3423 H   0  0  0  0  0  0
  -28.0774  -16.2435   23.7428 H   0  0  0  0  0  0
  -30.9886  -25.3677   19.8941 H   0  0  0  0  0  0
  -31.2640  -23.8055   20.6254 H   0  0  0  0  0  0
  -30.3272  -25.0247   21.4898 H   0  0  0  0  0  0
  -29.3605  -18.7690   22.5615 H   0  0  0  0  0  0
  -28.7764  -18.7747   20.8904 H   0  0  0  0  0  0
  -28.9350  -15.4230   19.1663 H   0  0  0  0  0  0
  -28.1680  -16.6307   20.1192 H   0  0  0  0  0  0
  -29.8945  -14.9572   22.7561 H   0  0  0  0  0  0
  -30.3316  -16.5605   22.9578 H   0  0  0  0  0  0
  -30.2812  -21.0817   22.2748 H   0  0  0  0  0  0
  -28.5708  -20.8995   22.2359 H   0  0  0  0  0  0
  -28.6956  -20.9715   19.6456 H   0  0  0  0  0  0
  -30.2999  -21.6354   19.8631 H   0  0  0  0  0  0
  -27.2432  -24.8007   20.1435 H   0  0  0  0  0  0
  -27.8982  -25.1613   18.5676 H   0  0  0  0  0  0
  -29.5053  -23.7302   18.8382 H   0  0  0  0  0  0
  -32.0967  -20.1327   21.5053 H   0  0  0  0  0  0
  -28.6792  -23.0623   21.5544 H   0  0  0  0  0  0
  -27.7224  -22.7541   20.2903 H   0  0  0  0  0  0
  1 25  1  0  0  0
  1 30  2  0  0  0
  1 84  1  0  0  0
  2  3  1  0  0  0
  2 25  1  0  0  0
  2 88  1  0  0  0
  2 89  1  0  0  0
  3  4  1  0  0  0
  3 90  1  0  0  0
  3 91  1  0  0  0
  4  5  1  0  0  0
  4 92  1  0  0  0
  4 93  1  0  0  0
  5  6  1  0  0  0
  5 26  1  0  0  0
  5 94  1  0  0  0
  6 25  1  0  0  0
  6 95  1  0  0  0
  6 96  1  0  0  0
  7  8  2  0  0  0
  7 26  1  0  0  0
  7 29  1  0  0  0
  8  9  1  0  0  0
  8 22  1  0  0  0
  9 10  1  0  0  0
  9 27  2  0  0  0
 10 11  2  0  0  0
 10 15  1  0  0  0
 11 12  1  0  0  0
 11 97  1  0  0  0
 12 13  2  0  0  0
 12 98  1  0  0  0
 13 14  1  0  0  0
 13 31  1  0  0  0
 14 15  2  0  0  0
 14 99  1  0  0  0
 15100  1  0  0  0
 16 17  2  0  0  0
 16 21  1  0  0  0
 16 31  1  0  0  0
 17 18  1  0  0  0
 17101  1  0  0  0
 18 19  2  0  0  0
 18102  1  0  0  0
 19 20  1  0  0  0
 19 24  1  0  0  0
 20 21  2  0  0  0
 20103  1  0  0  0
 21 23  1  0  0  0
 22 28  1  0  0  0
 22 32  2  0  0  0
 26 27  1  0  0  0
 28104  1  0  0  0
 28105  1  0  0  0
 29106  1  0  0  0
 29107  1  0  0  0
 33 34  1  0  0  0
 33 66  1  0  0  0
 33 70  2  0  0  0
 34 36  1  0  0  0
 34 59  1  0  0  0
 34108  1  0  0  0
 35 44  2  0  0  0
 35 45  1  0  0  0
 35 68  1  0  0  0
 36 56  1  0  0  0
 36109  1  0  0  0
 37 39  1  0  0  0
 37 47  1  0  0  0
 37 66  1  0  0  0
 37110  1  0  0  0
 38 43  2  0  0  0
 38 46  1  0  0  0
 38 47  1  0  0  0
 39 64  1  0  0  0
 39 67  2  0  0  0
 40 52  1  0  0  0
 40 53  2  0  0  0
 40 58  1  0  0  0
 41111  1  0  0  0
 41112  1  0  0  0
 41113  1  0  0  0
 41 48  1  0  0  0
 42 43  1  0  0  0
 42 66  1  0  0  0
 42114  1  0  0  0
 42115  1  0  0  0
 43 44  1  0  0  0
 44116  1  0  0  0
 45 46  2  0  0  0
 45117  1  0  0  0
 46118  1  0  0  0
 47119  1  0  0  0
 47120  1  0  0  0
 48 56  1  0  0  0
 48 65  1  0  0  0
 48121  1  0  0  0
 49 50  1  0  0  0
 49 53  1  0  0  0
 49 64  1  0  0  0
 49122  1  0  0  0
 50 51  1  0  0  0
 50123  1  0  0  0
 50124  1  0  0  0
 51 52  1  0  0  0
 51125  1  0  0  0
 51126  1  0  0  0
 52127  1  0  0  0
 52128  1  0  0  0
 53 54  1  0  0  0
 54 55  2  0  0  0
 54129  1  0  0  0
 55 57  1  0  0  0
 55130  1  0  0  0
 56 69  2  0  0  0
 57 58  2  0  0  0
 57131  1  0  0  0
 58132  1  0  0  0
 59 60  1  0  0  0
 59 61  1  0  0  0
 59 62  1  0  0  0
 60133  1  0  0  0
 60134  1  0  0  0
 60135  1  0  0  0
 61136  1  0  0  0
 61137  1  0  0  0
 61138  1  0  0  0
 62139  1  0  0  0
 62140  1  0  0  0
 62141  1  0  0  0
 63 65  1  0  0  0
 63142  1  0  0  0
 63143  1  0  0  0
 63144  1  0  0  0
 64145  1  0  0  0
 65146  1  0  0  0
 68 82  1  0  0  0
 71 72  2  0  0  0
 71 85  1  0  0  0
 71147  1  0  0  0
 72 86  1  0  0  0
 72148  1  0  0  0
 73 77  1  0  0  0
 73 85  1  0  0  0
 73 86  2  0  0  0
 74 78  1  0  0  0
 74149  1  0  0  0
 74150  1  0  0  0
 74151  1  0  0  0
 75 79  1  0  0  0
 75152  1  0  0  0
 75153  1  0  0  0
 75154  1  0  0  0
 76155  1  0  0  0
 76156  1  0  0  0
 76157  1  0  0  0
 76 83  1  0  0  0
 77 80  1  0  0  0
 77158  1  0  0  0
 77159  1  0  0  0
 78160  1  0  0  0
 78161  1  0  0  0
 78 84  1  0  0  0
 79 84  1  0  0  0
 79162  1  0  0  0
 79163  1  0  0  0
 80 81  1  0  0  0
 80164  1  0  0  0
 80165  1  0  0  0
 81 87  1  0  0  0
 81166  1  0  0  0
 81167  1  0  0  0
 82 83  1  0  0  0
 82168  1  0  0  0
 82169  1  0  0  0
 83 87  1  0  0  0
 83170  1  0  0  0
 84 85  1  0  0  0
 86171  1  0  0  0
 87172  1  0  0  0
 87173  1  0  0  0
M  CHG  2  86   1  87   1
M  ISO  4   1 100  68 101  82 101  84 100
M  END
> <chiral flag>
0

> <version>
0

> <s_m_source_file>
/data/baiqing/PycharmProjects/Reinvent-master-3.2/result/LINK_invent/BTK/process_docking_weight1_custom_sum_contain_oxygen_bond_distance_aromatic_linkinvent_7_9_3/rearranged_h_0052.sdf

> <i_m_source_file_index>
70

> <r_mmod_Potential_Energy-OPLS-2005>
134.803833007812

> <r_mmod_Stretch_Energy-OPLS-2005>
80.8460083007812

> <r_mmod_Bend_Energy-OPLS-2005>
185.091323852539

> <r_mmod_Torsional_Energy-OPLS-2005>
282.256530761719

> <r_mmod_Improper_Torsional_Energy-OPLS-2005>
4.26272058486938

> <r_mmod_Van_der_Waal_Energy-OPLS-2005>
179.936401367188

> <r_mmod_Electrostatic_Energy-OPLS-2005>
226.126800537109

> <r_mmod_Solvation_Energy-OPLS-2005>
-864.456665039062

> <b_mmod_Minimization_Converged-OPLS-2005>
0

> <r_mmod_RMS_Derivative-OPLS-2005>
7.55372142791748

$$$$
70
                    3D
 Structure written by MMmdl.
152160  0  0  1  0            999 V2000
  -30.7001  -14.4844   20.5951 C   0  0  0  0  0  0
  -30.4250  -12.3276   19.4076 C   0  0  0  0  0  0
  -29.4883  -12.5085   18.1964 C   0  0  0  0  0  0
  -28.0105  -12.3684   18.6138 C   0  0  0  0  0  0
  -27.6582  -13.2100   19.8707 C   0  0  2  0  0  0
  -28.7034  -12.9941   20.9869 C   0  0  0  0  0  0
  -25.2575  -13.8177   20.5703 C   0  0  0  0  0  0
  -24.1827  -13.0446   20.9195 C   0  0  0  0  0  0
  -24.6395  -11.6922   20.8751 C   0  0  0  0  0  0
  -23.9072  -10.4302   21.0409 C   0  0  0  0  0  0
  -24.3625   -9.4214   21.9184 C   0  0  0  0  0  0
  -23.6298   -8.2246   22.0753 C   0  0  0  0  0  0
  -22.4278   -8.0286   21.3547 C   0  0  0  0  0  0
  -21.9916   -9.0260   20.4651 C   0  0  0  0  0  0
  -22.7246  -10.2141   20.3064 C   0  0  0  0  0  0
  -21.6848   -6.0740   22.5283 C   0  0  0  0  0  0
  -21.4012   -6.5640   23.8221 C   0  0  0  0  0  0
  -21.3666   -5.6791   24.9180 C   0  0  0  0  0  0
  -21.6040   -4.3053   24.7225 C   0  0  0  0  0  0
  -21.8819   -3.8150   23.4344 C   0  0  0  0  0  0
  -21.9191   -4.6967   22.3404 C   0  0  0  0  0  0
  -22.7851  -13.5246   21.1834 C   0  0  0  0  0  0
  -22.1658   -4.2158   21.0980 F   0  0  0  0  0  0
  -21.5625   -3.4540   25.7734 F   0  0  0  0  0  0
  -30.0276  -13.3122   20.4273 N   0  0  0  0  0  0
  -26.3012  -12.9354   20.3373 N   0  0  0  0  0  0
  -25.9323  -11.6512   20.5777 N   0  0  0  0  0  0
  -22.0477  -12.8267   22.0404 N   0  0  0  0  0  0
  -25.4275  -15.1899   20.4136 N   0  0  0  0  0  0
  -31.8264  -14.6777   20.1281 O   0  0  0  0  0  0
  -21.6637   -6.8886   21.4246 O   0  0  0  0  0  0
  -22.3552  -14.5544   20.6666 O   0  0  0  0  0  0
  -24.6187  -31.8652   23.2064 C   0  0  0  0  0  0
  -25.9069  -32.4820   23.8370 C   0  0  1  0  0  0
  -27.2330  -27.4016   20.0978 C   0  0  0  0  0  0
  -25.5895  -33.8616   24.2287 N   0  0  0  0  0  0
  -23.4071  -30.4899   21.5489 C   0  0  2  0  0  0
  -24.8515  -28.9518   20.1157 C   0  0  0  0  0  0
  -22.7422  -29.4661   22.4980 C   0  0  0  0  0  0
  -18.0263  -28.1389   22.8496 C   0  0  0  0  0  0
  -24.1481  -36.7300   23.2638 C   0  0  0  0  0  0
  -25.9401  -30.8226   21.3625 C   0  0  0  0  0  0
  -26.0168  -29.4548   20.7077 C   0  0  0  0  0  0
  -27.2110  -28.6900   20.6907 C   0  0  0  0  0  0
  -26.0440  -26.9244   19.4979 C   0  0  0  0  0  0
  -24.8623  -27.6863   19.5064 C   0  0  0  0  0  0
  -23.6141  -29.8198   20.1650 C   0  0  0  0  0  0
  -25.4115  -36.3119   24.0331 C   0  0  1  0  0  0
  -20.5858  -28.3671   23.1305 C   0  0  2  0  0  0
  -20.6761  -26.9407   22.5415 C   0  0  0  0  0  0
  -19.5737  -26.6388   21.5216 C   0  0  0  0  0  0
  -18.1909  -26.7935   22.1625 C   0  0  0  0  0  0
  -19.1518  -28.8848   23.2894 C   0  0  0  0  0  0
  -18.9454  -30.1454   23.8907 C   0  0  0  0  0  0
  -17.6460  -30.6596   24.0575 C   0  0  0  0  0  0
  -25.9041  -34.9484   23.5109 C   0  0  0  0  0  0
  -16.5344  -29.9103   23.6340 C   0  0  0  0  0  0
  -16.7254  -28.6518   23.0359 C   0  0  0  0  0  0
  -26.4464  -31.6629   25.0724 C   0  0  0  0  0  0
  -25.3691  -31.3786   26.1448 C   0  0  0  0  0  0
  -27.0296  -30.3061   24.6142 C   0  0  0  0  0  0
  -27.6025  -32.4367   25.7492 C   0  0  0  0  0  0
  -27.5581  -37.1810   24.8471 C   0  0  0  0  0  0
  -21.4145  -29.3042   22.3720 N   0  0  0  0  0  0
  -26.4299  -37.3810   23.9413 N   0  0  0  0  0  0
  -24.6739  -31.0744   22.0968 N   0  0  0  0  0  0
  -23.4182  -28.8192   23.3026 O   0  0  0  0  0  0
  -28.3937  -26.6400   20.1078 O   0  0  0  0  0  0
  -26.5620  -34.8944   22.4682 O   0  0  0  0  0  0
  -23.5375  -32.1398   23.7445 O   0  0  0  0  0  0
  -30.0604  -19.1521   22.2656 C   0  0  0  0  0  0
  -30.0632  -18.4504   20.0018 C   0  0  0  0  0  0
  -30.1976  -18.0868   21.3538 C   0  0  0  0  0  0
  -29.7237  -20.6540   20.5684 C   0  0  0  0  0  0
  -30.6035  -16.6783   21.8535 C   0  0  0  0  0  0
  -29.5834  -24.4569   20.4390 C   0  0  0  0  0  0
  -28.2385  -25.2007   20.2162 C   0  0  0  0  0  0
  -29.5102  -23.0234   21.0633 C   0  0  0  0  0  0
  -29.8207  -20.4227   21.8744 N   0  0  0  0  0  0
  -29.8236  -19.7292   19.6187 N   0  0  0  0  0  0
  -30.0244  -15.4669   21.2328 N   0  0  0  0  0  0
  -29.5222  -21.9300   20.1185 O   0  0  0  0  0  0
  -31.4641  -12.4437   19.0944 H   0  0  0  0  0  0
  -30.3443  -11.3152   19.8079 H   0  0  0  0  0  0
  -29.7254  -11.7791   17.4214 H   0  0  0  0  0  0
  -29.6504  -13.4921   17.7532 H   0  0  0  0  0  0
  -27.8233  -11.3117   18.8129 H   0  0  0  0  0  0
  -27.3584  -12.6423   17.7834 H   0  0  0  0  0  0
  -27.7004  -14.2584   19.5732 H   0  0  0  0  0  0
  -28.6892  -11.9560   21.3208 H   0  0  0  0  0  0
  -28.4597  -13.5848   21.8709 H   0  0  0  0  0  0
  -25.2771   -9.5684   22.4772 H   0  0  0  0  0  0
  -24.0002   -7.4641   22.7485 H   0  0  0  0  0  0
  -21.0838   -8.8793   19.8978 H   0  0  0  0  0  0
  -22.3701  -10.9684   19.6184 H   0  0  0  0  0  0
  -21.2003   -7.6150   23.9728 H   0  0  0  0  0  0
  -21.1491   -6.0520   25.9086 H   0  0  0  0  0  0
  -22.0592   -2.7616   23.2836 H   0  0  0  0  0  0
  -22.4056  -11.9932   22.4830 H   0  0  0  0  0  0
  -21.1103  -13.1328   22.2583 H   0  0  0  0  0  0
  -24.6600  -15.8440   20.5310 H   0  0  0  0  0  0
  -26.2809  -15.6368   20.1024 H   0  0  0  0  0  0
  -26.7143  -32.5511   23.1140 H   0  0  0  0  0  0
  -25.0089  -33.9780   25.0461 H   0  0  0  0  0  0
  -22.6988  -31.3089   21.4083 H   0  0  0  0  0  0
  -23.3756  -35.9618   23.3330 H   0  0  0  0  0  0
  -24.3565  -36.8885   22.2046 H   0  0  0  0  0  0
  -23.7217  -37.6501   23.6636 H   0  0  0  0  0  0
  -26.0585  -31.5874   20.5928 H   0  0  0  0  0  0
  -26.8269  -30.8735   21.9838 H   0  0  0  0  0  0
  -28.1096  -29.0760   21.1522 H   0  0  0  0  0  0
  -26.0079  -25.9626   19.0095 H   0  0  0  0  0  0
  -23.9665  -27.2889   19.0456 H   0  0  0  0  0  0
  -23.7226  -30.5900   19.4001 H   0  0  0  0  0  0
  -22.7367  -29.2383   19.8736 H   0  0  0  0  0  0
  -25.1298  -36.1982   25.0824 H   0  0  0  0  0  0
  -20.9954  -28.3248   24.1423 H   0  0  0  0  0  0
  -20.5662  -26.2288   23.3604 H   0  0  0  0  0  0
  -21.6632  -26.7453   22.1211 H   0  0  0  0  0  0
  -19.6893  -25.6301   21.1234 H   0  0  0  0  0  0
  -19.6678  -27.3216   20.6760 H   0  0  0  0  0  0
  -17.4186  -26.6681   21.4021 H   0  0  0  0  0  0
  -18.0309  -26.0071   22.9019 H   0  0  0  0  0  0
  -19.7934  -30.7259   24.2281 H   0  0  0  0  0  0
  -17.5024  -31.6280   24.5178 H   0  0  0  0  0  0
  -15.5352  -30.3022   23.7661 H   0  0  0  0  0  0
  -15.8642  -28.0847   22.7080 H   0  0  0  0  0  0
  -24.5847  -30.7159   25.7785 H   0  0  0  0  0  0
  -24.8902  -32.2971   26.4859 H   0  0  0  0  0  0
  -25.7995  -30.8971   27.0235 H   0  0  0  0  0  0
  -26.2867  -29.6841   24.1133 H   0  0  0  0  0  0
  -27.3980  -29.7302   25.4643 H   0  0  0  0  0  0
  -27.8743  -30.4379   23.9370 H   0  0  0  0  0  0
  -27.2622  -33.3666   26.2068 H   0  0  0  0  0  0
  -28.3825  -32.6933   25.0310 H   0  0  0  0  0  0
  -28.0691  -31.8490   26.5403 H   0  0  0  0  0  0
  -28.2629  -38.0079   24.7523 H   0  0  0  0  0  0
  -28.1040  -36.2619   24.6305 H   0  0  0  0  0  0
  -27.2288  -37.1477   25.8867 H   0  0  0  0  0  0
  -20.9307  -29.8775   21.6947 H   0  0  0  0  0  0
  -26.0182  -38.2884   24.1416 H   0  0  0  0  0  0
  -30.1697  -18.9925   23.3294 H   0  0  0  0  0  0
  -30.1795  -17.7163   19.2185 H   0  0  0  0  0  0
  -30.3494  -16.6192   22.9140 H   0  0  0  0  0  0
  -31.6923  -16.6232   21.8279 H   0  0  0  0  0  0
  -30.1655  -25.0717   21.1252 H   0  0  0  0  0  0
  -30.1594  -24.4357   19.5138 H   0  0  0  0  0  0
  -27.7693  -24.7849   19.3261 H   0  0  0  0  0  0
  -27.5724  -24.9934   21.0559 H   0  0  0  0  0  0
  -28.6388  -22.9402   21.7153 H   0  0  0  0  0  0
  -30.3855  -22.9203   21.7069 H   0  0  0  0  0  0
  -29.0902  -15.2126   21.5196 H   0  0  0  0  0  0
  1 25  1  0  0  0
  1 30  2  0  0  0
  1 81  1  0  0  0
  2  3  1  0  0  0
  2 25  1  0  0  0
  2 83  1  0  0  0
  2 84  1  0  0  0
  3  4  1  0  0  0
  3 85  1  0  0  0
  3 86  1  0  0  0
  4  5  1  0  0  0
  4 87  1  0  0  0
  4 88  1  0  0  0
  5  6  1  0  0  0
  5 26  1  0  0  0
  5 89  1  0  0  0
  6 25  1  0  0  0
  6 90  1  0  0  0
  6 91  1  0  0  0
  7  8  2  0  0  0
  7 26  1  0  0  0
  7 29  1  0  0  0
  8  9  1  0  0  0
  8 22  1  0  0  0
  9 10  1  0  0  0
  9 27  2  0  0  0
 10 11  2  0  0  0
 10 15  1  0  0  0
 11 12  1  0  0  0
 11 92  1  0  0  0
 12 13  2  0  0  0
 12 93  1  0  0  0
 13 14  1  0  0  0
 13 31  1  0  0  0
 14 15  2  0  0  0
 14 94  1  0  0  0
 15 95  1  0  0  0
 16 17  2  0  0  0
 16 21  1  0  0  0
 16 31  1  0  0  0
 17 18  1  0  0  0
 17 96  1  0  0  0
 18 19  2  0  0  0
 18 97  1  0  0  0
 19 20  1  0  0  0
 19 24  1  0  0  0
 20 21  2  0  0  0
 20 98  1  0  0  0
 21 23  1  0  0  0
 22 28  1  0  0  0
 22 32  2  0  0  0
 26 27  1  0  0  0
 28 99  1  0  0  0
 28100  1  0  0  0
 29101  1  0  0  0
 29102  1  0  0  0
 33 34  1  0  0  0
 33 66  1  0  0  0
 33 70  2  0  0  0
 34 36  1  0  0  0
 34 59  1  0  0  0
 34103  1  0  0  0
 35 44  2  0  0  0
 35 45  1  0  0  0
 35 68  1  0  0  0
 36 56  1  0  0  0
 36104  1  0  0  0
 37 39  1  0  0  0
 37 47  1  0  0  0
 37 66  1  0  0  0
 37105  1  0  0  0
 38 43  2  0  0  0
 38 46  1  0  0  0
 38 47  1  0  0  0
 39 64  1  0  0  0
 39 67  2  0  0  0
 40 52  1  0  0  0
 40 53  2  0  0  0
 40 58  1  0  0  0
 41106  1  0  0  0
 41107  1  0  0  0
 41108  1  0  0  0
 41 48  1  0  0  0
 42 43  1  0  0  0
 42 66  1  0  0  0
 42109  1  0  0  0
 42110  1  0  0  0
 43 44  1  0  0  0
 44111  1  0  0  0
 45 46  2  0  0  0
 45112  1  0  0  0
 46113  1  0  0  0
 47114  1  0  0  0
 47115  1  0  0  0
 48 56  1  0  0  0
 48 65  1  0  0  0
 48116  1  0  0  0
 49 50  1  0  0  0
 49 53  1  0  0  0
 49 64  1  0  0  0
 49117  1  0  0  0
 50 51  1  0  0  0
 50118  1  0  0  0
 50119  1  0  0  0
 51 52  1  0  0  0
 51120  1  0  0  0
 51121  1  0  0  0
 52122  1  0  0  0
 52123  1  0  0  0
 53 54  1  0  0  0
 54 55  2  0  0  0
 54124  1  0  0  0
 55 57  1  0  0  0
 55125  1  0  0  0
 56 69  2  0  0  0
 57 58  2  0  0  0
 57126  1  0  0  0
 58127  1  0  0  0
 59 60  1  0  0  0
 59 61  1  0  0  0
 59 62  1  0  0  0
 60128  1  0  0  0
 60129  1  0  0  0
 60130  1  0  0  0
 61131  1  0  0  0
 61132  1  0  0  0
 61133  1  0  0  0
 62134  1  0  0  0
 62135  1  0  0  0
 62136  1  0  0  0
 63 65  1  0  0  0
 63137  1  0  0  0
 63138  1  0  0  0
 63139  1  0  0  0
 64140  1  0  0  0
 65141  1  0  0  0
 68 77  1  0  0  0
 71 73  2  0  0  0
 71 79  1  0  0  0
 71142  1  0  0  0
 72 73  1  0  0  0
 72 80  2  0  0  0
 72143  1  0  0  0
 73 75  1  0  0  0
 74 79  2  0  0  0
 74 80  1  0  0  0
 74 82  1  0  0  0
 75 81  1  0  0  0
 75144  1  0  0  0
 75145  1  0  0  0
 76 77  1  0  0  0
 76 78  1  0  0  0
 76146  1  0  0  0
 76147  1  0  0  0
 77148  1  0  0  0
 77149  1  0  0  0
 78 82  1  0  0  0
 78150  1  0  0  0
 78151  1  0  0  0
 81152  1  0  0  0
M  ISO  4   1 100  68 101  77 101  81 100
M  END
> <chiral flag>
0

> <version>
0

> <s_m_source_file>
/data/baiqing/PycharmProjects/Reinvent-master-3.2/result/LINK_invent/BTK/process_docking_weight1_custom_sum_contain_oxygen_bond_distance_aromatic_linkinvent_7_9_3/rearranged_h_0052.sdf

> <i_m_source_file_index>
71

> <r_mmod_Potential_Energy-OPLS-2005>
-418.297576904297

> <r_mmod_Stretch_Energy-OPLS-2005>
44.3528938293457

> <r_mmod_Bend_Energy-OPLS-2005>
116.040092468262

> <r_mmod_Torsional_Energy-OPLS-2005>
208.700912475586

> <r_mmod_Improper_Torsional_Energy-OPLS-2005>
3.30507826805115

> <r_mmod_Van_der_Waal_Energy-OPLS-2005>
166.458633422852

> <r_mmod_Electrostatic_Energy-OPLS-2005>
-743.48046875

> <r_mmod_Solvation_Energy-OPLS-2005>
-229.612731933594

> <b_mmod_Minimization_Converged-OPLS-2005>
0

> <r_mmod_RMS_Derivative-OPLS-2005>
2.22423577308655

$$$$
71
                    3D
 Structure written by MMmdl.
165173  0  0  1  0            999 V2000
  -30.6941  -14.4969   20.5496 C   0  0  0  0  0  0
  -30.4215  -12.2857   19.4746 C   0  0  0  0  0  0
  -29.5210  -12.4457   18.2329 C   0  0  0  0  0  0
  -28.0260  -12.3539   18.6135 C   0  0  0  0  0  0
  -27.6531  -13.2102   19.8594 C   0  0  2  0  0  0
  -28.6855  -13.0107   20.9895 C   0  0  0  0  0  0
  -25.2493  -13.8069   20.5606 C   0  0  0  0  0  0
  -24.1773  -13.0385   20.9135 C   0  0  0  0  0  0
  -24.6336  -11.6846   20.8688 C   0  0  0  0  0  0
  -23.8984  -10.4273   21.0377 C   0  0  0  0  0  0
  -24.3526   -9.4185   21.9147 C   0  0  0  0  0  0
  -23.6189   -8.2268   22.0741 C   0  0  0  0  0  0
  -22.4187   -8.0270   21.3536 C   0  0  0  0  0  0
  -21.9809   -9.0236   20.4607 C   0  0  0  0  0  0
  -22.7158  -10.2095   20.2996 C   0  0  0  0  0  0
  -21.6867   -6.0650   22.5277 C   0  0  0  0  0  0
  -21.4070   -6.5567   23.8207 C   0  0  0  0  0  0
  -21.3685   -5.6738   24.9186 C   0  0  0  0  0  0
  -21.6019   -4.3007   24.7255 C   0  0  0  0  0  0
  -21.8813   -3.8069   23.4408 C   0  0  0  0  0  0
  -21.9206   -4.6868   22.3430 C   0  0  0  0  0  0
  -22.7768  -13.5152   21.1849 C   0  0  0  0  0  0
  -22.1681   -4.2035   21.1020 F   0  0  0  0  0  0
  -21.5601   -3.4493   25.7795 F   0  0  0  0  0  0
  -30.0139  -13.3179   20.4410 N   0  0  0  0  0  0
  -26.2955  -12.9292   20.3235 N   0  0  0  0  0  0
  -25.9275  -11.6444   20.5711 N   0  0  0  0  0  0
  -22.0416  -12.8173   22.0389 N   0  0  0  0  0  0
  -25.4226  -15.1794   20.4132 N   0  0  0  0  0  0
  -31.8714  -14.6010   20.1934 O   0  0  0  0  0  0
  -21.6599   -6.8824   21.4251 O   0  0  0  0  0  0
  -22.3454  -14.5481   20.6709 O   0  0  0  0  0  0
  -24.6168  -31.8626   23.2103 C   0  0  0  0  0  0
  -25.9066  -32.4806   23.8364 C   0  0  1  0  0  0
  -27.2255  -27.4115   20.1182 C   0  0  0  0  0  0
  -25.5912  -33.8620   24.2292 N   0  0  0  0  0  0
  -23.4033  -30.4976   21.5452 C   0  0  2  0  0  0
  -24.8477  -28.9685   20.1014 C   0  0  0  0  0  0
  -22.7433  -29.4666   22.4929 C   0  0  0  0  0  0
  -18.0278  -28.1440   22.8473 C   0  0  0  0  0  0
  -24.1499  -36.7297   23.2652 C   0  0  0  0  0  0
  -25.9332  -30.8345   21.3598 C   0  0  0  0  0  0
  -26.0083  -29.4706   20.7020 C   0  0  0  0  0  0
  -27.1978  -28.7022   20.7001 C   0  0  0  0  0  0
  -26.0483  -26.9411   19.4866 C   0  0  0  0  0  0
  -24.8694  -27.7116   19.4756 C   0  0  0  0  0  0
  -23.6106  -29.8415   20.1554 C   0  0  0  0  0  0
  -25.4097  -36.3087   24.0338 C   0  0  1  0  0  0
  -20.5889  -28.3699   23.1305 C   0  0  2  0  0  0
  -20.6792  -26.9431   22.5429 C   0  0  0  0  0  0
  -19.5774  -26.6389   21.5242 C   0  0  0  0  0  0
  -18.1929  -26.7970   22.1611 C   0  0  0  0  0  0
  -19.1551  -28.8872   23.2897 C   0  0  0  0  0  0
  -18.9480  -30.1486   23.8904 C   0  0  0  0  0  0
  -17.6492  -30.6619   24.0590 C   0  0  0  0  0  0
  -25.9011  -34.9468   23.5092 C   0  0  0  0  0  0
  -16.5362  -29.9137   23.6388 C   0  0  0  0  0  0
  -16.7266  -28.6585   23.0321 C   0  0  0  0  0  0
  -26.4473  -31.6623   25.0724 C   0  0  0  0  0  0
  -25.3728  -31.3755   26.1463 C   0  0  0  0  0  0
  -27.0301  -30.3067   24.6100 C   0  0  0  0  0  0
  -27.6035  -32.4351   25.7482 C   0  0  0  0  0  0
  -27.5569  -37.1790   24.8455 C   0  0  0  0  0  0
  -21.4148  -29.3060   22.3709 N   0  0  0  0  0  0
  -26.4271  -37.3778   23.9418 N   0  0  0  0  0  0
  -24.6690  -31.0777   22.0986 N   0  0  0  0  0  0
  -23.4206  -28.8215   23.2961 O   0  0  0  0  0  0
  -28.3977  -26.6719   20.1853 O   0  0  0  0  0  0
  -26.5604  -34.8925   22.4661 O   0  0  0  0  0  0
  -23.5374  -32.1325   23.7535 O   0  0  0  0  0  0
  -30.5677  -19.8395   22.0601 C   0  0  0  0  0  0
  -29.2934  -19.0255   23.6155 C   0  0  0  0  0  0
  -29.9015  -20.8838   22.6766 C   0  0  0  0  0  0
  -30.1397  -16.1663   18.1569 C   0  0  0  0  0  0
  -28.6367  -17.5478   19.6145 C   0  0  0  0  0  0
  -30.0748  -22.3875   22.4778 C   0  0  0  0  0  0
  -29.2808  -23.0196   21.3014 C   0  0  0  0  0  0
  -29.1641  -24.5773   21.3417 C   0  0  0  0  0  0
  -30.7514  -17.3018   22.4558 C   0  0  0  0  0  0
  -29.7346  -16.1894   22.0328 C   0  0  0  0  0  0
  -28.3323  -25.2245   20.1932 C   0  0  0  0  0  0
  -29.9140  -16.6724   19.6027 C   0  0  0  0  0  0
  -29.0642  -20.3411   23.6597 N   0  0  0  0  0  0
  -30.1916  -18.6472   22.6874 N   0  0  0  0  0  0
  -29.9289  -15.6224   20.6717 N   0  0  0  0  0  0
  -31.4746  -12.3429   19.2025 H   0  0  0  0  0  0
  -30.2867  -11.2930   19.9123 H   0  0  0  0  0  0
  -29.7677  -11.6755   17.4986 H   0  0  0  0  0  0
  -29.7298  -13.4015   17.7510 H   0  0  0  0  0  0
  -27.8131  -11.3005   18.8048 H   0  0  0  0  0  0
  -27.4016  -12.6395   17.7617 H   0  0  0  0  0  0
  -27.6880  -14.2574   19.5512 H   0  0  0  0  0  0
  -28.6767  -11.9721   21.3254 H   0  0  0  0  0  0
  -28.4458  -13.6042   21.8735 H   0  0  0  0  0  0
  -25.2652   -9.5659   22.4707 H   0  0  0  0  0  0
  -23.9891   -7.4633   22.7411 H   0  0  0  0  0  0
  -21.0786   -8.8720   19.8837 H   0  0  0  0  0  0
  -22.3623  -10.9627   19.6085 H   0  0  0  0  0  0
  -21.2130   -7.6087   23.9694 H   0  0  0  0  0  0
  -21.1503   -6.0487   25.9081 H   0  0  0  0  0  0
  -22.0563   -2.7527   23.2965 H   0  0  0  0  0  0
  -22.4073  -11.9925   22.4925 H   0  0  0  0  0  0
  -21.0999  -13.1162   22.2546 H   0  0  0  0  0  0
  -24.6741  -15.8404   20.5898 H   0  0  0  0  0  0
  -26.2700  -15.6084   20.0681 H   0  0  0  0  0  0
  -26.7156  -32.5492   23.1138 H   0  0  0  0  0  0
  -25.0085  -33.9779   25.0454 H   0  0  0  0  0  0
  -22.6928  -31.3198   21.4151 H   0  0  0  0  0  0
  -23.3748  -35.9663   23.3327 H   0  0  0  0  0  0
  -24.3581  -36.8872   22.2071 H   0  0  0  0  0  0
  -23.7272  -37.6505   23.6638 H   0  0  0  0  0  0
  -26.0393  -31.6038   20.5914 H   0  0  0  0  0  0
  -26.8247  -30.8834   21.9762 H   0  0  0  0  0  0
  -28.0931  -29.0934   21.1622 H   0  0  0  0  0  0
  -26.0219  -25.9808   18.9944 H   0  0  0  0  0  0
  -23.9853  -27.3311   18.9811 H   0  0  0  0  0  0
  -23.7274  -30.6217   19.3995 H   0  0  0  0  0  0
  -22.7290  -29.2760   19.8482 H   0  0  0  0  0  0
  -25.1308  -36.1920   25.0839 H   0  0  0  0  0  0
  -21.0000  -28.3292   24.1411 H   0  0  0  0  0  0
  -20.5729  -26.2333   23.3622 H   0  0  0  0  0  0
  -21.6653  -26.7494   22.1197 H   0  0  0  0  0  0
  -19.6937  -25.6308   21.1257 H   0  0  0  0  0  0
  -19.6710  -27.3249   20.6822 H   0  0  0  0  0  0
  -17.4206  -26.6769   21.3970 H   0  0  0  0  0  0
  -18.0258  -26.0116   22.9019 H   0  0  0  0  0  0
  -19.7957  -30.7320   24.2238 H   0  0  0  0  0  0
  -17.5038  -31.6291   24.5218 H   0  0  0  0  0  0
  -15.5368  -30.3033   23.7717 H   0  0  0  0  0  0
  -15.8654  -28.0932   22.6969 H   0  0  0  0  0  0
  -24.5945  -30.7039   25.7828 H   0  0  0  0  0  0
  -24.8871  -32.2941   26.4788 H   0  0  0  0  0  0
  -25.8077  -30.9021   27.0272 H   0  0  0  0  0  0
  -26.2859  -29.6810   24.1153 H   0  0  0  0  0  0
  -27.4105  -29.7313   25.4541 H   0  0  0  0  0  0
  -27.8662  -30.4384   23.9218 H   0  0  0  0  0  0
  -27.2643  -33.3672   26.1992 H   0  0  0  0  0  0
  -28.3861  -32.6838   25.0320 H   0  0  0  0  0  0
  -28.0646  -31.8488   26.5416 H   0  0  0  0  0  0
  -28.2576  -38.0107   24.7522 H   0  0  0  0  0  0
  -28.1068  -36.2618   24.6248 H   0  0  0  0  0  0
  -27.2282  -37.1441   25.8863 H   0  0  0  0  0  0
  -20.9335  -29.8771   21.6911 H   0  0  0  0  0  0
  -26.0134  -38.2836   24.1480 H   0  0  0  0  0  0
  -31.3151  -19.8524   21.2762 H   0  0  0  0  0  0
  -28.8301  -18.3282   24.3042 H   0  0  0  0  0  0
  -30.3198  -17.0128   17.4917 H   0  0  0  0  0  0
  -29.2786  -15.6299   17.7645 H   0  0  0  0  0  0
  -31.0245  -15.5343   18.0522 H   0  0  0  0  0  0
  -28.6963  -18.3197   18.8421 H   0  0  0  0  0  0
  -28.5101  -18.1005   20.5436 H   0  0  0  0  0  0
  -27.7275  -16.9688   19.4490 H   0  0  0  0  0  0
  -31.1379  -22.5953   22.3334 H   0  0  0  0  0  0
  -29.8278  -22.9172   23.3980 H   0  0  0  0  0  0
  -28.2813  -22.5849   21.2880 H   0  0  0  0  0  0
  -29.7675  -22.7125   20.3748 H   0  0  0  0  0  0
  -30.1684  -25.0051   21.3385 H   0  0  0  0  0  0
  -28.7151  -24.8631   22.2964 H   0  0  0  0  0  0
  -31.5745  -17.3833   21.7475 H   0  0  0  0  0  0
  -31.2353  -16.9984   23.3860 H   0  0  0  0  0  0
  -28.7110  -16.5312   22.1605 H   0  0  0  0  0  0
  -29.8202  -15.3776   22.7569 H   0  0  0  0  0  0
  -28.7099  -24.8764   19.2320 H   0  0  0  0  0  0
  -27.3145  -24.8484   20.2735 H   0  0  0  0  0  0
  -30.7595  -17.3322   19.7795 H   0  0  0  0  0  0
  1 25  1  0  0  0
  1 30  2  0  0  0
  1 85  1  0  0  0
  2  3  1  0  0  0
  2 25  1  0  0  0
  2 86  1  0  0  0
  2 87  1  0  0  0
  3  4  1  0  0  0
  3 88  1  0  0  0
  3 89  1  0  0  0
  4  5  1  0  0  0
  4 90  1  0  0  0
  4 91  1  0  0  0
  5  6  1  0  0  0
  5 26  1  0  0  0
  5 92  1  0  0  0
  6 25  1  0  0  0
  6 93  1  0  0  0
  6 94  1  0  0  0
  7  8  2  0  0  0
  7 26  1  0  0  0
  7 29  1  0  0  0
  8  9  1  0  0  0
  8 22  1  0  0  0
  9 10  1  0  0  0
  9 27  2  0  0  0
 10 11  2  0  0  0
 10 15  1  0  0  0
 11 12  1  0  0  0
 11 95  1  0  0  0
 12 13  2  0  0  0
 12 96  1  0  0  0
 13 14  1  0  0  0
 13 31  1  0  0  0
 14 15  2  0  0  0
 14 97  1  0  0  0
 15 98  1  0  0  0
 16 17  2  0  0  0
 16 21  1  0  0  0
 16 31  1  0  0  0
 17 18  1  0  0  0
 17 99  1  0  0  0
 18 19  2  0  0  0
 18100  1  0  0  0
 19 20  1  0  0  0
 19 24  1  0  0  0
 20 21  2  0  0  0
 20101  1  0  0  0
 21 23  1  0  0  0
 22 28  1  0  0  0
 22 32  2  0  0  0
 26 27  1  0  0  0
 28102  1  0  0  0
 28103  1  0  0  0
 29104  1  0  0  0
 29105  1  0  0  0
 33 34  1  0  0  0
 33 66  1  0  0  0
 33 70  2  0  0  0
 34 36  1  0  0  0
 34 59  1  0  0  0
 34106  1  0  0  0
 35 44  2  0  0  0
 35 45  1  0  0  0
 35 68  1  0  0  0
 36 56  1  0  0  0
 36107  1  0  0  0
 37 39  1  0  0  0
 37 47  1  0  0  0
 37 66  1  0  0  0
 37108  1  0  0  0
 38 43  2  0  0  0
 38 46  1  0  0  0
 38 47  1  0  0  0
 39 64  1  0  0  0
 39 67  2  0  0  0
 40 52  1  0  0  0
 40 53  2  0  0  0
 40 58  1  0  0  0
 41109  1  0  0  0
 41110  1  0  0  0
 41111  1  0  0  0
 41 48  1  0  0  0
 42 43  1  0  0  0
 42 66  1  0  0  0
 42112  1  0  0  0
 42113  1  0  0  0
 43 44  1  0  0  0
 44114  1  0  0  0
 45 46  2  0  0  0
 45115  1  0  0  0
 46116  1  0  0  0
 47117  1  0  0  0
 47118  1  0  0  0
 48 56  1  0  0  0
 48 65  1  0  0  0
 48119  1  0  0  0
 49 50  1  0  0  0
 49 53  1  0  0  0
 49 64  1  0  0  0
 49120  1  0  0  0
 50 51  1  0  0  0
 50121  1  0  0  0
 50122  1  0  0  0
 51 52  1  0  0  0
 51123  1  0  0  0
 51124  1  0  0  0
 52125  1  0  0  0
 52126  1  0  0  0
 53 54  1  0  0  0
 54 55  2  0  0  0
 54127  1  0  0  0
 55 57  1  0  0  0
 55128  1  0  0  0
 56 69  2  0  0  0
 57 58  2  0  0  0
 57129  1  0  0  0
 58130  1  0  0  0
 59 60  1  0  0  0
 59 61  1  0  0  0
 59 62  1  0  0  0
 60131  1  0  0  0
 60132  1  0  0  0
 60133  1  0  0  0
 61134  1  0  0  0
 61135  1  0  0  0
 61136  1  0  0  0
 62137  1  0  0  0
 62138  1  0  0  0
 62139  1  0  0  0
 63 65  1  0  0  0
 63140  1  0  0  0
 63141  1  0  0  0
 63142  1  0  0  0
 64143  1  0  0  0
 65144  1  0  0  0
 68 81  1  0  0  0
 71 73  2  0  0  0
 71 84  1  0  0  0
 71145  1  0  0  0
 72 83  2  0  0  0
 72 84  1  0  0  0
 72146  1  0  0  0
 73 76  1  0  0  0
 73 83  1  0  0  0
 74147  1  0  0  0
 74148  1  0  0  0
 74149  1  0  0  0
 74 82  1  0  0  0
 75 82  1  0  0  0
 75150  1  0  0  0
 75151  1  0  0  0
 75152  1  0  0  0
 76 77  1  0  0  0
 76153  1  0  0  0
 76154  1  0  0  0
 77 78  1  0  0  0
 77155  1  0  0  0
 77156  1  0  0  0
 78 81  1  0  0  0
 78157  1  0  0  0
 78158  1  0  0  0
 79 80  1  0  0  0
 79 84  1  0  0  0
 79159  1  0  0  0
 79160  1  0  0  0
 80 85  1  0  0  0
 80161  1  0  0  0
 80162  1  0  0  0
 81163  1  0  0  0
 81164  1  0  0  0
 82 85  1  0  0  0
 82165  1  0  0  0
M  ISO  4   1 100  68 101  81 101  85 100
M  END
> <chiral flag>
0

> <version>
0

> <s_m_source_file>
/data/baiqing/PycharmProjects/Reinvent-master-3.2/result/LINK_invent/BTK/process_docking_weight1_custom_sum_contain_oxygen_bond_distance_aromatic_linkinvent_7_9_3/rearranged_h_0052.sdf

> <i_m_source_file_index>
72

> <r_mmod_Potential_Energy-OPLS-2005>
184.706115722656

> <r_mmod_Stretch_Energy-OPLS-2005>
50.4241714477539

> <r_mmod_Bend_Energy-OPLS-2005>
126.024749755859

> <r_mmod_Torsional_Energy-OPLS-2005>
320.939605712891

> <r_mmod_Improper_Torsional_Energy-OPLS-2005>
14.191650390625

> <r_mmod_Van_der_Waal_Energy-OPLS-2005>
124.104644775391

> <r_mmod_Electrostatic_Energy-OPLS-2005>
-267.010711669922

> <r_mmod_Solvation_Energy-OPLS-2005>
-206.989990234375

> <b_mmod_Minimization_Converged-OPLS-2005>
0

> <r_mmod_RMS_Derivative-OPLS-2005>
9.06322860717773

$$$$
72
                    3D
 Structure written by MMmdl.
147155  0  0  1  0            999 V2000
  -30.4667  -15.2386   20.3639 C   0  0  0  0  0  0
  -30.4362  -12.7909   19.5212 C   0  0  0  0  0  0
  -29.5342  -12.5705   18.2814 C   0  0  0  0  0  0
  -28.0808  -12.2998   18.7086 C   0  0  0  0  0  0
  -27.6127  -13.2747   19.8186 C   0  0  2  0  0  0
  -28.6472  -13.4486   20.9513 C   0  0  0  0  0  0
  -25.2406  -13.8241   20.5729 C   0  0  0  0  0  0
  -24.1758  -13.0438   20.9257 C   0  0  0  0  0  0
  -24.6412  -11.6939   20.8774 C   0  0  0  0  0  0
  -23.9109  -10.4299   21.0418 C   0  0  0  0  0  0
  -24.3654   -9.4206   21.9189 C   0  0  0  0  0  0
  -23.6320   -8.2244   22.0755 C   0  0  0  0  0  0
  -22.4301   -8.0290   21.3547 C   0  0  0  0  0  0
  -21.9943   -9.0265   20.4647 C   0  0  0  0  0  0
  -22.7283  -10.2135   20.3062 C   0  0  0  0  0  0
  -21.6853   -6.0756   22.5283 C   0  0  0  0  0  0
  -21.4010   -6.5656   23.8224 C   0  0  0  0  0  0
  -21.3658   -5.6801   24.9176 C   0  0  0  0  0  0
  -21.6046   -4.3064   24.7219 C   0  0  0  0  0  0
  -21.8819   -3.8161   23.4342 C   0  0  0  0  0  0
  -21.9188   -4.6982   22.3398 C   0  0  0  0  0  0
  -22.7777  -13.5198   21.1899 C   0  0  0  0  0  0
  -22.1661   -4.2168   21.0976 F   0  0  0  0  0  0
  -21.5624   -3.4544   25.7734 F   0  0  0  0  0  0
  -29.8834  -13.9425   20.3238 N   0  0  0  0  0  0
  -26.2827  -12.9522   20.3194 N   0  0  0  0  0  0
  -25.9344  -11.6625   20.5716 N   0  0  0  0  0  0
  -22.0429  -12.8181   22.0446 N   0  0  0  0  0  0
  -25.4057  -15.1971   20.4144 N   0  0  0  0  0  0
  -31.6883  -15.2163   20.1614 O   0  0  0  0  0  0
  -21.6642   -6.8903   21.4251 O   0  0  0  0  0  0
  -22.3461  -14.5497   20.6731 O   0  0  0  0  0  0
  -24.6630  -31.8255   23.1713 C   0  0  0  0  0  0
  -25.9313  -32.4609   23.8176 C   0  0  1  0  0  0
  -27.2129  -26.9342   20.1834 C   0  0  0  0  0  0
  -25.5991  -33.8422   24.2091 N   0  0  0  0  0  0
  -23.4781  -30.4395   21.5202 C   0  0  2  0  0  0
  -24.9303  -28.8324   20.1127 C   0  0  0  0  0  0
  -22.7672  -29.4460   22.4767 C   0  0  0  0  0  0
  -18.0322  -28.1425   22.8468 C   0  0  0  0  0  0
  -24.1487  -36.7212   23.2645 C   0  0  0  0  0  0
  -26.0478  -30.6358   21.3990 C   0  0  0  0  0  0
  -26.1155  -29.2258   20.7465 C   0  0  0  0  0  0
  -27.2527  -28.2982   20.7581 C   0  0  0  0  0  0
  -25.9977  -26.6992   19.4982 C   0  0  0  0  0  0
  -24.8967  -27.5889   19.4687 C   0  0  0  0  0  0
  -23.7184  -29.7602   20.1449 C   0  0  0  0  0  0
  -25.4124  -36.2974   24.0308 C   0  0  1  0  0  0
  -20.5956  -28.3765   23.1191 C   0  0  2  0  0  0
  -20.6802  -26.9448   22.5398 C   0  0  0  0  0  0
  -19.5772  -26.6387   21.5215 C   0  0  0  0  0  0
  -18.1956  -26.7963   22.1617 C   0  0  0  0  0  0
  -19.1588  -28.8910   23.2820 C   0  0  0  0  0  0
  -18.9496  -30.1497   23.8861 C   0  0  0  0  0  0
  -17.6491  -30.6607   24.0553 C   0  0  0  0  0  0
  -25.9093  -34.9362   23.5012 C   0  0  0  0  0  0
  -16.5377  -29.9104   23.6341 C   0  0  0  0  0  0
  -16.7308  -28.6523   23.0362 C   0  0  0  0  0  0
  -26.4562  -31.6548   25.0693 C   0  0  0  0  0  0
  -25.3686  -31.3801   26.1343 C   0  0  0  0  0  0
  -27.0454  -30.2927   24.6408 C   0  0  0  0  0  0
  -27.6078  -32.4332   25.7483 C   0  0  0  0  0  0
  -27.5568  -37.1749   24.8452 C   0  0  0  0  0  0
  -21.4337  -29.3059   22.3535 N   0  0  0  0  0  0
  -26.4252  -37.3717   23.9437 N   0  0  0  0  0  0
  -24.7519  -30.9937   22.0841 N   0  0  0  0  0  0
  -23.4225  -28.8010   23.2988 O   0  0  0  0  0  0
  -28.1976  -25.8117   20.2518 O   0  0  0  0  0  0
  -26.5685  -34.8891   22.4597 O   0  0  0  0  0  0
  -23.5701  -32.1203   23.6808 O   0  0  0  0  0  0
  -27.8774  -21.4705   19.5692 C   0  0  0  0  0  0
  -28.5099  -22.6284   20.1949 C   0  0  0  0  0  0
  -29.3571  -19.6861   20.3563 C   0  0  0  0  0  0
  -30.8040  -18.1899   18.7924 C   0  0  0  0  0  0
  -27.7747  -24.2242   20.1779 C   0  0  0  0  0  0
  -30.1301  -18.1232   20.1756 C   0  0  2  0  0  0
  -28.2775  -20.1078   19.6277 N   0  0  0  0  0  0
  -29.5927  -22.1260   20.9276 N   0  0  0  0  0  0
  -30.0017  -20.7666   20.9678 N   0  0  0  0  0  0
  -29.7350  -16.5249   20.4152 N   0  0  0  0  0  0
  -31.4587  -12.9791   19.1920 H   0  0  0  0  0  0
  -30.4885  -11.8851   20.1267 H   0  0  0  0  0  0
  -29.9105  -11.7421   17.6798 H   0  0  0  0  0  0
  -29.5683  -13.4550   17.6432 H   0  0  0  0  0  0
  -28.0330  -11.2751   19.0796 H   0  0  0  0  0  0
  -27.4115  -12.3456   17.8484 H   0  0  0  0  0  0
  -27.5270  -14.2418   19.3203 H   0  0  0  0  0  0
  -28.8089  -12.5147   21.4912 H   0  0  0  0  0  0
  -28.2897  -14.1752   21.6828 H   0  0  0  0  0  0
  -25.2804   -9.5672   22.4764 H   0  0  0  0  0  0
  -24.0024   -7.4627   22.7471 H   0  0  0  0  0  0
  -21.0877   -8.8794   19.8951 H   0  0  0  0  0  0
  -22.3758  -10.9677   19.6169 H   0  0  0  0  0  0
  -21.2007   -7.6165   23.9729 H   0  0  0  0  0  0
  -21.1478   -6.0529   25.9081 H   0  0  0  0  0  0
  -22.0598   -2.7624   23.2824 H   0  0  0  0  0  0
  -22.4059  -11.9852   22.4844 H   0  0  0  0  0  0
  -21.1034  -13.1173   22.2632 H   0  0  0  0  0  0
  -24.6347  -15.8490   20.5151 H   0  0  0  0  0  0
  -26.2451  -15.6306   20.0543 H   0  0  0  0  0  0
  -26.7377  -32.5144   23.0886 H   0  0  0  0  0  0
  -25.0141  -33.9511   25.0244 H   0  0  0  0  0  0
  -22.7920  -31.2715   21.3500 H   0  0  0  0  0  0
  -23.3773  -35.9514   23.3243 H   0  0  0  0  0  0
  -24.3588  -36.8917   22.2071 H   0  0  0  0  0  0
  -23.7194  -37.6369   23.6730 H   0  0  0  0  0  0
  -26.2198  -31.3738   20.6143 H   0  0  0  0  0  0
  -26.9119  -30.6996   22.0492 H   0  0  0  0  0  0
  -28.1477  -28.5961   21.2856 H   0  0  0  0  0  0
  -25.8469  -25.7594   18.9912 H   0  0  0  0  0  0
  -23.9975  -27.2828   18.9518 H   0  0  0  0  0  0
  -23.8780  -30.5294   19.3882 H   0  0  0  0  0  0
  -22.8279  -29.2168   19.8239 H   0  0  0  0  0  0
  -25.1309  -36.1757   25.0794 H   0  0  0  0  0  0
  -21.0036  -28.3355   24.1318 H   0  0  0  0  0  0
  -20.5680  -26.2388   23.3643 H   0  0  0  0  0  0
  -21.6666  -26.7424   22.1199 H   0  0  0  0  0  0
  -19.6930  -25.6282   21.1287 H   0  0  0  0  0  0
  -19.6712  -27.3164   20.6723 H   0  0  0  0  0  0
  -17.4222  -26.6711   21.4021 H   0  0  0  0  0  0
  -18.0334  -26.0129   22.9030 H   0  0  0  0  0  0
  -19.7967  -30.7320   24.2225 H   0  0  0  0  0  0
  -17.5044  -31.6287   24.5157 H   0  0  0  0  0  0
  -15.5374  -30.2993   23.7705 H   0  0  0  0  0  0
  -15.8705  -28.0823   22.7105 H   0  0  0  0  0  0
  -24.5896  -30.7122   25.7645 H   0  0  0  0  0  0
  -24.8829  -32.2999   26.4612 H   0  0  0  0  0  0
  -25.7910  -30.9063   27.0213 H   0  0  0  0  0  0
  -26.3110  -29.6621   24.1392 H   0  0  0  0  0  0
  -27.3987  -29.7269   25.5040 H   0  0  0  0  0  0
  -27.9054  -30.4140   23.9825 H   0  0  0  0  0  0
  -27.2693  -33.3706   26.1909 H   0  0  0  0  0  0
  -28.3979  -32.6769   25.0365 H   0  0  0  0  0  0
  -28.0657  -31.8536   26.5509 H   0  0  0  0  0  0
  -28.2512  -38.0113   24.7575 H   0  0  0  0  0  0
  -28.1126  -36.2648   24.6161 H   0  0  0  0  0  0
  -27.2315  -37.1245   25.8855 H   0  0  0  0  0  0
  -20.9580  -29.8795   21.6709 H   0  0  0  0  0  0
  -26.0095  -38.2760   24.1503 H   0  0  0  0  0  0
  -26.9760  -21.6398   18.9986 H   0  0  0  0  0  0
  -31.3595  -19.1215   18.6753 H   0  0  0  0  0  0
  -30.0539  -18.1579   18.0016 H   0  0  0  0  0  0
  -31.5082  -17.3769   18.6229 H   0  0  0  0  0  0
  -27.0121  -24.1394   20.9521 H   0  0  0  0  0  0
  -27.2215  -24.1638   19.2435 H   0  0  0  0  0  0
  -30.9463  -18.2255   20.8902 H   0  0  0  0  0  0
  -28.7457  -16.4048   20.5687 H   0  0  0  0  0  0
  1 25  1  0  0  0
  1 30  2  0  0  0
  1 80  1  0  0  0
  2  3  1  0  0  0
  2 25  1  0  0  0
  2 81  1  0  0  0
  2 82  1  0  0  0
  3  4  1  0  0  0
  3 83  1  0  0  0
  3 84  1  0  0  0
  4  5  1  0  0  0
  4 85  1  0  0  0
  4 86  1  0  0  0
  5  6  1  0  0  0
  5 26  1  0  0  0
  5 87  1  0  0  0
  6 25  1  0  0  0
  6 88  1  0  0  0
  6 89  1  0  0  0
  7  8  2  0  0  0
  7 26  1  0  0  0
  7 29  1  0  0  0
  8  9  1  0  0  0
  8 22  1  0  0  0
  9 10  1  0  0  0
  9 27  2  0  0  0
 10 11  2  0  0  0
 10 15  1  0  0  0
 11 12  1  0  0  0
 11 90  1  0  0  0
 12 13  2  0  0  0
 12 91  1  0  0  0
 13 14  1  0  0  0
 13 31  1  0  0  0
 14 15  2  0  0  0
 14 92  1  0  0  0
 15 93  1  0  0  0
 16 17  2  0  0  0
 16 21  1  0  0  0
 16 31  1  0  0  0
 17 18  1  0  0  0
 17 94  1  0  0  0
 18 19  2  0  0  0
 18 95  1  0  0  0
 19 20  1  0  0  0
 19 24  1  0  0  0
 20 21  2  0  0  0
 20 96  1  0  0  0
 21 23  1  0  0  0
 22 28  1  0  0  0
 22 32  2  0  0  0
 26 27  1  0  0  0
 28 97  1  0  0  0
 28 98  1  0  0  0
 29 99  1  0  0  0
 29100  1  0  0  0
 33 34  1  0  0  0
 33 66  1  0  0  0
 33 70  2  0  0  0
 34 36  1  0  0  0
 34 59  1  0  0  0
 34101  1  0  0  0
 35 44  2  0  0  0
 35 45  1  0  0  0
 35 68  1  0  0  0
 36 56  1  0  0  0
 36102  1  0  0  0
 37 39  1  0  0  0
 37 47  1  0  0  0
 37 66  1  0  0  0
 37103  1  0  0  0
 38 43  2  0  0  0
 38 46  1  0  0  0
 38 47  1  0  0  0
 39 64  1  0  0  0
 39 67  2  0  0  0
 40 52  1  0  0  0
 40 53  2  0  0  0
 40 58  1  0  0  0
 41104  1  0  0  0
 41105  1  0  0  0
 41106  1  0  0  0
 41 48  1  0  0  0
 42 43  1  0  0  0
 42 66  1  0  0  0
 42107  1  0  0  0
 42108  1  0  0  0
 43 44  1  0  0  0
 44109  1  0  0  0
 45 46  2  0  0  0
 45110  1  0  0  0
 46111  1  0  0  0
 47112  1  0  0  0
 47113  1  0  0  0
 48 56  1  0  0  0
 48 65  1  0  0  0
 48114  1  0  0  0
 49 50  1  0  0  0
 49 53  1  0  0  0
 49 64  1  0  0  0
 49115  1  0  0  0
 50 51  1  0  0  0
 50116  1  0  0  0
 50117  1  0  0  0
 51 52  1  0  0  0
 51118  1  0  0  0
 51119  1  0  0  0
 52120  1  0  0  0
 52121  1  0  0  0
 53 54  1  0  0  0
 54 55  2  0  0  0
 54122  1  0  0  0
 55 57  1  0  0  0
 55123  1  0  0  0
 56 69  2  0  0  0
 57 58  2  0  0  0
 57124  1  0  0  0
 58125  1  0  0  0
 59 60  1  0  0  0
 59 61  1  0  0  0
 59 62  1  0  0  0
 60126  1  0  0  0
 60127  1  0  0  0
 60128  1  0  0  0
 61129  1  0  0  0
 61130  1  0  0  0
 61131  1  0  0  0
 62132  1  0  0  0
 62133  1  0  0  0
 62134  1  0  0  0
 63 65  1  0  0  0
 63135  1  0  0  0
 63136  1  0  0  0
 63137  1  0  0  0
 64138  1  0  0  0
 65139  1  0  0  0
 68 75  1  0  0  0
 71 72  2  0  0  0
 71 77  1  0  0  0
 71140  1  0  0  0
 72 75  1  0  0  0
 72 78  1  0  0  0
 73 76  1  0  0  0
 73 77  2  0  0  0
 73 79  1  0  0  0
 74141  1  0  0  0
 74142  1  0  0  0
 74143  1  0  0  0
 74 76  1  0  0  0
 75144  1  0  0  0
 75145  1  0  0  0
 76 80  1  0  0  0
 76146  1  0  0  0
 78 79  2  0  0  0
 80147  1  0  0  0
M  ISO  4   1 100  68 101  75 101  80 100
M  END
> <chiral flag>
0

> <version>
0

> <s_m_source_file>
/data/baiqing/PycharmProjects/Reinvent-master-3.2/result/LINK_invent/BTK/process_docking_weight1_custom_sum_contain_oxygen_bond_distance_aromatic_linkinvent_7_9_3/rearranged_h_0052.sdf

> <i_m_source_file_index>
73

> <r_mmod_Potential_Energy-OPLS-2005>
1086.82800292969

> <r_mmod_Stretch_Energy-OPLS-2005>
517.223571777344

> <r_mmod_Bend_Energy-OPLS-2005>
471.434143066406

> <r_mmod_Torsional_Energy-OPLS-2005>
197.852920532227

> <r_mmod_Improper_Torsional_Energy-OPLS-2005>
8.37272071838379

> <r_mmod_Van_der_Waal_Energy-OPLS-2005>
136.61799621582

> <r_mmod_Electrostatic_Energy-OPLS-2005>
-433.091857910156

> <r_mmod_Solvation_Energy-OPLS-2005>
-251.749603271484

> <b_mmod_Minimization_Converged-OPLS-2005>
0

> <r_mmod_RMS_Derivative-OPLS-2005>
1.73644912242889

$$$$
73
                    3D
 Structure written by MMmdl.
166174  0  0  1  0            999 V2000
  -30.7191  -14.4911   20.4957 C   0  0  0  0  0  0
  -30.4215  -12.3029   19.4317 C   0  0  0  0  0  0
  -29.5131  -12.5241   18.2039 C   0  0  0  0  0  0
  -28.0226  -12.4130   18.5923 C   0  0  0  0  0  0
  -27.6657  -13.2287   19.8657 C   0  0  2  0  0  0
  -28.7104  -13.0030   20.9757 C   0  0  0  0  0  0
  -25.2643  -13.8180   20.5699 C   0  0  0  0  0  0
  -24.1902  -13.0417   20.9119 C   0  0  0  0  0  0
  -24.6459  -11.6886   20.8635 C   0  0  0  0  0  0
  -23.9123  -10.4258   21.0331 C   0  0  0  0  0  0
  -24.3650   -9.4195   21.9154 C   0  0  0  0  0  0
  -23.6292   -8.2245   22.0771 C   0  0  0  0  0  0
  -22.4278   -8.0279   21.3575 C   0  0  0  0  0  0
  -21.9935   -9.0261   20.4665 C   0  0  0  0  0  0
  -22.7276  -10.2111   20.3013 C   0  0  0  0  0  0
  -21.6879   -6.0713   22.5277 C   0  0  0  0  0  0
  -21.4020   -6.5625   23.8203 C   0  0  0  0  0  0
  -21.3673   -5.6782   24.9178 C   0  0  0  0  0  0
  -21.6037   -4.3046   24.7246 C   0  0  0  0  0  0
  -21.8820   -3.8139   23.4366 C   0  0  0  0  0  0
  -21.9220   -4.6938   22.3407 C   0  0  0  0  0  0
  -22.7904  -13.5185   21.1792 C   0  0  0  0  0  0
  -22.1666   -4.2124   21.0980 F   0  0  0  0  0  0
  -21.5655   -3.4530   25.7750 F   0  0  0  0  0  0
  -30.0394  -13.3095   20.4390 N   0  0  0  0  0  0
  -26.3100  -12.9390   20.3335 N   0  0  0  0  0  0
  -25.9407  -11.6520   20.5677 N   0  0  0  0  0  0
  -22.0595  -12.8134   22.0335 N   0  0  0  0  0  0
  -25.4304  -15.1932   20.4225 N   0  0  0  0  0  0
  -31.9080  -14.5558   20.1753 O   0  0  0  0  0  0
  -21.6655   -6.8858   21.4239 O   0  0  0  0  0  0
  -22.3535  -14.5482   20.6668 O   0  0  0  0  0  0
  -24.6150  -31.8676   23.2114 C   0  0  0  0  0  0
  -25.9034  -32.4831   23.8430 C   0  0  1  0  0  0
  -27.2267  -27.4261   20.0964 C   0  0  0  0  0  0
  -25.5910  -33.8631   24.2368 N   0  0  0  0  0  0
  -23.4022  -30.4918   21.5560 C   0  0  2  0  0  0
  -24.8465  -28.9572   20.1190 C   0  0  0  0  0  0
  -22.7403  -29.4659   22.5034 C   0  0  0  0  0  0
  -18.0272  -28.1347   22.8490 C   0  0  0  0  0  0
  -24.1486  -36.7297   23.2649 C   0  0  0  0  0  0
  -25.9320  -30.8299   21.3682 C   0  0  0  0  0  0
  -26.0086  -29.4658   20.7127 C   0  0  0  0  0  0
  -27.2034  -28.7086   20.6938 C   0  0  0  0  0  0
  -26.0465  -26.9340   19.4963 C   0  0  0  0  0  0
  -24.8626  -27.6930   19.5063 C   0  0  0  0  0  0
  -23.6103  -29.8268   20.1704 C   0  0  0  0  0  0
  -25.4115  -36.3136   24.0362 C   0  0  1  0  0  0
  -20.5855  -28.3646   23.1333 C   0  0  2  0  0  0
  -20.6767  -26.9381   22.5437 C   0  0  0  0  0  0
  -19.5760  -26.6362   21.5213 C   0  0  0  0  0  0
  -18.1922  -26.7895   22.1600 C   0  0  0  0  0  0
  -19.1508  -28.8805   23.2907 C   0  0  0  0  0  0
  -18.9433  -30.1403   23.8923 C   0  0  0  0  0  0
  -17.6438  -30.6559   24.0549 C   0  0  0  0  0  0
  -25.9034  -34.9486   23.5160 C   0  0  0  0  0  0
  -16.5337  -29.9063   23.6312 C   0  0  0  0  0  0
  -16.7260  -28.6480   23.0344 C   0  0  0  0  0  0
  -26.4463  -31.6589   25.0731 C   0  0  0  0  0  0
  -25.3739  -31.3611   26.1473 C   0  0  0  0  0  0
  -27.0343  -30.3078   24.6045 C   0  0  0  0  0  0
  -27.6046  -32.4299   25.7509 C   0  0  0  0  0  0
  -27.5590  -37.1828   24.8469 C   0  0  0  0  0  0
  -21.4127  -29.3030   22.3762 N   0  0  0  0  0  0
  -26.4312  -37.3810   23.9405 N   0  0  0  0  0  0
  -24.6684  -31.0763   22.1033 N   0  0  0  0  0  0
  -23.4173  -28.8178   23.3055 O   0  0  0  0  0  0
  -28.3839  -26.6760   20.0977 O   0  0  0  0  0  0
  -26.5566  -34.8912   22.4700 O   0  0  0  0  0  0
  -23.5350  -32.1439   23.7499 O   0  0  0  0  0  0
  -30.2499  -16.7431   19.5128 C   0  0  0  0  0  0
  -30.0007  -15.8149   20.4863 C   0  0  0  0  0  0
  -29.4424  -17.8710   19.8424 C   0  0  0  0  0  0
  -30.6121  -19.4857   18.3512 C   0  0  0  0  0  0
  -28.2747  -18.6339   17.8569 C   0  0  0  0  0  0
  -28.6768  -15.9597   22.6977 C   0  0  0  0  0  0
  -27.7965  -21.7209   17.8768 C   0  0  0  0  0  0
  -28.3762  -24.2379   19.5231 C   0  0  0  0  0  0
  -28.2232  -22.7857   20.0771 C   0  0  0  0  0  0
  -28.6753  -20.3395   19.7924 C   0  0  0  0  0  0
  -28.2713  -25.3336   20.6117 C   0  0  0  0  0  0
  -29.2403  -19.1147   18.9657 C   0  0  0  0  0  0
  -28.7426  -17.6320   20.9516 N   0  0  0  0  0  0
  -29.1401  -16.4033   21.3987 N   0  0  0  0  0  0
  -28.6083  -21.6940   19.1220 N   0  3  1  0  0  0
  -31.4727  -12.3564   19.1443 H   0  0  0  0  0  0
  -30.2838  -11.2956   19.8301 H   0  0  0  0  0  0
  -29.7500  -11.7966   17.4272 H   0  0  0  0  0  0
  -29.7164  -13.5061   17.7711 H   0  0  0  0  0  0
  -27.7991  -11.3550   18.7476 H   0  0  0  0  0  0
  -27.4022  -12.7419   17.7578 H   0  0  0  0  0  0
  -27.7069  -14.2813   19.5859 H   0  0  0  0  0  0
  -28.6871  -11.9588   21.2918 H   0  0  0  0  0  0
  -28.4794  -13.5671   21.8695 H   0  0  0  0  0  0
  -25.2813   -9.5647   22.4703 H   0  0  0  0  0  0
  -24.0037   -7.4620   22.7473 H   0  0  0  0  0  0
  -21.0903   -8.8697   19.8940 H   0  0  0  0  0  0
  -22.3747  -10.9598   19.6060 H   0  0  0  0  0  0
  -21.1967   -7.6124   23.9684 H   0  0  0  0  0  0
  -21.1516   -6.0532   25.9073 H   0  0  0  0  0  0
  -22.0601   -2.7595   23.2875 H   0  0  0  0  0  0
  -22.4289  -11.9788   22.4676 H   0  0  0  0  0  0
  -21.1188  -13.1051   22.2512 H   0  0  0  0  0  0
  -24.6640  -15.8417   20.5547 H   0  0  0  0  0  0
  -26.3046  -15.6561   20.2042 H   0  0  0  0  0  0
  -26.7082  -32.5548   23.1182 H   0  0  0  0  0  0
  -25.0176  -33.9803   25.0599 H   0  0  0  0  0  0
  -22.6923  -31.3097   21.4208 H   0  0  0  0  0  0
  -23.3781  -35.9595   23.3315 H   0  0  0  0  0  0
  -24.3590  -36.8895   22.2060 H   0  0  0  0  0  0
  -23.7174  -37.6479   23.6648 H   0  0  0  0  0  0
  -26.0454  -31.5940   20.5990 H   0  0  0  0  0  0
  -26.8193  -30.8826   21.9875 H   0  0  0  0  0  0
  -28.1015  -29.0931   21.1569 H   0  0  0  0  0  0
  -26.0323  -25.9669   19.0169 H   0  0  0  0  0  0
  -23.9708  -27.2991   19.0397 H   0  0  0  0  0  0
  -23.7228  -30.6051   19.4161 H   0  0  0  0  0  0
  -22.7310  -29.2545   19.8695 H   0  0  0  0  0  0
  -25.1293  -36.2045   25.0864 H   0  0  0  0  0  0
  -20.9919  -28.3192   24.1458 H   0  0  0  0  0  0
  -20.5673  -26.2226   23.3612 H   0  0  0  0  0  0
  -21.6639  -26.7441   22.1219 H   0  0  0  0  0  0
  -19.6930  -25.6267   21.1244 H   0  0  0  0  0  0
  -19.6710  -27.3174   20.6740 H   0  0  0  0  0  0
  -17.4198  -26.6646   21.3985 H   0  0  0  0  0  0
  -18.0322  -26.0026   22.8989 H   0  0  0  0  0  0
  -19.7892  -30.7208   24.2325 H   0  0  0  0  0  0
  -17.4985  -31.6245   24.5131 H   0  0  0  0  0  0
  -15.5334  -30.2974   23.7609 H   0  0  0  0  0  0
  -15.8658  -28.0809   22.7056 H   0  0  0  0  0  0
  -24.5925  -30.6962   25.7751 H   0  0  0  0  0  0
  -24.8907  -32.2723   26.5013 H   0  0  0  0  0  0
  -25.8106  -30.8691   27.0173 H   0  0  0  0  0  0
  -26.2881  -29.6805   24.1140 H   0  0  0  0  0  0
  -27.4233  -29.7327   25.4454 H   0  0  0  0  0  0
  -27.8655  -30.4478   23.9128 H   0  0  0  0  0  0
  -27.2689  -33.3608   26.2088 H   0  0  0  0  0  0
  -28.3865  -32.6822   25.0335 H   0  0  0  0  0  0
  -28.0692  -31.8403   26.5418 H   0  0  0  0  0  0
  -28.2607  -38.0128   24.7553 H   0  0  0  0  0  0
  -28.1094  -36.2661   24.6290 H   0  0  0  0  0  0
  -27.2297  -37.1459   25.8867 H   0  0  0  0  0  0
  -20.9268  -29.8771   21.7013 H   0  0  0  0  0  0
  -26.0221  -38.2910   24.1362 H   0  0  0  0  0  0
  -30.8997  -16.6167   18.6602 H   0  0  0  0  0  0
  -30.9809  -18.7002   17.6920 H   0  0  0  0  0  0
  -31.3609  -19.6315   19.1311 H   0  0  0  0  0  0
  -30.5837  -20.3865   17.7420 H   0  0  0  0  0  0
  -28.6231  -17.6924   17.4269 H   0  0  0  0  0  0
  -28.1950  -19.3084   17.0127 H   0  0  0  0  0  0
  -27.2721  -18.4520   18.2490 H   0  0  0  0  0  0
  -27.6482  -15.6034   22.6268 H   0  0  0  0  0  0
  -28.7130  -16.7926   23.3986 H   0  0  0  0  0  0
  -29.3200  -15.1715   23.0913 H   0  0  0  0  0  0
  -27.4382  -22.7058   17.5929 H   0  0  0  0  0  0
  -26.9141  -21.0870   17.9644 H   0  0  0  0  0  0
  -28.3991  -21.4050   17.0256 H   0  0  0  0  0  0
  -27.6063  -24.4303   18.7804 H   0  0  0  0  0  0
  -29.3311  -24.3414   19.0080 H   0  0  0  0  0  0
  -27.1965  -22.6264   20.4118 H   0  0  0  0  0  0
  -28.8422  -22.6955   20.9706 H   0  0  0  0  0  0
  -29.3001  -20.4502   20.6794 H   0  0  0  0  0  0
  -27.6807  -20.0901   20.1678 H   0  0  0  0  0  0
  -29.0838  -25.1926   21.3255 H   0  0  0  0  0  0
  -27.3535  -25.2034   21.1890 H   0  0  0  0  0  0
  -29.5541  -21.9098   18.8423 H   0  0  0  0  0  0
  1 25  1  0  0  0
  1 30  2  0  0  0
  1 72  1  0  0  0
  2  3  1  0  0  0
  2 25  1  0  0  0
  2 86  1  0  0  0
  2 87  1  0  0  0
  3  4  1  0  0  0
  3 88  1  0  0  0
  3 89  1  0  0  0
  4  5  1  0  0  0
  4 90  1  0  0  0
  4 91  1  0  0  0
  5  6  1  0  0  0
  5 26  1  0  0  0
  5 92  1  0  0  0
  6 25  1  0  0  0
  6 93  1  0  0  0
  6 94  1  0  0  0
  7  8  2  0  0  0
  7 26  1  0  0  0
  7 29  1  0  0  0
  8  9  1  0  0  0
  8 22  1  0  0  0
  9 10  1  0  0  0
  9 27  2  0  0  0
 10 11  2  0  0  0
 10 15  1  0  0  0
 11 12  1  0  0  0
 11 95  1  0  0  0
 12 13  2  0  0  0
 12 96  1  0  0  0
 13 14  1  0  0  0
 13 31  1  0  0  0
 14 15  2  0  0  0
 14 97  1  0  0  0
 15 98  1  0  0  0
 16 17  2  0  0  0
 16 21  1  0  0  0
 16 31  1  0  0  0
 17 18  1  0  0  0
 17 99  1  0  0  0
 18 19  2  0  0  0
 18100  1  0  0  0
 19 20  1  0  0  0
 19 24  1  0  0  0
 20 21  2  0  0  0
 20101  1  0  0  0
 21 23  1  0  0  0
 22 28  1  0  0  0
 22 32  2  0  0  0
 26 27  1  0  0  0
 28102  1  0  0  0
 28103  1  0  0  0
 29104  1  0  0  0
 29105  1  0  0  0
 33 34  1  0  0  0
 33 66  1  0  0  0
 33 70  2  0  0  0
 34 36  1  0  0  0
 34 59  1  0  0  0
 34106  1  0  0  0
 35 44  2  0  0  0
 35 45  1  0  0  0
 35 68  1  0  0  0
 36 56  1  0  0  0
 36107  1  0  0  0
 37 39  1  0  0  0
 37 47  1  0  0  0
 37 66  1  0  0  0
 37108  1  0  0  0
 38 43  2  0  0  0
 38 46  1  0  0  0
 38 47  1  0  0  0
 39 64  1  0  0  0
 39 67  2  0  0  0
 40 52  1  0  0  0
 40 53  2  0  0  0
 40 58  1  0  0  0
 41109  1  0  0  0
 41110  1  0  0  0
 41111  1  0  0  0
 41 48  1  0  0  0
 42 43  1  0  0  0
 42 66  1  0  0  0
 42112  1  0  0  0
 42113  1  0  0  0
 43 44  1  0  0  0
 44114  1  0  0  0
 45 46  2  0  0  0
 45115  1  0  0  0
 46116  1  0  0  0
 47117  1  0  0  0
 47118  1  0  0  0
 48 56  1  0  0  0
 48 65  1  0  0  0
 48119  1  0  0  0
 49 50  1  0  0  0
 49 53  1  0  0  0
 49 64  1  0  0  0
 49120  1  0  0  0
 50 51  1  0  0  0
 50121  1  0  0  0
 50122  1  0  0  0
 51 52  1  0  0  0
 51123  1  0  0  0
 51124  1  0  0  0
 52125  1  0  0  0
 52126  1  0  0  0
 53 54  1  0  0  0
 54 55  2  0  0  0
 54127  1  0  0  0
 55 57  1  0  0  0
 55128  1  0  0  0
 56 69  2  0  0  0
 57 58  2  0  0  0
 57129  1  0  0  0
 58130  1  0  0  0
 59 60  1  0  0  0
 59 61  1  0  0  0
 59 62  1  0  0  0
 60131  1  0  0  0
 60132  1  0  0  0
 60133  1  0  0  0
 61134  1  0  0  0
 61135  1  0  0  0
 61136  1  0  0  0
 62137  1  0  0  0
 62138  1  0  0  0
 62139  1  0  0  0
 63 65  1  0  0  0
 63140  1  0  0  0
 63141  1  0  0  0
 63142  1  0  0  0
 64143  1  0  0  0
 65144  1  0  0  0
 68 81  1  0  0  0
 71 72  2  0  0  0
 71 73  1  0  0  0
 71145  1  0  0  0
 72 84  1  0  0  0
 73 82  1  0  0  0
 73 83  2  0  0  0
 74146  1  0  0  0
 74147  1  0  0  0
 74148  1  0  0  0
 74 82  1  0  0  0
 75 82  1  0  0  0
 75149  1  0  0  0
 75150  1  0  0  0
 75151  1  0  0  0
 76 84  1  0  0  0
 76152  1  0  0  0
 76153  1  0  0  0
 76154  1  0  0  0
 77155  1  0  0  0
 77156  1  0  0  0
 77157  1  0  0  0
 77 85  1  0  0  0
 78 79  1  0  0  0
 78 81  1  0  0  0
 78158  1  0  0  0
 78159  1  0  0  0
 79 85  1  0  0  0
 79160  1  0  0  0
 79161  1  0  0  0
 80 82  1  0  0  0
 80 85  1  0  0  0
 80162  1  0  0  0
 80163  1  0  0  0
 81164  1  0  0  0
 81165  1  0  0  0
 83 84  1  0  0  0
 85166  1  0  0  0
M  CHG  1  85   1
M  ISO  4   1 100  68 101  72 100  81 101
M  END
> <chiral flag>
0

> <version>
0

> <s_m_source_file>
/data/baiqing/PycharmProjects/Reinvent-master-3.2/result/LINK_invent/BTK/process_docking_weight1_custom_sum_contain_oxygen_bond_distance_aromatic_linkinvent_7_9_3/rearranged_h_0052.sdf

> <i_m_source_file_index>
74

> <r_mmod_Potential_Energy-OPLS-2005>
-48.2854080200195

> <r_mmod_Stretch_Energy-OPLS-2005>
46.2608337402344

> <r_mmod_Bend_Energy-OPLS-2005>
136.114486694336

> <r_mmod_Torsional_Energy-OPLS-2005>
254.086898803711

> <r_mmod_Improper_Torsional_Energy-OPLS-2005>
13.1157627105713

> <r_mmod_Van_der_Waal_Energy-OPLS-2005>
131.609268188477

> <r_mmod_Electrostatic_Energy-OPLS-2005>
-233.349868774414

> <r_mmod_Solvation_Energy-OPLS-2005>
-415.910400390625

> <b_mmod_Minimization_Converged-OPLS-2005>
0

> <r_mmod_RMS_Derivative-OPLS-2005>
4.2527961730957

$$$$
74
                    3D
 Structure written by MMmdl.
162170  0  0  1  0            999 V2000
  -30.2809  -15.6070   20.3266 C   0  0  0  0  0  0
  -30.4427  -13.0504   19.5446 C   0  0  0  0  0  0
  -29.5562  -12.6582   18.3239 C   0  0  0  0  0  0
  -28.1208  -12.3118   18.7553 C   0  0  0  0  0  0
  -27.6025  -13.3060   19.8189 C   0  0  2  0  0  0
  -28.6299  -13.5736   20.9418 C   0  0  0  0  0  0
  -25.2284  -13.8254   20.5710 C   0  0  0  0  0  0
  -24.1702  -13.0404   20.9268 C   0  0  0  0  0  0
  -24.6426  -11.6928   20.8766 C   0  0  0  0  0  0
  -23.9128  -10.4278   21.0400 C   0  0  0  0  0  0
  -24.3655   -9.4192   21.9187 C   0  0  0  0  0  0
  -23.6310   -8.2239   22.0760 C   0  0  0  0  0  0
  -22.4292   -8.0283   21.3548 C   0  0  0  0  0  0
  -21.9941   -9.0260   20.4648 C   0  0  0  0  0  0
  -22.7291  -10.2127   20.3052 C   0  0  0  0  0  0
  -21.6857   -6.0737   22.5277 C   0  0  0  0  0  0
  -21.4020   -6.5638   23.8212 C   0  0  0  0  0  0
  -21.3659   -5.6789   24.9171 C   0  0  0  0  0  0
  -21.6044   -4.3052   24.7221 C   0  0  0  0  0  0
  -21.8819   -3.8146   23.4341 C   0  0  0  0  0  0
  -21.9194   -4.6965   22.3399 C   0  0  0  0  0  0
  -22.7713  -13.5136   21.1911 C   0  0  0  0  0  0
  -22.1662   -4.2149   21.0977 F   0  0  0  0  0  0
  -21.5625   -3.4536   25.7734 F   0  0  0  0  0  0
  -29.8132  -14.2159   20.3144 N   0  0  0  0  0  0
  -26.2789  -12.9616   20.3229 N   0  0  0  0  0  0
  -25.9381  -11.6687   20.5721 N   0  0  0  0  0  0
  -22.0386  -12.8122   22.0479 N   0  0  0  0  0  0
  -25.3722  -15.1980   20.4025 N   0  0  0  0  0  0
  -31.5153  -15.5576   20.1497 O   0  0  0  0  0  0
  -21.6645   -6.8886   21.4244 O   0  0  0  0  0  0
  -22.3380  -14.5435   20.6752 O   0  0  0  0  0  0
  -24.6827  -31.8018   23.1524 C   0  0  0  0  0  0
  -25.9408  -32.4479   23.8073 C   0  0  1  0  0  0
  -27.2285  -26.7176   20.2204 C   0  0  0  0  0  0
  -25.5992  -33.8307   24.1959 N   0  0  0  0  0  0
  -23.5079  -30.4038   21.5078 C   0  0  2  0  0  0
  -24.9635  -28.7435   20.1262 C   0  0  0  0  0  0
  -22.7762  -29.4327   22.4734 C   0  0  0  0  0  0
  -18.0336  -28.1422   22.8451 C   0  0  0  0  0  0
  -24.1495  -36.7161   23.2654 C   0  0  0  0  0  0
  -26.0883  -30.5407   21.4130 C   0  0  0  0  0  0
  -26.1551  -29.1050   20.7674 C   0  0  0  0  0  0
  -27.2759  -28.1225   20.7750 C   0  0  0  0  0  0
  -25.9996  -26.5572   19.5318 C   0  0  0  0  0  0
  -24.9233  -27.4936   19.4853 C   0  0  0  0  0  0
  -23.7610  -29.6988   20.1445 C   0  0  0  0  0  0
  -25.4144  -36.2905   24.0287 C   0  0  1  0  0  0
  -20.5971  -28.3780   23.1151 C   0  0  2  0  0  0
  -20.6809  -26.9445   22.5404 C   0  0  0  0  0  0
  -19.5786  -26.6371   21.5218 C   0  0  0  0  0  0
  -18.1963  -26.7950   22.1616 C   0  0  0  0  0  0
  -19.1603  -28.8926   23.2779 C   0  0  0  0  0  0
  -18.9512  -30.1509   23.8825 C   0  0  0  0  0  0
  -17.6504  -30.6608   24.0550 C   0  0  0  0  0  0
  -25.9126  -34.9295   23.4961 C   0  0  0  0  0  0
  -16.5391  -29.9090   23.6353 C   0  0  0  0  0  0
  -16.7317  -28.6513   23.0364 C   0  0  0  0  0  0
  -26.4586  -31.6507   25.0691 C   0  0  0  0  0  0
  -25.3652  -31.3815   26.1306 C   0  0  0  0  0  0
  -27.0512  -30.2850   24.6570 C   0  0  0  0  0  0
  -27.6047  -32.4363   25.7499 C   0  0  0  0  0  0
  -27.5566  -37.1732   24.8464 C   0  0  0  0  0  0
  -21.4411  -29.3031   22.3477 N   0  0  0  0  0  0
  -26.4271  -37.3664   23.9411 N   0  0  0  0  0  0
  -24.7834  -30.9478   22.0770 N   0  0  0  0  0  0
  -23.4214  -28.7927   23.3072 O   0  0  0  0  0  0
  -28.2216  -25.5285   20.2093 O   0  0  0  0  0  0
  -26.5768  -34.8868   22.4579 O   0  0  0  0  0  0
  -23.5848  -32.1087   23.6484 O   0  0  0  0  0  0
  -31.4965  -20.1282   21.2619 C   0  0  0  0  0  0
  -29.5478  -20.5467   20.4841 C   0  0  0  0  0  0
  -32.0516  -18.8216   26.6586 C   0  0  0  0  0  0
  -28.2129  -17.1168   21.2899 C   0  0  0  0  0  0
  -32.8566  -20.3886   21.8281 C   0  0  0  0  0  0
  -28.5054  -21.9813   20.0016 C   0  0  0  0  0  0
  -32.5068  -19.9555   25.7334 C   0  0  0  0  0  0
  -32.8499  -20.7351   23.3289 C   0  0  0  0  0  0
  -32.4197  -19.5785   24.2473 C   0  0  0  0  0  0
  -28.0991  -23.8068   20.5351 C   0  0  0  0  0  0
  -29.3953  -17.2744   20.3303 C   0  0  1  0  0  0
  -30.6538  -21.1382   20.9419 N   0  0  0  0  0  0
  -31.0653  -18.8930   21.0813 N   0  0  0  0  0  0
  -29.8280  -18.9801   20.5267 N   0  0  0  0  0  0
  -31.4340  -13.3173   19.1778 H   0  0  0  0  0  0
  -30.6085  -12.1898   20.1949 H   0  0  0  0  0  0
  -29.9996  -11.8201   17.7841 H   0  0  0  0  0  0
  -29.5288  -13.4935   17.6236 H   0  0  0  0  0  0
  -28.1318  -11.3048   19.1747 H   0  0  0  0  0  0
  -27.4542  -12.2803   17.8928 H   0  0  0  0  0  0
  -27.4818  -14.2467   19.2802 H   0  0  0  0  0  0
  -28.8848  -12.6508   21.4647 H   0  0  0  0  0  0
  -28.2158  -14.2225   21.7106 H   0  0  0  0  0  0
  -25.2794   -9.5661   22.4773 H   0  0  0  0  0  0
  -24.0002   -7.4631   22.7487 H   0  0  0  0  0  0
  -21.0868   -8.8794   19.8954 H   0  0  0  0  0  0
  -22.3755  -10.9670   19.6161 H   0  0  0  0  0  0
  -21.2020   -7.6148   23.9715 H   0  0  0  0  0  0
  -21.1479   -6.0519   25.9074 H   0  0  0  0  0  0
  -22.0600   -2.7607   23.2842 H   0  0  0  0  0  0
  -22.4024  -11.9796   22.4870 H   0  0  0  0  0  0
  -21.1000  -13.1132   22.2695 H   0  0  0  0  0  0
  -24.5900  -15.8340   20.5126 H   0  0  0  0  0  0
  -26.2032  -15.6509   20.0474 H   0  0  0  0  0  0
  -26.7492  -32.4959   23.0793 H   0  0  0  0  0  0
  -25.0048  -33.9352   25.0050 H   0  0  0  0  0  0
  -22.8326  -31.2408   21.3176 H   0  0  0  0  0  0
  -23.3780  -35.9466   23.3263 H   0  0  0  0  0  0
  -24.3564  -36.8875   22.2078 H   0  0  0  0  0  0
  -23.7232  -37.6317   23.6766 H   0  0  0  0  0  0
  -26.2873  -31.2644   20.6215 H   0  0  0  0  0  0
  -26.9409  -30.6103   22.0760 H   0  0  0  0  0  0
  -28.1816  -28.4133   21.2891 H   0  0  0  0  0  0
  -25.8410  -25.6133   19.0294 H   0  0  0  0  0  0
  -24.0241  -27.2072   18.9575 H   0  0  0  0  0  0
  -23.9382  -30.4583   19.3824 H   0  0  0  0  0  0
  -22.8655  -29.1660   19.8194 H   0  0  0  0  0  0
  -25.1347  -36.1672   25.0776 H   0  0  0  0  0  0
  -21.0045  -28.3403   24.1281 H   0  0  0  0  0  0
  -20.5685  -26.2402   23.3663 H   0  0  0  0  0  0
  -21.6669  -26.7400   22.1213 H   0  0  0  0  0  0
  -19.6949  -25.6264   21.1294 H   0  0  0  0  0  0
  -19.6730  -27.3142   20.6720 H   0  0  0  0  0  0
  -17.4235  -26.6694   21.4015 H   0  0  0  0  0  0
  -18.0350  -26.0107   22.9027 H   0  0  0  0  0  0
  -19.7989  -30.7340   24.2161 H   0  0  0  0  0  0
  -17.5057  -31.6278   24.5167 H   0  0  0  0  0  0
  -15.5390  -30.2968   23.7722 H   0  0  0  0  0  0
  -15.8716  -28.0809   22.7121 H   0  0  0  0  0  0
  -24.5869  -30.7135   25.7599 H   0  0  0  0  0  0
  -24.8804  -32.3029   26.4543 H   0  0  0  0  0  0
  -25.7823  -30.9099   27.0213 H   0  0  0  0  0  0
  -26.3221  -29.6470   24.1564 H   0  0  0  0  0  0
  -27.3951  -29.7290   25.5303 H   0  0  0  0  0  0
  -27.9196  -30.3983   24.0079 H   0  0  0  0  0  0
  -27.2606  -33.3744   26.1868 H   0  0  0  0  0  0
  -28.3952  -32.6796   25.0387 H   0  0  0  0  0  0
  -28.0608  -31.8630   26.5578 H   0  0  0  0  0  0
  -28.2540  -38.0066   24.7527 H   0  0  0  0  0  0
  -28.1099  -36.2589   24.6268 H   0  0  0  0  0  0
  -27.2284  -37.1341   25.8865 H   0  0  0  0  0  0
  -20.9723  -29.8692   21.6541 H   0  0  0  0  0  0
  -26.0099  -38.2710   24.1437 H   0  0  0  0  0  0
  -32.1389  -19.1152   27.7053 H   0  0  0  0  0  0
  -32.6568  -17.9258   26.5154 H   0  0  0  0  0  0
  -31.0096  -18.5558   26.4764 H   0  0  0  0  0  0
  -27.4934  -17.9254   21.1615 H   0  0  0  0  0  0
  -28.5497  -17.1311   22.3267 H   0  0  0  0  0  0
  -27.6782  -16.1925   21.1182 H   0  0  0  0  0  0
  -33.3075  -21.2100   21.2704 H   0  0  0  0  0  0
  -33.4964  -19.5235   21.6492 H   0  0  0  0  0  0
  -27.5146  -21.5288   20.0407 H   0  0  0  0  0  0
  -28.6743  -22.0652   18.9281 H   0  0  0  0  0  0
  -33.5330  -20.2302   25.9822 H   0  0  0  0  0  0
  -31.8978  -20.8403   25.9251 H   0  0  0  0  0  0
  -32.2053  -21.5993   23.4941 H   0  0  0  0  0  0
  -33.8556  -21.0503   23.6089 H   0  0  0  0  0  0
  -31.3984  -19.2786   24.0069 H   0  0  0  0  0  0
  -33.0488  -18.7076   24.0551 H   0  0  0  0  0  0
  -28.2887  -23.7810   21.6081 H   0  0  0  0  0  0
  -27.0113  -23.7503   20.4903 H   0  0  0  0  0  0
  -28.9635  -17.2597   19.3297 H   0  0  0  0  0  0
  1 25  1  0  0  0
  1 30  2  0  0  0
  1 81  1  0  0  0
  2  3  1  0  0  0
  2 25  1  0  0  0
  2 85  1  0  0  0
  2 86  1  0  0  0
  3  4  1  0  0  0
  3 87  1  0  0  0
  3 88  1  0  0  0
  4  5  1  0  0  0
  4 89  1  0  0  0
  4 90  1  0  0  0
  5  6  1  0  0  0
  5 26  1  0  0  0
  5 91  1  0  0  0
  6 25  1  0  0  0
  6 92  1  0  0  0
  6 93  1  0  0  0
  7  8  2  0  0  0
  7 26  1  0  0  0
  7 29  1  0  0  0
  8  9  1  0  0  0
  8 22  1  0  0  0
  9 10  1  0  0  0
  9 27  2  0  0  0
 10 11  2  0  0  0
 10 15  1  0  0  0
 11 12  1  0  0  0
 11 94  1  0  0  0
 12 13  2  0  0  0
 12 95  1  0  0  0
 13 14  1  0  0  0
 13 31  1  0  0  0
 14 15  2  0  0  0
 14 96  1  0  0  0
 15 97  1  0  0  0
 16 17  2  0  0  0
 16 21  1  0  0  0
 16 31  1  0  0  0
 17 18  1  0  0  0
 17 98  1  0  0  0
 18 19  2  0  0  0
 18 99  1  0  0  0
 19 20  1  0  0  0
 19 24  1  0  0  0
 20 21  2  0  0  0
 20100  1  0  0  0
 21 23  1  0  0  0
 22 28  1  0  0  0
 22 32  2  0  0  0
 26 27  1  0  0  0
 28101  1  0  0  0
 28102  1  0  0  0
 29103  1  0  0  0
 29104  1  0  0  0
 33 34  1  0  0  0
 33 66  1  0  0  0
 33 70  2  0  0  0
 34 36  1  0  0  0
 34 59  1  0  0  0
 34105  1  0  0  0
 35 44  2  0  0  0
 35 45  1  0  0  0
 35 68  1  0  0  0
 36 56  1  0  0  0
 36106  1  0  0  0
 37 39  1  0  0  0
 37 47  1  0  0  0
 37 66  1  0  0  0
 37107  1  0  0  0
 38 43  2  0  0  0
 38 46  1  0  0  0
 38 47  1  0  0  0
 39 64  1  0  0  0
 39 67  2  0  0  0
 40 52  1  0  0  0
 40 53  2  0  0  0
 40 58  1  0  0  0
 41108  1  0  0  0
 41109  1  0  0  0
 41110  1  0  0  0
 41 48  1  0  0  0
 42 43  1  0  0  0
 42 66  1  0  0  0
 42111  1  0  0  0
 42112  1  0  0  0
 43 44  1  0  0  0
 44113  1  0  0  0
 45 46  2  0  0  0
 45114  1  0  0  0
 46115  1  0  0  0
 47116  1  0  0  0
 47117  1  0  0  0
 48 56  1  0  0  0
 48 65  1  0  0  0
 48118  1  0  0  0
 49 50  1  0  0  0
 49 53  1  0  0  0
 49 64  1  0  0  0
 49119  1  0  0  0
 50 51  1  0  0  0
 50120  1  0  0  0
 50121  1  0  0  0
 51 52  1  0  0  0
 51122  1  0  0  0
 51123  1  0  0  0
 52124  1  0  0  0
 52125  1  0  0  0
 53 54  1  0  0  0
 54 55  2  0  0  0
 54126  1  0  0  0
 55 57  1  0  0  0
 55127  1  0  0  0
 56 69  2  0  0  0
 57 58  2  0  0  0
 57128  1  0  0  0
 58129  1  0  0  0
 59 60  1  0  0  0
 59 61  1  0  0  0
 59 62  1  0  0  0
 60130  1  0  0  0
 60131  1  0  0  0
 60132  1  0  0  0
 61133  1  0  0  0
 61134  1  0  0  0
 61135  1  0  0  0
 62136  1  0  0  0
 62137  1  0  0  0
 62138  1  0  0  0
 63 65  1  0  0  0
 63139  1  0  0  0
 63140  1  0  0  0
 63141  1  0  0  0
 64142  1  0  0  0
 65143  1  0  0  0
 68 80  1  0  0  0
 71 75  1  0  0  0
 71 82  1  0  0  0
 71 83  2  0  0  0
 72 76  1  0  0  0
 72 82  2  0  0  0
 72 84  1  0  0  0
 73 77  1  0  0  0
 73144  1  0  0  0
 73145  1  0  0  0
 73146  1  0  0  0
 74147  1  0  0  0
 74148  1  0  0  0
 74149  1  0  0  0
 74 81  1  0  0  0
 75 78  1  0  0  0
 75150  1  0  0  0
 75151  1  0  0  0
 76 80  1  0  0  0
 76152  1  0  0  0
 76153  1  0  0  0
 77 79  1  0  0  0
 77154  1  0  0  0
 77155  1  0  0  0
 78 79  1  0  0  0
 78156  1  0  0  0
 78157  1  0  0  0
 79158  1  0  0  0
 79159  1  0  0  0
 80160  1  0  0  0
 80161  1  0  0  0
 81 84  1  0  0  0
 81162  1  0  0  0
 83 84  1  0  0  0
M  ISO  4   1 100  68 101  80 101  81 100
M  END
> <chiral flag>
0

> <version>
0

> <s_m_source_file>
/data/baiqing/PycharmProjects/Reinvent-master-3.2/result/LINK_invent/BTK/process_docking_weight1_custom_sum_contain_oxygen_bond_distance_aromatic_linkinvent_7_9_3/rearranged_h_0052.sdf

> <i_m_source_file_index>
75

> <r_mmod_Potential_Energy-OPLS-2005>
2612.18090820312

> <r_mmod_Stretch_Energy-OPLS-2005>
1148.94396972656

> <r_mmod_Bend_Energy-OPLS-2005>
778.889770507812

> <r_mmod_Torsional_Energy-OPLS-2005>
234.70458984375

> <r_mmod_Improper_Torsional_Energy-OPLS-2005>
4.95052289962769

> <r_mmod_Van_der_Waal_Energy-OPLS-2005>
100.118995666504

> <r_mmod_Electrostatic_Energy-OPLS-2005>
-279.478179931641

> <r_mmod_Solvation_Energy-OPLS-2005>
-220.397811889648

> <b_mmod_Minimization_Converged-OPLS-2005>
0

> <r_mmod_RMS_Derivative-OPLS-2005>
0.735174417495728

$$$$
75
                    3D
 Structure written by MMmdl.
148156  0  0  1  0            999 V2000
  -30.5802  -14.8828   20.4245 C   0  0  0  0  0  0
  -30.4312  -12.5443   19.4935 C   0  0  0  0  0  0
  -29.5149  -12.5174   18.2500 C   0  0  0  0  0  0
  -28.0460  -12.3183   18.6673 C   0  0  0  0  0  0
  -27.6305  -13.2460   19.8398 C   0  0  2  0  0  0
  -28.6736  -13.2584   20.9775 C   0  0  0  0  0  0
  -25.2461  -13.8217   20.5712 C   0  0  0  0  0  0
  -24.1776  -13.0441   20.9228 C   0  0  0  0  0  0
  -24.6390  -11.6926   20.8758 C   0  0  0  0  0  0
  -23.9076  -10.4295   21.0410 C   0  0  0  0  0  0
  -24.3625   -9.4207   21.9186 C   0  0  0  0  0  0
  -23.6298   -8.2243   22.0754 C   0  0  0  0  0  0
  -22.4280   -8.0282   21.3544 C   0  0  0  0  0  0
  -21.9918   -9.0257   20.4647 C   0  0  0  0  0  0
  -22.7249  -10.2135   20.3057 C   0  0  0  0  0  0
  -21.6855   -6.0736   22.5279 C   0  0  0  0  0  0
  -21.4016   -6.5640   23.8212 C   0  0  0  0  0  0
  -21.3660   -5.6793   24.9174 C   0  0  0  0  0  0
  -21.6044   -4.3055   24.7225 C   0  0  0  0  0  0
  -21.8819   -3.8147   23.4346 C   0  0  0  0  0  0
  -21.9193   -4.6964   22.3402 C   0  0  0  0  0  0
  -22.7795  -13.5211   21.1882 C   0  0  0  0  0  0
  -22.1661   -4.2149   21.0980 F   0  0  0  0  0  0
  -21.5628   -3.4539   25.7738 F   0  0  0  0  0  0
  -29.9562  -13.6431   20.3787 N   0  0  0  0  0  0
  -26.2886  -12.9448   20.3254 N   0  0  0  0  0  0
  -25.9322  -11.6578   20.5748 N   0  0  0  0  0  0
  -22.0448  -12.8197   22.0438 N   0  0  0  0  0  0
  -25.4124  -15.1946   20.4130 N   0  0  0  0  0  0
  -31.7831  -14.9275   20.1505 O   0  0  0  0  0  0
  -21.6642   -6.8880   21.4241 O   0  0  0  0  0  0
  -22.3477  -14.5514   20.6725 O   0  0  0  0  0  0
  -24.6401  -31.8467   23.1902 C   0  0  0  0  0  0
  -25.9186  -32.4708   23.8282 C   0  0  1  0  0  0
  -27.2162  -27.1687   20.1467 C   0  0  0  0  0  0
  -25.5945  -33.8513   24.2200 N   0  0  0  0  0  0
  -23.4417  -30.4666   21.5353 C   0  0  2  0  0  0
  -24.8902  -28.8977   20.1092 C   0  0  0  0  0  0
  -22.7550  -29.4559   22.4872 C   0  0  0  0  0  0
  -18.0301  -28.1394   22.8479 C   0  0  0  0  0  0
  -24.1491  -36.7262   23.2642 C   0  0  0  0  0  0
  -25.9948  -30.7310   21.3835 C   0  0  0  0  0  0
  -26.0659  -29.3452   20.7248 C   0  0  0  0  0  0
  -27.2307  -28.4961   20.7263 C   0  0  0  0  0  0
  -26.0159  -26.8125   19.4941 C   0  0  0  0  0  0
  -24.8761  -27.6440   19.4789 C   0  0  0  0  0  0
  -23.6655  -29.7962   20.1538 C   0  0  0  0  0  0
  -25.4122  -36.3041   24.0317 C   0  0  1  0  0  0
  -20.5911  -28.3715   23.1245 C   0  0  2  0  0  0
  -20.6785  -26.9422   22.5406 C   0  0  0  0  0  0
  -19.5760  -26.6382   21.5213 C   0  0  0  0  0  0
  -18.1941  -26.7933   22.1625 C   0  0  0  0  0  0
  -19.1557  -28.8872   23.2855 C   0  0  0  0  0  0
  -18.9474  -30.1470   23.8878 C   0  0  0  0  0  0
  -17.6471  -30.6591   24.0560 C   0  0  0  0  0  0
  -25.9070  -34.9415   23.5067 C   0  0  0  0  0  0
  -16.5362  -29.9085   23.6335 C   0  0  0  0  0  0
  -16.7286  -28.6504   23.0356 C   0  0  0  0  0  0
  -26.4519  -31.6569   25.0714 C   0  0  0  0  0  0
  -25.3711  -31.3748   26.1413 C   0  0  0  0  0  0
  -27.0386  -30.2972   24.6275 C   0  0  0  0  0  0
  -27.6051  -32.4334   25.7499 C   0  0  0  0  0  0
  -27.5576  -37.1788   24.8466 C   0  0  0  0  0  0
  -21.4245  -29.3045   22.3621 N   0  0  0  0  0  0
  -26.4288  -37.3750   23.9407 N   0  0  0  0  0  0
  -24.7118  -31.0353   22.0918 N   0  0  0  0  0  0
  -23.4208  -28.8109   23.3012 O   0  0  0  0  0  0
  -28.2815  -26.2109   20.2217 O   0  0  0  0  0  0
  -26.5656  -34.8908   22.4646 O   0  0  0  0  0  0
  -23.5528  -32.1328   23.7144 O   0  0  0  0  0  0
  -29.0004  -21.0040   21.5418 C   0  0  0  0  0  0
  -29.6227  -19.8681   19.2110 C   0  0  0  0  0  0
  -29.0504  -21.8828   20.3998 C   0  0  0  0  0  0
  -29.6241  -18.9984   20.3607 C   0  0  0  0  0  0
  -29.1341  -23.5231   20.5122 C   0  0  0  0  0  0
  -30.3863  -17.5414   20.3793 C   0  0  0  0  0  0
  -28.0377  -24.6902   20.0651 C   0  0  0  0  0  0
  -29.3541  -21.2376   19.2236 N   0  0  0  0  0  0
  -29.2780  -19.6350   21.5301 N   0  0  0  0  0  0
  -29.8477  -16.0843   20.5535 N   0  0  0  0  0  0
  -31.4691  -12.6803   19.1857 H   0  0  0  0  0  0
  -30.4007  -11.5884   20.0189 H   0  0  0  0  0  0
  -29.8222  -11.7227   17.5689 H   0  0  0  0  0  0
  -29.6168  -13.4525   17.6970 H   0  0  0  0  0  0
  -27.9301  -11.2755   18.9651 H   0  0  0  0  0  0
  -27.3844  -12.4654   17.8128 H   0  0  0  0  0  0
  -27.6001  -14.2520   19.4203 H   0  0  0  0  0  0
  -28.7437  -12.2821   21.4594 H   0  0  0  0  0  0
  -28.3863  -13.9687   21.7545 H   0  0  0  0  0  0
  -25.2768   -9.5683   22.4764 H   0  0  0  0  0  0
  -24.0005   -7.4634   22.7474 H   0  0  0  0  0  0
  -21.0849   -8.8778   19.8952 H   0  0  0  0  0  0
  -22.3707  -10.9675   19.6168 H   0  0  0  0  0  0
  -21.2010   -7.6149   23.9715 H   0  0  0  0  0  0
  -21.1481   -6.0523   25.9077 H   0  0  0  0  0  0
  -22.0598   -2.7609   23.2847 H   0  0  0  0  0  0
  -22.4074  -11.9863   22.4828 H   0  0  0  0  0  0
  -21.1062  -13.1210   22.2644 H   0  0  0  0  0  0
  -24.6419  -15.8449   20.5241 H   0  0  0  0  0  0
  -26.2536  -15.6361   20.0654 H   0  0  0  0  0  0
  -26.7251  -32.5325   23.1013 H   0  0  0  0  0  0
  -25.0069  -33.9632   25.0332 H   0  0  0  0  0  0
  -22.7425  -31.2915   21.3829 H   0  0  0  0  0  0
  -23.3757  -35.9591   23.3295 H   0  0  0  0  0  0
  -24.3575  -36.8904   22.2059 H   0  0  0  0  0  0
  -23.7242  -37.6455   23.6684 H   0  0  0  0  0  0
  -26.1464  -31.4874   20.6123 H   0  0  0  0  0  0
  -26.8669  -30.7802   22.0240 H   0  0  0  0  0  0
  -28.1275  -28.8328   21.2273 H   0  0  0  0  0  0
  -25.9283  -25.8528   19.0073 H   0  0  0  0  0  0
  -23.9777  -27.2969   18.9872 H   0  0  0  0  0  0
  -23.7986  -30.5707   19.3977 H   0  0  0  0  0  0
  -22.7810  -29.2360   19.8453 H   0  0  0  0  0  0
  -25.1310  -36.1872   25.0810 H   0  0  0  0  0  0
  -21.0004  -28.3303   24.1366 H   0  0  0  0  0  0
  -20.5681  -26.2328   23.3621 H   0  0  0  0  0  0
  -21.6652  -26.7432   22.1203 H   0  0  0  0  0  0
  -19.6920  -25.6288   21.1255 H   0  0  0  0  0  0
  -19.6696  -27.3182   20.6735 H   0  0  0  0  0  0
  -17.4210  -26.6678   21.4029 H   0  0  0  0  0  0
  -18.0341  -26.0079   22.9026 H   0  0  0  0  0  0
  -19.7949  -30.7292   24.2239 H   0  0  0  0  0  0
  -17.5024  -31.6269   24.5166 H   0  0  0  0  0  0
  -15.5361  -30.2980   23.7670 H   0  0  0  0  0  0
  -15.8687  -28.0816   22.7081 H   0  0  0  0  0  0
  -24.5898  -30.7087   25.7735 H   0  0  0  0  0  0
  -24.8890  -32.2926   26.4789 H   0  0  0  0  0  0
  -25.8002  -30.8955   27.0222 H   0  0  0  0  0  0
  -26.2998  -29.6695   24.1278 H   0  0  0  0  0  0
  -27.4008  -29.7268   25.4838 H   0  0  0  0  0  0
  -27.8900  -30.4219   23.9580 H   0  0  0  0  0  0
  -27.2642  -33.3651   26.2027 H   0  0  0  0  0  0
  -28.3887  -32.6870   25.0347 H   0  0  0  0  0  0
  -28.0691  -31.8493   26.5456 H   0  0  0  0  0  0
  -28.2588  -38.0090   24.7511 H   0  0  0  0  0  0
  -28.1077  -36.2618   24.6296 H   0  0  0  0  0  0
  -27.2292  -37.1439   25.8868 H   0  0  0  0  0  0
  -20.9450  -29.8757   21.6803 H   0  0  0  0  0  0
  -26.0157  -38.2820   24.1408 H   0  0  0  0  0  0
  -28.8282  -21.4260   22.5214 H   0  0  0  0  0  0
  -29.9502  -19.4778   18.2582 H   0  0  0  0  0  0
  -30.0626  -23.7818   20.0039 H   0  0  0  0  0  0
  -29.3499  -23.7147   21.5633 H   0  0  0  0  0  0
  -31.1564  -17.6463   21.1443 H   0  0  0  0  0  0
  -30.9511  -17.5173   19.4463 H   0  0  0  0  0  0
  -27.1137  -24.4635   20.5983 H   0  0  0  0  0  0
  -27.8160  -24.5221   19.0110 H   0  0  0  0  0  0
  -28.8598  -15.9946   20.7351 H   0  0  0  0  0  0
  1 25  1  0  0  0
  1 30  2  0  0  0
  1 80  1  0  0  0
  2  3  1  0  0  0
  2 25  1  0  0  0
  2 81  1  0  0  0
  2 82  1  0  0  0
  3  4  1  0  0  0
  3 83  1  0  0  0
  3 84  1  0  0  0
  4  5  1  0  0  0
  4 85  1  0  0  0
  4 86  1  0  0  0
  5  6  1  0  0  0
  5 26  1  0  0  0
  5 87  1  0  0  0
  6 25  1  0  0  0
  6 88  1  0  0  0
  6 89  1  0  0  0
  7  8  2  0  0  0
  7 26  1  0  0  0
  7 29  1  0  0  0
  8  9  1  0  0  0
  8 22  1  0  0  0
  9 10  1  0  0  0
  9 27  2  0  0  0
 10 11  2  0  0  0
 10 15  1  0  0  0
 11 12  1  0  0  0
 11 90  1  0  0  0
 12 13  2  0  0  0
 12 91  1  0  0  0
 13 14  1  0  0  0
 13 31  1  0  0  0
 14 15  2  0  0  0
 14 92  1  0  0  0
 15 93  1  0  0  0
 16 17  2  0  0  0
 16 21  1  0  0  0
 16 31  1  0  0  0
 17 18  1  0  0  0
 17 94  1  0  0  0
 18 19  2  0  0  0
 18 95  1  0  0  0
 19 20  1  0  0  0
 19 24  1  0  0  0
 20 21  2  0  0  0
 20 96  1  0  0  0
 21 23  1  0  0  0
 22 28  1  0  0  0
 22 32  2  0  0  0
 26 27  1  0  0  0
 28 97  1  0  0  0
 28 98  1  0  0  0
 29 99  1  0  0  0
 29100  1  0  0  0
 33 34  1  0  0  0
 33 66  1  0  0  0
 33 70  2  0  0  0
 34 36  1  0  0  0
 34 59  1  0  0  0
 34101  1  0  0  0
 35 44  2  0  0  0
 35 45  1  0  0  0
 35 68  1  0  0  0
 36 56  1  0  0  0
 36102  1  0  0  0
 37 39  1  0  0  0
 37 47  1  0  0  0
 37 66  1  0  0  0
 37103  1  0  0  0
 38 43  2  0  0  0
 38 46  1  0  0  0
 38 47  1  0  0  0
 39 64  1  0  0  0
 39 67  2  0  0  0
 40 52  1  0  0  0
 40 53  2  0  0  0
 40 58  1  0  0  0
 41104  1  0  0  0
 41105  1  0  0  0
 41106  1  0  0  0
 41 48  1  0  0  0
 42 43  1  0  0  0
 42 66  1  0  0  0
 42107  1  0  0  0
 42108  1  0  0  0
 43 44  1  0  0  0
 44109  1  0  0  0
 45 46  2  0  0  0
 45110  1  0  0  0
 46111  1  0  0  0
 47112  1  0  0  0
 47113  1  0  0  0
 48 56  1  0  0  0
 48 65  1  0  0  0
 48114  1  0  0  0
 49 50  1  0  0  0
 49 53  1  0  0  0
 49 64  1  0  0  0
 49115  1  0  0  0
 50 51  1  0  0  0
 50116  1  0  0  0
 50117  1  0  0  0
 51 52  1  0  0  0
 51118  1  0  0  0
 51119  1  0  0  0
 52120  1  0  0  0
 52121  1  0  0  0
 53 54  1  0  0  0
 54 55  2  0  0  0
 54122  1  0  0  0
 55 57  1  0  0  0
 55123  1  0  0  0
 56 69  2  0  0  0
 57 58  2  0  0  0
 57124  1  0  0  0
 58125  1  0  0  0
 59 60  1  0  0  0
 59 61  1  0  0  0
 59 62  1  0  0  0
 60126  1  0  0  0
 60127  1  0  0  0
 60128  1  0  0  0
 61129  1  0  0  0
 61130  1  0  0  0
 61131  1  0  0  0
 62132  1  0  0  0
 62133  1  0  0  0
 62134  1  0  0  0
 63 65  1  0  0  0
 63135  1  0  0  0
 63136  1  0  0  0
 63137  1  0  0  0
 64138  1  0  0  0
 65139  1  0  0  0
 68 77  1  0  0  0
 71 73  2  0  0  0
 71 79  1  0  0  0
 71140  1  0  0  0
 72 74  1  0  0  0
 72 78  2  0  0  0
 72141  1  0  0  0
 73 75  1  0  0  0
 73 78  1  0  0  0
 74 76  1  0  0  0
 74 79  2  0  0  0
 75 77  1  0  0  0
 75142  1  0  0  0
 75143  1  0  0  0
 76 80  1  0  0  0
 76144  1  0  0  0
 76145  1  0  0  0
 77146  1  0  0  0
 77147  1  0  0  0
 80148  1  0  0  0
M  ISO  4   1 100  68 101  77 101  80 100
M  END
> <chiral flag>
0

> <version>
0

> <s_m_source_file>
/data/baiqing/PycharmProjects/Reinvent-master-3.2/result/LINK_invent/BTK/process_docking_weight1_custom_sum_contain_oxygen_bond_distance_aromatic_linkinvent_7_9_3/rearranged_h_0052.sdf

> <i_m_source_file_index>
76

> <r_mmod_Potential_Energy-OPLS-2005>
380.924407958984

> <r_mmod_Stretch_Energy-OPLS-2005>
205.563186645508

> <r_mmod_Bend_Energy-OPLS-2005>
240.317596435547

> <r_mmod_Torsional_Energy-OPLS-2005>
211.940643310547

> <r_mmod_Improper_Torsional_Energy-OPLS-2005>
9.99265956878662

> <r_mmod_Van_der_Waal_Energy-OPLS-2005>
137.857238769531

> <r_mmod_Electrostatic_Energy-OPLS-2005>
-350.25830078125

> <r_mmod_Solvation_Energy-OPLS-2005>
-230.820938110352

> <b_mmod_Minimization_Converged-OPLS-2005>
0

> <r_mmod_RMS_Derivative-OPLS-2005>
0.105213910341263

$$$$
76
                    3D
 Structure written by MMmdl.
152160  0  0  1  0            999 V2000
  -30.6345  -14.7002   20.4686 C   0  0  0  0  0  0
  -30.4252  -12.4273   19.4724 C   0  0  0  0  0  0
  -29.5067  -12.5061   18.2341 C   0  0  0  0  0  0
  -28.0297  -12.3468   18.6451 C   0  0  0  0  0  0
  -27.6422  -13.2350   19.8571 C   0  0  2  0  0  0
  -28.6873  -13.1501   20.9919 C   0  0  0  0  0  0
  -25.2496  -13.8198   20.5693 C   0  0  0  0  0  0
  -24.1793  -13.0431   20.9213 C   0  0  0  0  0  0
  -24.6398  -11.6919   20.8764 C   0  0  0  0  0  0
  -23.9077  -10.4293   21.0424 C   0  0  0  0  0  0
  -24.3632   -9.4207   21.9193 C   0  0  0  0  0  0
  -23.6304   -8.2236   22.0767 C   0  0  0  0  0  0
  -22.4279   -8.0281   21.3558 C   0  0  0  0  0  0
  -21.9921   -9.0253   20.4660 C   0  0  0  0  0  0
  -22.7251  -10.2131   20.3069 C   0  0  0  0  0  0
  -21.6849   -6.0739   22.5281 C   0  0  0  0  0  0
  -21.4015   -6.5643   23.8216 C   0  0  0  0  0  0
  -21.3665   -5.6803   24.9178 C   0  0  0  0  0  0
  -21.6047   -4.3064   24.7227 C   0  0  0  0  0  0
  -21.8821   -3.8152   23.4350 C   0  0  0  0  0  0
  -21.9193   -4.6964   22.3411 C   0  0  0  0  0  0
  -22.7808  -13.5190   21.1899 C   0  0  0  0  0  0
  -22.1656   -4.2155   21.0980 F   0  0  0  0  0  0
  -21.5645   -3.4550   25.7745 F   0  0  0  0  0  0
  -29.9913  -13.4873   20.4107 N   0  0  0  0  0  0
  -26.2944  -12.9423   20.3321 N   0  0  0  0  0  0
  -25.9332  -11.6561   20.5782 N   0  0  0  0  0  0
  -22.0475  -12.8148   22.0439 N   0  0  0  0  0  0
  -25.4156  -15.1924   20.4102 N   0  0  0  0  0  0
  -31.8221  -14.7837   20.1480 O   0  0  0  0  0  0
  -21.6636   -6.8881   21.4248 O   0  0  0  0  0  0
  -22.3478  -14.5510   20.6793 O   0  0  0  0  0  0
  -24.6289  -31.8575   23.2012 C   0  0  0  0  0  0
  -25.9125  -32.4767   23.8351 C   0  0  1  0  0  0
  -27.2163  -27.2842   20.1369 C   0  0  0  0  0  0
  -25.5930  -33.8570   24.2281 N   0  0  0  0  0  0
  -23.4241  -30.4808   21.5429 C   0  0  2  0  0  0
  -24.8718  -28.9302   20.1129 C   0  0  0  0  0  0
  -22.7487  -29.4620   22.4926 C   0  0  0  0  0  0
  -18.0292  -28.1376   22.8486 C   0  0  0  0  0  0
  -24.1491  -36.7281   23.2632 C   0  0  0  0  0  0
  -25.9678  -30.7809   21.3753 C   0  0  0  0  0  0
  -26.0425  -29.4037   20.7203 C   0  0  0  0  0  0
  -27.2215  -28.5937   20.7181 C   0  0  0  0  0  0
  -26.0311  -26.8802   19.4865 C   0  0  0  0  0  0
  -24.8709  -27.6775   19.4808 C   0  0  0  0  0  0
  -23.6402  -29.8124   20.1603 C   0  0  0  0  0  0
  -25.4116  -36.3079   24.0332 C   0  0  1  0  0  0
  -20.5890  -28.3689   23.1268 C   0  0  2  0  0  0
  -20.6792  -26.9410   22.5403 C   0  0  0  0  0  0
  -19.5770  -26.6379   21.5205 C   0  0  0  0  0  0
  -18.1947  -26.7927   22.1611 C   0  0  0  0  0  0
  -19.1539  -28.8848   23.2875 C   0  0  0  0  0  0
  -18.9454  -30.1445   23.8900 C   0  0  0  0  0  0
  -17.6452  -30.6585   24.0547 C   0  0  0  0  0  0
  -25.9046  -34.9444   23.5111 C   0  0  0  0  0  0
  -16.5347  -29.9076   23.6324 C   0  0  0  0  0  0
  -16.7275  -28.6483   23.0372 C   0  0  0  0  0  0
  -26.4513  -31.6567   25.0714 C   0  0  0  0  0  0
  -25.3733  -31.3683   26.1421 C   0  0  0  0  0  0
  -27.0356  -30.2995   24.6160 C   0  0  0  0  0  0
  -27.6088  -32.4279   25.7484 C   0  0  0  0  0  0
  -27.5594  -37.1794   24.8464 C   0  0  0  0  0  0
  -21.4195  -29.3046   22.3665 N   0  0  0  0  0  0
  -26.4301  -37.3772   23.9413 N   0  0  0  0  0  0
  -24.6924  -31.0570   22.0965 N   0  0  0  0  0  0
  -23.4202  -28.8166   23.3018 O   0  0  0  0  0  0
  -28.3135  -26.4030   20.1714 O   0  0  0  0  0  0
  -26.5617  -34.8914   22.4675 O   0  0  0  0  0  0
  -23.5445  -32.1357   23.7340 O   0  0  0  0  0  0
  -31.3733  -20.8638   18.3406 C   0  0  0  0  0  0
  -30.0839  -19.8753   19.6845 C   0  0  0  0  0  0
  -29.4496  -18.6028   20.3564 C   0  0  0  0  0  0
  -29.0465  -23.8162   20.0154 C   0  0  0  0  0  0
  -28.8593  -22.2365   20.3960 C   0  0  0  0  0  0
  -30.4017  -17.2771   20.4159 C   0  0  0  0  0  0
  -28.0766  -24.9743   20.5653 C   0  0  0  0  0  0
  -31.0498  -19.6278   18.7937 N   0  0  0  0  0  0
  -30.6748  -21.8556   18.8680 N   0  0  0  0  0  0
  -29.8079  -21.2532   19.7300 N   0  0  0  0  0  0
  -29.8933  -15.8553   20.6570 N   0  0  0  0  0  0
  -31.4707  -12.5314   19.1780 H   0  0  0  0  0  0
  -30.3529  -11.4486   19.9465 H   0  0  0  0  0  0
  -29.7743  -11.7333   17.5129 H   0  0  0  0  0  0
  -29.6541  -13.4607   17.7273 H   0  0  0  0  0  0
  -27.8672  -11.2961   18.8870 H   0  0  0  0  0  0
  -27.3777  -12.5653   17.7996 H   0  0  0  0  0  0
  -27.6413  -14.2606   19.4884 H   0  0  0  0  0  0
  -28.7113  -12.1483   21.4236 H   0  0  0  0  0  0
  -28.4344  -13.8294   21.8080 H   0  0  0  0  0  0
  -25.2778   -9.5664   22.4768 H   0  0  0  0  0  0
  -24.0023   -7.4610   22.7459 H   0  0  0  0  0  0
  -21.0875   -8.8770   19.8933 H   0  0  0  0  0  0
  -22.3730  -10.9677   19.6177 H   0  0  0  0  0  0
  -21.1997   -7.6152   23.9721 H   0  0  0  0  0  0
  -21.1493   -6.0530   25.9085 H   0  0  0  0  0  0
  -22.0595   -2.7611   23.2849 H   0  0  0  0  0  0
  -22.4098  -11.9790   22.4793 H   0  0  0  0  0  0
  -21.1114  -13.1169   22.2719 H   0  0  0  0  0  0
  -24.6470  -15.8448   20.5250 H   0  0  0  0  0  0
  -26.2582  -15.6335   20.0640 H   0  0  0  0  0  0
  -26.7200  -32.5464   23.1107 H   0  0  0  0  0  0
  -25.0121  -33.9699   25.0460 H   0  0  0  0  0  0
  -22.7180  -31.3014   21.3965 H   0  0  0  0  0  0
  -23.3769  -35.9600   23.3282 H   0  0  0  0  0  0
  -24.3582  -36.8914   22.2051 H   0  0  0  0  0  0
  -23.7222  -37.6470   23.6659 H   0  0  0  0  0  0
  -26.1018  -31.5441   20.6070 H   0  0  0  0  0  0
  -26.8475  -30.8341   22.0055 H   0  0  0  0  0  0
  -28.1219  -28.9486   21.2004 H   0  0  0  0  0  0
  -25.9882  -25.9290   18.9770 H   0  0  0  0  0  0
  -23.9791  -27.3148   18.9868 H   0  0  0  0  0  0
  -23.7578  -30.5856   19.4005 H   0  0  0  0  0  0
  -22.7602  -29.2403   19.8617 H   0  0  0  0  0  0
  -25.1298  -36.1943   25.0827 H   0  0  0  0  0  0
  -20.9980  -28.3280   24.1388 H   0  0  0  0  0  0
  -20.5704  -26.2292   23.3600 H   0  0  0  0  0  0
  -21.6661  -26.7454   22.1187 H   0  0  0  0  0  0
  -19.6942  -25.6286   21.1251 H   0  0  0  0  0  0
  -19.6724  -27.3178   20.6726 H   0  0  0  0  0  0
  -17.4217  -26.6663   21.4019 H   0  0  0  0  0  0
  -18.0353  -26.0062   22.8995 H   0  0  0  0  0  0
  -19.7918  -30.7259   24.2299 H   0  0  0  0  0  0
  -17.4996  -31.6272   24.5137 H   0  0  0  0  0  0
  -15.5345  -30.2982   23.7636 H   0  0  0  0  0  0
  -15.8673  -28.0790   22.7117 H   0  0  0  0  0  0
  -24.5927  -30.7023   25.7724 H   0  0  0  0  0  0
  -24.8887  -32.2826   26.4854 H   0  0  0  0  0  0
  -25.8038  -30.8842   27.0191 H   0  0  0  0  0  0
  -26.2921  -29.6733   24.1205 H   0  0  0  0  0  0
  -27.4085  -29.7271   25.4664 H   0  0  0  0  0  0
  -27.8791  -30.4293   23.9370 H   0  0  0  0  0  0
  -27.2743  -33.3598   26.2059 H   0  0  0  0  0  0
  -28.3913  -32.6792   25.0310 H   0  0  0  0  0  0
  -28.0738  -31.8376   26.5390 H   0  0  0  0  0  0
  -28.2596  -38.0107   24.7542 H   0  0  0  0  0  0
  -28.1108  -36.2638   24.6266 H   0  0  0  0  0  0
  -27.2303  -37.1417   25.8861 H   0  0  0  0  0  0
  -20.9380  -29.8705   21.6815 H   0  0  0  0  0  0
  -26.0189  -38.2858   24.1399 H   0  0  0  0  0  0
  -32.1356  -21.0363   17.5939 H   0  0  0  0  0  0
  -28.5429  -18.3633   19.8002 H   0  0  0  0  0  0
  -29.1211  -18.8705   21.3605 H   0  0  0  0  0  0
  -29.0051  -23.8948   18.9289 H   0  0  0  0  0  0
  -30.0624  -24.1044   20.2873 H   0  0  0  0  0  0
  -27.8448  -21.9297   20.1426 H   0  0  0  0  0  0
  -28.9571  -22.1078   21.4740 H   0  0  0  0  0  0
  -31.2038  -17.4689   21.1306 H   0  0  0  0  0  0
  -30.9042  -17.2003   19.4528 H   0  0  0  0  0  0
  -28.1268  -24.9588   21.6546 H   0  0  0  0  0  0
  -27.0581  -24.6661   20.3437 H   0  0  0  0  0  0
  -28.9149  -15.7375   20.8739 H   0  0  0  0  0  0
  1 25  1  0  0  0
  1 30  2  0  0  0
  1 81  1  0  0  0
  2  3  1  0  0  0
  2 25  1  0  0  0
  2 82  1  0  0  0
  2 83  1  0  0  0
  3  4  1  0  0  0
  3 84  1  0  0  0
  3 85  1  0  0  0
  4  5  1  0  0  0
  4 86  1  0  0  0
  4 87  1  0  0  0
  5  6  1  0  0  0
  5 26  1  0  0  0
  5 88  1  0  0  0
  6 25  1  0  0  0
  6 89  1  0  0  0
  6 90  1  0  0  0
  7  8  2  0  0  0
  7 26  1  0  0  0
  7 29  1  0  0  0
  8  9  1  0  0  0
  8 22  1  0  0  0
  9 10  1  0  0  0
  9 27  2  0  0  0
 10 11  2  0  0  0
 10 15  1  0  0  0
 11 12  1  0  0  0
 11 91  1  0  0  0
 12 13  2  0  0  0
 12 92  1  0  0  0
 13 14  1  0  0  0
 13 31  1  0  0  0
 14 15  2  0  0  0
 14 93  1  0  0  0
 15 94  1  0  0  0
 16 17  2  0  0  0
 16 21  1  0  0  0
 16 31  1  0  0  0
 17 18  1  0  0  0
 17 95  1  0  0  0
 18 19  2  0  0  0
 18 96  1  0  0  0
 19 20  1  0  0  0
 19 24  1  0  0  0
 20 21  2  0  0  0
 20 97  1  0  0  0
 21 23  1  0  0  0
 22 28  1  0  0  0
 22 32  2  0  0  0
 26 27  1  0  0  0
 28 98  1  0  0  0
 28 99  1  0  0  0
 29100  1  0  0  0
 29101  1  0  0  0
 33 34  1  0  0  0
 33 66  1  0  0  0
 33 70  2  0  0  0
 34 36  1  0  0  0
 34 59  1  0  0  0
 34102  1  0  0  0
 35 44  2  0  0  0
 35 45  1  0  0  0
 35 68  1  0  0  0
 36 56  1  0  0  0
 36103  1  0  0  0
 37 39  1  0  0  0
 37 47  1  0  0  0
 37 66  1  0  0  0
 37104  1  0  0  0
 38 43  2  0  0  0
 38 46  1  0  0  0
 38 47  1  0  0  0
 39 64  1  0  0  0
 39 67  2  0  0  0
 40 52  1  0  0  0
 40 53  2  0  0  0
 40 58  1  0  0  0
 41105  1  0  0  0
 41106  1  0  0  0
 41107  1  0  0  0
 41 48  1  0  0  0
 42 43  1  0  0  0
 42 66  1  0  0  0
 42108  1  0  0  0
 42109  1  0  0  0
 43 44  1  0  0  0
 44110  1  0  0  0
 45 46  2  0  0  0
 45111  1  0  0  0
 46112  1  0  0  0
 47113  1  0  0  0
 47114  1  0  0  0
 48 56  1  0  0  0
 48 65  1  0  0  0
 48115  1  0  0  0
 49 50  1  0  0  0
 49 53  1  0  0  0
 49 64  1  0  0  0
 49116  1  0  0  0
 50 51  1  0  0  0
 50117  1  0  0  0
 50118  1  0  0  0
 51 52  1  0  0  0
 51119  1  0  0  0
 51120  1  0  0  0
 52121  1  0  0  0
 52122  1  0  0  0
 53 54  1  0  0  0
 54 55  2  0  0  0
 54123  1  0  0  0
 55 57  1  0  0  0
 55124  1  0  0  0
 56 69  2  0  0  0
 57 58  2  0  0  0
 57125  1  0  0  0
 58126  1  0  0  0
 59 60  1  0  0  0
 59 61  1  0  0  0
 59 62  1  0  0  0
 60127  1  0  0  0
 60128  1  0  0  0
 60129  1  0  0  0
 61130  1  0  0  0
 61131  1  0  0  0
 61132  1  0  0  0
 62133  1  0  0  0
 62134  1  0  0  0
 62135  1  0  0  0
 63 65  1  0  0  0
 63136  1  0  0  0
 63137  1  0  0  0
 63138  1  0  0  0
 64139  1  0  0  0
 65140  1  0  0  0
 68 77  1  0  0  0
 71 78  1  0  0  0
 71 79  2  0  0  0
 71141  1  0  0  0
 72 73  1  0  0  0
 72 78  2  0  0  0
 72 80  1  0  0  0
 73 76  1  0  0  0
 73142  1  0  0  0
 73143  1  0  0  0
 74 75  1  0  0  0
 74 77  1  0  0  0
 74144  1  0  0  0
 74145  1  0  0  0
 75 80  1  0  0  0
 75146  1  0  0  0
 75147  1  0  0  0
 76 81  1  0  0  0
 76148  1  0  0  0
 76149  1  0  0  0
 77150  1  0  0  0
 77151  1  0  0  0
 79 80  1  0  0  0
 81152  1  0  0  0
M  ISO  4   1 100  68 101  77 101  81 100
M  END
> <chiral flag>
0

> <version>
0

> <s_m_source_file>
/data/baiqing/PycharmProjects/Reinvent-master-3.2/result/LINK_invent/BTK/process_docking_weight1_custom_sum_contain_oxygen_bond_distance_aromatic_linkinvent_7_9_3/rearranged_h_0052.sdf

> <i_m_source_file_index>
77

> <r_mmod_Potential_Energy-OPLS-2005>
134.542419433594

> <r_mmod_Stretch_Energy-OPLS-2005>
121.902336120605

> <r_mmod_Bend_Energy-OPLS-2005>
189.027496337891

> <r_mmod_Torsional_Energy-OPLS-2005>
228.076568603516

> <r_mmod_Improper_Torsional_Energy-OPLS-2005>
5.51423168182373

> <r_mmod_Van_der_Waal_Energy-OPLS-2005>
129.179565429688

> <r_mmod_Electrostatic_Energy-OPLS-2005>
-368.7529296875

> <r_mmod_Solvation_Energy-OPLS-2005>
-239.808624267578

> <b_mmod_Minimization_Converged-OPLS-2005>
0

> <r_mmod_RMS_Derivative-OPLS-2005>
2.08572244644165

$$$$
77
                    3D
 Structure written by MMmdl.
157165  0  0  1  0            999 V2000
  -30.5364  -14.9710   20.4503 C   0  0  0  0  0  0
  -30.4367  -12.6241   19.4736 C   0  0  0  0  0  0
  -29.4943  -12.5368   18.2477 C   0  0  0  0  0  0
  -28.0436  -12.2982   18.6942 C   0  0  0  0  0  0
  -27.6298  -13.2372   19.8537 C   0  0  2  0  0  0
  -28.6767  -13.2398   20.9878 C   0  0  0  0  0  0
  -25.2459  -13.8188   20.5722 C   0  0  0  0  0  0
  -24.1754  -13.0416   20.9191 C   0  0  0  0  0  0
  -24.6361  -11.6914   20.8740 C   0  0  0  0  0  0
  -23.9043  -10.4282   21.0383 C   0  0  0  0  0  0
  -24.3601   -9.4213   21.9170 C   0  0  0  0  0  0
  -23.6271   -8.2256   22.0767 C   0  0  0  0  0  0
  -22.4262   -8.0274   21.3549 C   0  0  0  0  0  0
  -21.9886   -9.0245   20.4653 C   0  0  0  0  0  0
  -22.7216  -10.2117   20.3043 C   0  0  0  0  0  0
  -21.6857   -6.0719   22.5283 C   0  0  0  0  0  0
  -21.4019   -6.5630   23.8215 C   0  0  0  0  0  0
  -21.3658   -5.6787   24.9180 C   0  0  0  0  0  0
  -21.6043   -4.3049   24.7241 C   0  0  0  0  0  0
  -21.8812   -3.8133   23.4365 C   0  0  0  0  0  0
  -21.9194   -4.6943   22.3411 C   0  0  0  0  0  0
  -22.7790  -13.5225   21.1823 C   0  0  0  0  0  0
  -22.1656   -4.2128   21.0987 F   0  0  0  0  0  0
  -21.5629   -3.4531   25.7758 F   0  0  0  0  0  0
  -29.9461  -13.6986   20.3948 N   0  0  0  0  0  0
  -26.2877  -12.9402   20.3353 N   0  0  0  0  0  0
  -25.9295  -11.6537   20.5789 N   0  0  0  0  0  0
  -22.0421  -12.8205   22.0377 N   0  0  0  0  0  0
  -25.4109  -15.1892   20.4176 N   0  0  0  0  0  0
  -31.6843  -15.0569   19.9953 O   0  0  0  0  0  0
  -21.6645   -6.8860   21.4246 O   0  0  0  0  0  0
  -22.3487  -14.5542   20.6684 O   0  0  0  0  0  0
  -24.6479  -31.8475   23.1897 C   0  0  0  0  0  0
  -25.9255  -32.4711   23.8269 C   0  0  1  0  0  0
  -27.1957  -27.1178   20.1455 C   0  0  0  0  0  0
  -25.6008  -33.8514   24.2209 N   0  0  0  0  0  0
  -23.4447  -30.4696   21.5391 C   0  0  2  0  0  0
  -24.8895  -28.9026   20.0953 C   0  0  0  0  0  0
  -22.7579  -29.4556   22.4880 C   0  0  0  0  0  0
  -18.0307  -28.1336   22.8499 C   0  0  0  0  0  0
  -24.1470  -36.7232   23.2650 C   0  0  0  0  0  0
  -26.0012  -30.7096   21.3889 C   0  0  0  0  0  0
  -26.0672  -29.3229   20.7251 C   0  0  0  0  0  0
  -27.2212  -28.4489   20.7322 C   0  0  0  0  0  0
  -25.9961  -26.8097   19.4612 C   0  0  0  0  0  0
  -24.8714  -27.6618   19.4405 C   0  0  0  0  0  0
  -23.6662  -29.8108   20.1523 C   0  0  0  0  0  0
  -25.4116  -36.3024   24.0303 C   0  0  1  0  0  0
  -20.5931  -28.3684   23.1228 C   0  0  2  0  0  0
  -20.6807  -26.9391   22.5389 C   0  0  0  0  0  0
  -19.5769  -26.6346   21.5205 C   0  0  0  0  0  0
  -18.1947  -26.7896   22.1606 C   0  0  0  0  0  0
  -19.1580  -28.8820   23.2840 C   0  0  0  0  0  0
  -18.9502  -30.1423   23.8854 C   0  0  0  0  0  0
  -17.6504  -30.6562   24.0531 C   0  0  0  0  0  0
  -25.9085  -34.9411   23.5048 C   0  0  0  0  0  0
  -16.5383  -29.9062   23.6331 C   0  0  0  0  0  0
  -16.7304  -28.6465   23.0392 C   0  0  0  0  0  0
  -26.4591  -31.6604   25.0715 C   0  0  0  0  0  0
  -25.3759  -31.3671   26.1383 C   0  0  0  0  0  0
  -27.0530  -30.3055   24.6234 C   0  0  0  0  0  0
  -27.6112  -32.4426   25.7480 C   0  0  0  0  0  0
  -27.5536  -37.1762   24.8479 C   0  0  0  0  0  0
  -21.4278  -29.3036   22.3618 N   0  0  0  0  0  0
  -26.4267  -37.3746   23.9415 N   0  0  0  0  0  0
  -24.7181  -31.0306   22.0939 N   0  0  0  0  0  0
  -23.4239  -28.8080   23.3000 O   0  0  0  0  0  0
  -28.2261  -26.1020   20.2453 O   0  0  0  0  0  0
  -26.5655  -34.8906   22.4606 O   0  0  0  0  0  0
  -23.5602  -32.1405   23.7121 O   0  0  0  0  0  0
  -28.6301  -20.3086   19.8239 C   0  0  0  0  0  0
  -29.0877  -19.3424   22.1284 C   0  0  0  0  0  0
  -30.9865  -19.6665   20.5523 C   0  0  0  0  0  0
  -29.6101  -16.1958   22.3129 C   0  0  0  0  0  0
  -28.7919  -23.1575   20.3946 C   0  0  0  0  0  0
  -29.4810  -17.5408   20.1362 C   0  0  0  0  0  0
  -27.9497  -24.5815   19.9596 C   0  0  0  0  0  0
  -29.5200  -19.2031   20.6531 C   0  0  0  0  0  0
  -27.8396  -19.7573   18.8980 N   0  0  0  0  0  0
  -27.1278  -20.7678   18.3252 N   0  0  0  0  0  0
  -27.4350  -21.9136   18.8327 N   0  0  0  0  0  0
  -28.3866  -21.7450   19.7978 N   0  0  0  0  0  0
  -29.8283  -16.1514   20.8692 N   0  0  0  0  0  0
  -31.4528  -12.8118   19.1222 H   0  0  0  0  0  0
  -30.4795  -11.6690   19.9945 H   0  0  0  0  0  0
  -29.8145  -11.7292   17.5890 H   0  0  0  0  0  0
  -29.5424  -13.4540   17.6583 H   0  0  0  0  0  0
  -27.9787  -11.2588   19.0234 H   0  0  0  0  0  0
  -27.3525  -12.3890   17.8567 H   0  0  0  0  0  0
  -27.6006  -14.2418   19.4333 H   0  0  0  0  0  0
  -28.7795  -12.2429   21.4230 H   0  0  0  0  0  0
  -28.3472  -13.8834   21.8020 H   0  0  0  0  0  0
  -25.2741   -9.5715   22.4728 H   0  0  0  0  0  0
  -23.9988   -7.4676   22.7508 H   0  0  0  0  0  0
  -21.0814   -8.8767   19.8964 H   0  0  0  0  0  0
  -22.3673  -10.9651   19.6149 H   0  0  0  0  0  0
  -21.2011   -7.6138   23.9715 H   0  0  0  0  0  0
  -21.1476   -6.0513   25.9078 H   0  0  0  0  0  0
  -22.0581   -2.7595   23.2878 H   0  0  0  0  0  0
  -22.4043  -11.9868   22.4748 H   0  0  0  0  0  0
  -21.1040  -13.1221   22.2529 H   0  0  0  0  0  0
  -24.6348  -15.8339   20.5265 H   0  0  0  0  0  0
  -26.2739  -15.6486   20.1537 H   0  0  0  0  0  0
  -26.7310  -32.5306   23.0973 H   0  0  0  0  0  0
  -25.0199  -33.9635   25.0385 H   0  0  0  0  0  0
  -22.7456  -31.2960   21.3968 H   0  0  0  0  0  0
  -23.3762  -35.9524   23.3307 H   0  0  0  0  0  0
  -24.3551  -36.8914   22.2070 H   0  0  0  0  0  0
  -23.7225  -37.6397   23.6744 H   0  0  0  0  0  0
  -26.1583  -31.4638   20.6187 H   0  0  0  0  0  0
  -26.8738  -30.7565   22.0260 H   0  0  0  0  0  0
  -28.1141  -28.7669   21.2506 H   0  0  0  0  0  0
  -25.8912  -25.8622   18.9535 H   0  0  0  0  0  0
  -23.9777  -27.3502   18.9182 H   0  0  0  0  0  0
  -23.7957  -30.5981   19.4107 H   0  0  0  0  0  0
  -22.7757  -29.2632   19.8410 H   0  0  0  0  0  0
  -25.1302  -36.1814   25.0790 H   0  0  0  0  0  0
  -20.9997  -28.3270   24.1362 H   0  0  0  0  0  0
  -20.5742  -26.2284   23.3590 H   0  0  0  0  0  0
  -21.6662  -26.7420   22.1135 H   0  0  0  0  0  0
  -19.6923  -25.6247   21.1246 H   0  0  0  0  0  0
  -19.6701  -27.3136   20.6705 H   0  0  0  0  0  0
  -17.4224  -26.6687   21.3978 H   0  0  0  0  0  0
  -18.0298  -25.9993   22.8943 H   0  0  0  0  0  0
  -19.7987  -30.7227   24.2226 H   0  0  0  0  0  0
  -17.5083  -31.6259   24.5100 H   0  0  0  0  0  0
  -15.5404  -30.2948   23.7682 H   0  0  0  0  0  0
  -15.8694  -28.0755   22.7157 H   0  0  0  0  0  0
  -24.5928  -30.7083   25.7615 H   0  0  0  0  0  0
  -24.8929  -32.2770   26.4934 H   0  0  0  0  0  0
  -25.8013  -30.8697   27.0110 H   0  0  0  0  0  0
  -26.3144  -29.6717   24.1309 H   0  0  0  0  0  0
  -27.4333  -29.7405   25.4755 H   0  0  0  0  0  0
  -27.8952  -30.4428   23.9451 H   0  0  0  0  0  0
  -27.2758  -33.3831   26.1870 H   0  0  0  0  0  0
  -28.3971  -32.6865   25.0314 H   0  0  0  0  0  0
  -28.0729  -31.8689   26.5524 H   0  0  0  0  0  0
  -28.2545  -38.0073   24.7565 H   0  0  0  0  0  0
  -28.1046  -36.2591   24.6295 H   0  0  0  0  0  0
  -27.2228  -37.1400   25.8879 H   0  0  0  0  0  0
  -20.9485  -29.8805   21.6837 H   0  0  0  0  0  0
  -26.0106  -38.2779   24.1505 H   0  0  0  0  0  0
  -28.9874  -20.3921   22.4094 H   0  0  0  0  0  0
  -29.8265  -18.9404   22.8182 H   0  0  0  0  0  0
  -28.1280  -18.8628   22.3254 H   0  0  0  0  0  0
  -31.1054  -20.6857   20.9257 H   0  0  0  0  0  0
  -31.3316  -19.6608   19.5169 H   0  0  0  0  0  0
  -31.6541  -19.0259   21.1246 H   0  0  0  0  0  0
  -30.3340  -16.8617   22.7789 H   0  0  0  0  0  0
  -29.7592  -15.2296   22.7975 H   0  0  0  0  0  0
  -28.5943  -16.5145   22.5531 H   0  0  0  0  0  0
  -28.7808  -23.0664   21.4803 H   0  0  0  0  0  0
  -29.8398  -23.3021   20.1322 H   0  0  0  0  0  0
  -29.9879  -17.4940   19.1717 H   0  0  0  0  0  0
  -28.4351  -17.3711   19.8749 H   0  0  0  0  0  0
  -26.9297  -24.3967   20.3022 H   0  0  0  0  0  0
  -27.8974  -24.5487   18.8723 H   0  0  0  0  0  0
  1 25  1  0  0  0
  1 30  2  0  0  0
  1 83  1  0  0  0
  2  3  1  0  0  0
  2 25  1  0  0  0
  2 84  1  0  0  0
  2 85  1  0  0  0
  3  4  1  0  0  0
  3 86  1  0  0  0
  3 87  1  0  0  0
  4  5  1  0  0  0
  4 88  1  0  0  0
  4 89  1  0  0  0
  5  6  1  0  0  0
  5 26  1  0  0  0
  5 90  1  0  0  0
  6 25  1  0  0  0
  6 91  1  0  0  0
  6 92  1  0  0  0
  7  8  2  0  0  0
  7 26  1  0  0  0
  7 29  1  0  0  0
  8  9  1  0  0  0
  8 22  1  0  0  0
  9 10  1  0  0  0
  9 27  2  0  0  0
 10 11  2  0  0  0
 10 15  1  0  0  0
 11 12  1  0  0  0
 11 93  1  0  0  0
 12 13  2  0  0  0
 12 94  1  0  0  0
 13 14  1  0  0  0
 13 31  1  0  0  0
 14 15  2  0  0  0
 14 95  1  0  0  0
 15 96  1  0  0  0
 16 17  2  0  0  0
 16 21  1  0  0  0
 16 31  1  0  0  0
 17 18  1  0  0  0
 17 97  1  0  0  0
 18 19  2  0  0  0
 18 98  1  0  0  0
 19 20  1  0  0  0
 19 24  1  0  0  0
 20 21  2  0  0  0
 20 99  1  0  0  0
 21 23  1  0  0  0
 22 28  1  0  0  0
 22 32  2  0  0  0
 26 27  1  0  0  0
 28100  1  0  0  0
 28101  1  0  0  0
 29102  1  0  0  0
 29103  1  0  0  0
 33 34  1  0  0  0
 33 66  1  0  0  0
 33 70  2  0  0  0
 34 36  1  0  0  0
 34 59  1  0  0  0
 34104  1  0  0  0
 35 44  2  0  0  0
 35 45  1  0  0  0
 35 68  1  0  0  0
 36 56  1  0  0  0
 36105  1  0  0  0
 37 39  1  0  0  0
 37 47  1  0  0  0
 37 66  1  0  0  0
 37106  1  0  0  0
 38 43  2  0  0  0
 38 46  1  0  0  0
 38 47  1  0  0  0
 39 64  1  0  0  0
 39 67  2  0  0  0
 40 52  1  0  0  0
 40 53  2  0  0  0
 40 58  1  0  0  0
 41107  1  0  0  0
 41108  1  0  0  0
 41109  1  0  0  0
 41 48  1  0  0  0
 42 43  1  0  0  0
 42 66  1  0  0  0
 42110  1  0  0  0
 42111  1  0  0  0
 43 44  1  0  0  0
 44112  1  0  0  0
 45 46  2  0  0  0
 45113  1  0  0  0
 46114  1  0  0  0
 47115  1  0  0  0
 47116  1  0  0  0
 48 56  1  0  0  0
 48 65  1  0  0  0
 48117  1  0  0  0
 49 50  1  0  0  0
 49 53  1  0  0  0
 49 64  1  0  0  0
 49118  1  0  0  0
 50 51  1  0  0  0
 50119  1  0  0  0
 50120  1  0  0  0
 51 52  1  0  0  0
 51121  1  0  0  0
 51122  1  0  0  0
 52123  1  0  0  0
 52124  1  0  0  0
 53 54  1  0  0  0
 54 55  2  0  0  0
 54125  1  0  0  0
 55 57  1  0  0  0
 55126  1  0  0  0
 56 69  2  0  0  0
 57 58  2  0  0  0
 57127  1  0  0  0
 58128  1  0  0  0
 59 60  1  0  0  0
 59 61  1  0  0  0
 59 62  1  0  0  0
 60129  1  0  0  0
 60130  1  0  0  0
 60131  1  0  0  0
 61132  1  0  0  0
 61133  1  0  0  0
 61134  1  0  0  0
 62135  1  0  0  0
 62136  1  0  0  0
 62137  1  0  0  0
 63 65  1  0  0  0
 63138  1  0  0  0
 63139  1  0  0  0
 63140  1  0  0  0
 64141  1  0  0  0
 65142  1  0  0  0
 68 77  1  0  0  0
 71 78  1  0  0  0
 71 79  2  0  0  0
 71 82  1  0  0  0
 72143  1  0  0  0
 72144  1  0  0  0
 72145  1  0  0  0
 72 78  1  0  0  0
 73 78  1  0  0  0
 73146  1  0  0  0
 73147  1  0  0  0
 73148  1  0  0  0
 74 83  1  0  0  0
 74149  1  0  0  0
 74150  1  0  0  0
 74151  1  0  0  0
 75 77  1  0  0  0
 75 82  1  0  0  0
 75152  1  0  0  0
 75153  1  0  0  0
 76 78  1  0  0  0
 76 83  1  0  0  0
 76154  1  0  0  0
 76155  1  0  0  0
 77156  1  0  0  0
 77157  1  0  0  0
 79 80  1  0  0  0
 80 81  2  0  0  0
 81 82  1  0  0  0
M  ISO  4   1 100  68 101  77 101  83 100
M  END
> <chiral flag>
0

> <version>
0

> <s_m_source_file>
/data/baiqing/PycharmProjects/Reinvent-master-3.2/result/LINK_invent/BTK/process_docking_weight1_custom_sum_contain_oxygen_bond_distance_aromatic_linkinvent_7_9_3/rearranged_h_0052.sdf

> <i_m_source_file_index>
78

> <r_mmod_Potential_Energy-OPLS-2005>
805.945007324219

> <r_mmod_Stretch_Energy-OPLS-2005>
333.536285400391

> <r_mmod_Bend_Energy-OPLS-2005>
354.525024414062

> <r_mmod_Torsional_Energy-OPLS-2005>
323.733306884766

> <r_mmod_Improper_Torsional_Energy-OPLS-2005>
3.35703325271606

> <r_mmod_Van_der_Waal_Energy-OPLS-2005>
115.538970947266

> <r_mmod_Electrostatic_Energy-OPLS-2005>
-316.193084716797

> <r_mmod_Solvation_Energy-OPLS-2005>
-218.442718505859

> <b_mmod_Minimization_Converged-OPLS-2005>
0

> <r_mmod_RMS_Derivative-OPLS-2005>
4.49545621871948

$$$$
78
                    3D
 Structure written by MMmdl.
161169  0  0  1  0            999 V2000
  -30.8298  -14.4614   20.7142 C   0  0  0  0  0  0
  -30.4583  -12.3809   19.4078 C   0  0  0  0  0  0
  -29.5027  -12.5728   18.2109 C   0  0  0  0  0  0
  -28.0247  -12.4290   18.6252 C   0  0  0  0  0  0
  -27.6891  -13.2226   19.9164 C   0  0  2  0  0  0
  -28.7533  -12.9750   21.0165 C   0  0  0  0  0  0
  -25.2713  -13.8135   20.5817 C   0  0  0  0  0  0
  -24.1928  -13.0429   20.9204 C   0  0  0  0  0  0
  -24.6479  -11.6880   20.8786 C   0  0  0  0  0  0
  -23.9107  -10.4269   21.0412 C   0  0  0  0  0  0
  -24.3611   -9.4166   21.9209 C   0  0  0  0  0  0
  -23.6275   -8.2205   22.0722 C   0  0  0  0  0  0
  -22.4265   -8.0243   21.3505 C   0  0  0  0  0  0
  -21.9908   -9.0245   20.4615 C   0  0  0  0  0  0
  -22.7260  -10.2117   20.3081 C   0  0  0  0  0  0
  -21.6845   -6.0723   22.5276 C   0  0  0  0  0  0
  -21.4000   -6.5629   23.8198 C   0  0  0  0  0  0
  -21.3671   -5.6780   24.9177 C   0  0  0  0  0  0
  -21.6065   -4.3053   24.7219 C   0  0  0  0  0  0
  -21.8834   -3.8140   23.4352 C   0  0  0  0  0  0
  -21.9183   -4.6968   22.3395 C   0  0  0  0  0  0
  -22.7929  -13.5227   21.1835 C   0  0  0  0  0  0
  -22.1648   -4.2142   21.0974 F   0  0  0  0  0  0
  -21.5665   -3.4529   25.7715 F   0  0  0  0  0  0
  -30.0847  -13.3289   20.4795 N   0  0  0  0  0  0
  -26.3233  -12.9377   20.3699 N   0  0  0  0  0  0
  -25.9457  -11.6511   20.5914 N   0  0  0  0  0  0
  -22.0512  -12.8248   22.0355 N   0  0  0  0  0  0
  -25.4452  -15.1851   20.4203 N   0  0  0  0  0  0
  -31.8707  -14.6680   20.0863 O   0  0  0  0  0  0
  -21.6625   -6.8851   21.4197 O   0  0  0  0  0  0
  -22.3626  -14.5545   20.6654 O   0  0  0  0  0  0
  -24.6129  -31.8674   23.2090 C   0  0  0  0  0  0
  -25.9023  -32.4833   23.8407 C   0  0  1  0  0  0
  -27.2587  -27.4565   20.0980 C   0  0  0  0  0  0
  -25.5907  -33.8628   24.2359 N   0  0  0  0  0  0
  -23.3985  -30.4867   21.5472 C   0  0  2  0  0  0
  -24.8498  -28.9460   20.1187 C   0  0  0  0  0  0
  -22.7376  -29.4664   22.5015 C   0  0  0  0  0  0
  -18.0257  -28.1365   22.8500 C   0  0  0  0  0  0
  -24.1457  -36.7301   23.2631 C   0  0  0  0  0  0
  -25.9225  -30.8416   21.3533 C   0  0  0  0  0  0
  -26.0041  -29.4708   20.7139 C   0  0  0  0  0  0
  -27.2047  -28.7325   20.6991 C   0  0  0  0  0  0
  -26.0873  -26.9373   19.4988 C   0  0  0  0  0  0
  -24.8871  -27.6758   19.5117 C   0  0  0  0  0  0
  -23.6059  -29.8056   20.1666 C   0  0  0  0  0  0
  -25.4072  -36.3130   24.0376 C   0  0  1  0  0  0
  -20.5837  -28.3638   23.1351 C   0  0  2  0  0  0
  -20.6723  -26.9378   22.5432 C   0  0  0  0  0  0
  -19.5712  -26.6378   21.5215 C   0  0  0  0  0  0
  -18.1899  -26.7935   22.1612 C   0  0  0  0  0  0
  -19.1502  -28.8827   23.2919 C   0  0  0  0  0  0
  -18.9439  -30.1436   23.8913 C   0  0  0  0  0  0
  -17.6450  -30.6567   24.0590 C   0  0  0  0  0  0
  -25.9033  -34.9494   23.5167 C   0  0  0  0  0  0
  -16.5338  -29.9073   23.6335 C   0  0  0  0  0  0
  -16.7255  -28.6489   23.0348 C   0  0  0  0  0  0
  -26.4464  -31.6595   25.0711 C   0  0  0  0  0  0
  -25.3764  -31.3708   26.1493 C   0  0  0  0  0  0
  -27.0269  -30.3052   24.6030 C   0  0  0  0  0  0
  -27.6083  -32.4277   25.7430 C   0  0  0  0  0  0
  -27.5618  -37.1743   24.8431 C   0  0  0  0  0  0
  -21.4110  -29.3022   22.3776 N   0  0  0  0  0  0
  -26.4249  -37.3832   23.9509 N   0  0  0  0  0  0
  -24.6624  -31.0789   22.0969 N   0  0  0  0  0  0
  -23.4173  -28.8232   23.3050 O   0  0  0  0  0  0
  -28.4848  -26.8288   20.0557 O   0  0  0  0  0  0
  -26.5581  -34.8951   22.4716 O   0  0  0  0  0  0
  -23.5320  -32.1429   23.7510 O   0  0  0  0  0  0
  -31.7320  -22.2956   20.7937 C   0  0  0  0  0  0
  -29.5874  -22.6707   22.3891 C   0  0  0  0  0  0
  -31.3295  -21.2993   21.7255 C   0  0  0  0  0  0
  -29.9846  -23.6599   21.4577 C   0  0  0  0  0  0
  -33.5206  -17.2913   21.4181 C   0  0  0  0  0  0
  -32.1770  -20.0433   21.9722 C   0  0  0  0  0  0
  -29.3051  -25.0285   21.4224 C   0  0  0  0  0  0
  -30.4397  -15.5792   21.7304 C   0  0  0  0  0  0
  -31.4360  -18.6630   21.8819 C   0  0  0  0  0  0
  -31.6018  -16.1857   22.6196 C   0  0  0  0  0  0
  -28.6067  -25.4037   20.0983 C   0  0  0  0  0  0
  -30.2588  -21.4989   22.5349 N   0  0  0  0  0  0
  -31.0658  -23.4722   20.6583 N   0  0  0  0  0  0
  -32.2919  -17.4784   22.2408 N   0  3  1  0  0  0
  -31.4823  -12.5255   19.0635 H   0  0  0  0  0  0
  -30.4325  -11.3552   19.7787 H   0  0  0  0  0  0
  -29.7442  -11.8655   17.4143 H   0  0  0  0  0  0
  -29.6618  -13.5691   17.7960 H   0  0  0  0  0  0
  -27.8058  -11.3715   18.7666 H   0  0  0  0  0  0
  -27.3780  -12.7583   17.8092 H   0  0  0  0  0  0
  -27.7416  -14.2806   19.6647 H   0  0  0  0  0  0
  -28.7507  -11.9139   21.2770 H   0  0  0  0  0  0
  -28.5023  -13.4894   21.9418 H   0  0  0  0  0  0
  -25.2705   -9.5656   22.4846 H   0  0  0  0  0  0
  -23.9944   -7.4576   22.7451 H   0  0  0  0  0  0
  -21.0839   -8.8812   19.8914 H   0  0  0  0  0  0
  -22.3701  -10.9685   19.6244 H   0  0  0  0  0  0
  -21.1956   -7.6126   23.9710 H   0  0  0  0  0  0
  -21.1507   -6.0502   25.9080 H   0  0  0  0  0  0
  -22.0599   -2.7603   23.2838 H   0  0  0  0  0  0
  -22.4007  -11.9927   22.4869 H   0  0  0  0  0  0
  -21.1141  -13.1356   22.2479 H   0  0  0  0  0  0
  -24.6922  -15.8502   20.5494 H   0  0  0  0  0  0
  -26.3222  -15.6171   20.1497 H   0  0  0  0  0  0
  -26.7110  -32.5566   23.1192 H   0  0  0  0  0  0
  -25.0148  -33.9767   25.0580 H   0  0  0  0  0  0
  -22.6884  -31.3024   21.4021 H   0  0  0  0  0  0
  -23.3784  -35.9558   23.3199 H   0  0  0  0  0  0
  -24.3614  -36.8990   22.2071 H   0  0  0  0  0  0
  -23.7102  -37.6444   23.6671 H   0  0  0  0  0  0
  -26.0135  -31.5965   20.5716 H   0  0  0  0  0  0
  -26.8192  -30.9168   21.9564 H   0  0  0  0  0  0
  -28.1014  -29.1412   21.1466 H   0  0  0  0  0  0
  -26.1012  -25.9831   18.9931 H   0  0  0  0  0  0
  -24.0051  -27.2665   19.0378 H   0  0  0  0  0  0
  -23.6981  -30.5687   19.3924 H   0  0  0  0  0  0
  -22.7339  -29.2093   19.8921 H   0  0  0  0  0  0
  -25.1203  -36.1989   25.0864 H   0  0  0  0  0  0
  -20.9947  -28.3205   24.1456 H   0  0  0  0  0  0
  -20.5572  -26.2281   23.3618 H   0  0  0  0  0  0
  -21.6624  -26.7378   22.1280 H   0  0  0  0  0  0
  -19.6876  -25.6295   21.1228 H   0  0  0  0  0  0
  -19.6673  -27.3203   20.6766 H   0  0  0  0  0  0
  -17.4183  -26.6742   21.3977 H   0  0  0  0  0  0
  -18.0246  -26.0026   22.8950 H   0  0  0  0  0  0
  -19.7924  -30.7251   24.2283 H   0  0  0  0  0  0
  -17.4997  -31.6241   24.5199 H   0  0  0  0  0  0
  -15.5341  -30.2980   23.7622 H   0  0  0  0  0  0
  -15.8668  -28.0817   22.7048 H   0  0  0  0  0  0
  -24.5920  -30.7060   25.7880 H   0  0  0  0  0  0
  -24.8966  -32.2843   26.4983 H   0  0  0  0  0  0
  -25.8131  -30.8871   27.0231 H   0  0  0  0  0  0
  -26.2771  -29.6792   24.1180 H   0  0  0  0  0  0
  -27.4196  -29.7306   25.4430 H   0  0  0  0  0  0
  -27.8528  -30.4413   23.9050 H   0  0  0  0  0  0
  -27.2818  -33.3658   26.1923 H   0  0  0  0  0  0
  -28.3917  -32.6683   25.0234 H   0  0  0  0  0  0
  -28.0705  -31.8430   26.5383 H   0  0  0  0  0  0
  -28.2476  -38.0194   24.7771 H   0  0  0  0  0  0
  -28.1260  -36.2776   24.5837 H   0  0  0  0  0  0
  -27.2429  -37.0921   25.8830 H   0  0  0  0  0  0
  -20.9259  -29.8815   21.7068 H   0  0  0  0  0  0
  -26.0141  -38.2874   24.1667 H   0  0  0  0  0  0
  -32.6162  -22.1777   20.1853 H   0  0  0  0  0  0
  -28.7556  -22.8413   23.0594 H   0  0  0  0  0  0
  -33.3161  -16.8854   20.4271 H   0  0  0  0  0  0
  -34.2090  -16.6197   21.9338 H   0  0  0  0  0  0
  -34.0886  -18.2127   21.2865 H   0  0  0  0  0  0
  -32.6638  -20.1699   22.9422 H   0  0  0  0  0  0
  -32.9810  -20.0694   21.2404 H   0  0  0  0  0  0
  -30.0491  -25.7829   21.6843 H   0  0  0  0  0  0
  -28.5569  -25.0659   22.2162 H   0  0  0  0  0  0
  -29.9127  -16.3669   21.1940 H   0  0  0  0  0  0
  -29.7129  -15.1742   22.4287 H   0  0  0  0  0  0
  -31.0082  -18.5270   20.8901 H   0  0  0  0  0  0
  -30.5878  -18.6873   22.5681 H   0  0  0  0  0  0
  -32.3689  -15.4298   22.7965 H   0  0  0  0  0  0
  -31.1940  -16.3632   23.6182 H   0  0  0  0  0  0
  -27.6703  -24.8584   19.9967 H   0  0  0  0  0  0
  -29.2310  -25.1130   19.2525 H   0  0  0  0  0  0
  -32.6850  -17.7480   23.1348 H   0  0  0  0  0  0
  1 25  1  0  0  0
  1 30  2  0  0  0
  1 78  1  0  0  0
  2  3  1  0  0  0
  2 25  1  0  0  0
  2 85  1  0  0  0
  2 86  1  0  0  0
  3  4  1  0  0  0
  3 87  1  0  0  0
  3 88  1  0  0  0
  4  5  1  0  0  0
  4 89  1  0  0  0
  4 90  1  0  0  0
  5  6  1  0  0  0
  5 26  1  0  0  0
  5 91  1  0  0  0
  6 25  1  0  0  0
  6 92  1  0  0  0
  6 93  1  0  0  0
  7  8  2  0  0  0
  7 26  1  0  0  0
  7 29  1  0  0  0
  8  9  1  0  0  0
  8 22  1  0  0  0
  9 10  1  0  0  0
  9 27  2  0  0  0
 10 11  2  0  0  0
 10 15  1  0  0  0
 11 12  1  0  0  0
 11 94  1  0  0  0
 12 13  2  0  0  0
 12 95  1  0  0  0
 13 14  1  0  0  0
 13 31  1  0  0  0
 14 15  2  0  0  0
 14 96  1  0  0  0
 15 97  1  0  0  0
 16 17  2  0  0  0
 16 21  1  0  0  0
 16 31  1  0  0  0
 17 18  1  0  0  0
 17 98  1  0  0  0
 18 19  2  0  0  0
 18 99  1  0  0  0
 19 20  1  0  0  0
 19 24  1  0  0  0
 20 21  2  0  0  0
 20100  1  0  0  0
 21 23  1  0  0  0
 22 28  1  0  0  0
 22 32  2  0  0  0
 26 27  1  0  0  0
 28101  1  0  0  0
 28102  1  0  0  0
 29103  1  0  0  0
 29104  1  0  0  0
 33 34  1  0  0  0
 33 66  1  0  0  0
 33 70  2  0  0  0
 34 36  1  0  0  0
 34 59  1  0  0  0
 34105  1  0  0  0
 35 44  2  0  0  0
 35 45  1  0  0  0
 35 68  1  0  0  0
 36 56  1  0  0  0
 36106  1  0  0  0
 37 39  1  0  0  0
 37 47  1  0  0  0
 37 66  1  0  0  0
 37107  1  0  0  0
 38 43  2  0  0  0
 38 46  1  0  0  0
 38 47  1  0  0  0
 39 64  1  0  0  0
 39 67  2  0  0  0
 40 52  1  0  0  0
 40 53  2  0  0  0
 40 58  1  0  0  0
 41108  1  0  0  0
 41109  1  0  0  0
 41110  1  0  0  0
 41 48  1  0  0  0
 42 43  1  0  0  0
 42 66  1  0  0  0
 42111  1  0  0  0
 42112  1  0  0  0
 43 44  1  0  0  0
 44113  1  0  0  0
 45 46  2  0  0  0
 45114  1  0  0  0
 46115  1  0  0  0
 47116  1  0  0  0
 47117  1  0  0  0
 48 56  1  0  0  0
 48 65  1  0  0  0
 48118  1  0  0  0
 49 50  1  0  0  0
 49 53  1  0  0  0
 49 64  1  0  0  0
 49119  1  0  0  0
 50 51  1  0  0  0
 50120  1  0  0  0
 50121  1  0  0  0
 51 52  1  0  0  0
 51122  1  0  0  0
 51123  1  0  0  0
 52124  1  0  0  0
 52125  1  0  0  0
 53 54  1  0  0  0
 54 55  2  0  0  0
 54126  1  0  0  0
 55 57  1  0  0  0
 55127  1  0  0  0
 56 69  2  0  0  0
 57 58  2  0  0  0
 57128  1  0  0  0
 58129  1  0  0  0
 59 60  1  0  0  0
 59 61  1  0  0  0
 59 62  1  0  0  0
 60130  1  0  0  0
 60131  1  0  0  0
 60132  1  0  0  0
 61133  1  0  0  0
 61134  1  0  0  0
 61135  1  0  0  0
 62136  1  0  0  0
 62137  1  0  0  0
 62138  1  0  0  0
 63 65  1  0  0  0
 63139  1  0  0  0
 63140  1  0  0  0
 63141  1  0  0  0
 64142  1  0  0  0
 65143  1  0  0  0
 68 81  1  0  0  0
 71 73  2  0  0  0
 71 83  1  0  0  0
 71144  1  0  0  0
 72 74  1  0  0  0
 72 82  2  0  0  0
 72145  1  0  0  0
 73 76  1  0  0  0
 73 82  1  0  0  0
 74 77  1  0  0  0
 74 83  2  0  0  0
 75146  1  0  0  0
 75147  1  0  0  0
 75148  1  0  0  0
 75 84  1  0  0  0
 76 79  1  0  0  0
 76149  1  0  0  0
 76150  1  0  0  0
 77 81  1  0  0  0
 77151  1  0  0  0
 77152  1  0  0  0
 78 80  1  0  0  0
 78153  1  0  0  0
 78154  1  0  0  0
 79 84  1  0  0  0
 79155  1  0  0  0
 79156  1  0  0  0
 80 84  1  0  0  0
 80157  1  0  0  0
 80158  1  0  0  0
 81159  1  0  0  0
 81160  1  0  0  0
 84161  1  0  0  0
M  CHG  1  84   1
M  ISO  4   1 100  68 101  78 100  81 101
M  END
> <chiral flag>
0

> <version>
0

> <s_m_source_file>
/data/baiqing/PycharmProjects/Reinvent-master-3.2/result/LINK_invent/BTK/process_docking_weight1_custom_sum_contain_oxygen_bond_distance_aromatic_linkinvent_7_9_3/rearranged_h_0052.sdf

> <i_m_source_file_index>
79

> <r_mmod_Potential_Energy-OPLS-2005>
-118.614013671875

> <r_mmod_Stretch_Energy-OPLS-2005>
52.5330390930176

> <r_mmod_Bend_Energy-OPLS-2005>
144.070083618164

> <r_mmod_Torsional_Energy-OPLS-2005>
169.862915039062

> <r_mmod_Improper_Torsional_Energy-OPLS-2005>
2.62520623207092

> <r_mmod_Van_der_Waal_Energy-OPLS-2005>
149.454711914062

> <r_mmod_Electrostatic_Energy-OPLS-2005>
-207.514709472656

> <r_mmod_Solvation_Energy-OPLS-2005>
-445.116180419922

> <b_mmod_Minimization_Converged-OPLS-2005>
0

> <r_mmod_RMS_Derivative-OPLS-2005>
6.32721996307373

$$$$
79
                    3D
 Structure written by MMmdl.
148156  0  0  1  0            999 V2000
  -30.4058  -15.3506   20.3672 C   0  0  0  0  0  0
  -30.4398  -12.8786   19.5100 C   0  0  0  0  0  0
  -29.5363  -12.5889   18.2840 C   0  0  0  0  0  0
  -28.0907  -12.2949   18.7216 C   0  0  0  0  0  0
  -27.6060  -13.2796   19.8134 C   0  0  2  0  0  0
  -28.6415  -13.4931   20.9373 C   0  0  0  0  0  0
  -25.2380  -13.8247   20.5752 C   0  0  0  0  0  0
  -24.1739  -13.0434   20.9270 C   0  0  0  0  0  0
  -24.6402  -11.6931   20.8764 C   0  0  0  0  0  0
  -23.9100  -10.4292   21.0408 C   0  0  0  0  0  0
  -24.3647   -9.4203   21.9182 C   0  0  0  0  0  0
  -23.6314   -8.2242   22.0751 C   0  0  0  0  0  0
  -22.4294   -8.0281   21.3545 C   0  0  0  0  0  0
  -21.9936   -9.0257   20.4647 C   0  0  0  0  0  0
  -22.7271  -10.2133   20.3056 C   0  0  0  0  0  0
  -21.6858   -6.0738   22.5279 C   0  0  0  0  0  0
  -21.4016   -6.5640   23.8213 C   0  0  0  0  0  0
  -21.3664   -5.6791   24.9173 C   0  0  0  0  0  0
  -21.6046   -4.3054   24.7221 C   0  0  0  0  0  0
  -21.8819   -3.8149   23.4340 C   0  0  0  0  0  0
  -21.9195   -4.6966   22.3398 C   0  0  0  0  0  0
  -22.7754  -13.5182   21.1912 C   0  0  0  0  0  0
  -22.1660   -4.2155   21.0974 F   0  0  0  0  0  0
  -21.5633   -3.4535   25.7732 F   0  0  0  0  0  0
  -29.8512  -14.0331   20.2905 N   0  0  0  0  0  0
  -26.2802  -12.9528   20.3201 N   0  0  0  0  0  0
  -25.9339  -11.6631   20.5715 N   0  0  0  0  0  0
  -22.0414  -12.8166   22.0467 N   0  0  0  0  0  0
  -25.3996  -15.1980   20.4176 N   0  0  0  0  0  0
  -31.6402  -15.3344   20.2419 O   0  0  0  0  0  0
  -21.6648   -6.8883   21.4242 O   0  0  0  0  0  0
  -22.3429  -14.5476   20.6740 O   0  0  0  0  0  0
  -24.6680  -31.8189   23.1665 C   0  0  0  0  0  0
  -25.9334  -32.4569   23.8152 C   0  0  1  0  0  0
  -27.2174  -26.8725   20.1993 C   0  0  0  0  0  0
  -25.5981  -33.8383   24.2052 N   0  0  0  0  0  0
  -23.4855  -30.4283   21.5179 C   0  0  2  0  0  0
  -24.9388  -28.8012   20.1219 C   0  0  0  0  0  0
  -22.7693  -29.4414   22.4777 C   0  0  0  0  0  0
  -18.0326  -28.1410   22.8468 C   0  0  0  0  0  0
  -24.1494  -36.7192   23.2649 C   0  0  0  0  0  0
  -26.0584  -30.6085   21.4042 C   0  0  0  0  0  0
  -26.1266  -29.1903   20.7544 C   0  0  0  0  0  0
  -27.2629  -28.2513   20.7598 C   0  0  0  0  0  0
  -25.9967  -26.6474   19.5234 C   0  0  0  0  0  0
  -24.9020  -27.5512   19.4844 C   0  0  0  0  0  0
  -23.7294  -29.7381   20.1480 C   0  0  0  0  0  0
  -25.4137  -36.2953   24.0297 C   0  0  1  0  0  0
  -20.5954  -28.3757   23.1180 C   0  0  2  0  0  0
  -20.6802  -26.9436   22.5401 C   0  0  0  0  0  0
  -19.5773  -26.6374   21.5216 C   0  0  0  0  0  0
  -18.1957  -26.7942   22.1625 C   0  0  0  0  0  0
  -19.1589  -28.8906   23.2809 C   0  0  0  0  0  0
  -18.9496  -30.1494   23.8849 C   0  0  0  0  0  0
  -17.6487  -30.6600   24.0549 C   0  0  0  0  0  0
  -25.9104  -34.9338   23.4999 C   0  0  0  0  0  0
  -16.5378  -29.9084   23.6344 C   0  0  0  0  0  0
  -16.7307  -28.6502   23.0369 C   0  0  0  0  0  0
  -26.4566  -31.6536   25.0704 C   0  0  0  0  0  0
  -25.3677  -31.3794   26.1351 C   0  0  0  0  0  0
  -27.0469  -30.2898   24.6474 C   0  0  0  0  0  0
  -27.6050  -32.4356   25.7509 C   0  0  0  0  0  0
  -27.5568  -37.1755   24.8467 C   0  0  0  0  0  0
  -21.4357  -29.3038   22.3526 N   0  0  0  0  0  0
  -26.4277  -37.3695   23.9410 N   0  0  0  0  0  0
  -24.7593  -30.9801   22.0830 N   0  0  0  0  0  0
  -23.4218  -28.7988   23.3039 O   0  0  0  0  0  0
  -28.2174  -25.7461   20.1892 O   0  0  0  0  0  0
  -26.5719  -34.8880   22.4599 O   0  0  0  0  0  0
  -23.5734  -32.1181   23.6723 O   0  0  0  0  0  0
  -28.9781  -21.1691   18.2084 C   0  0  0  0  0  0
  -28.9109  -21.2073   20.7937 C   0  0  0  0  0  0
  -29.2460  -19.8494   20.1310 C   0  0  0  0  0  0
  -28.6186  -22.5517   20.0789 C   0  0  0  0  0  0
  -28.8647  -21.2218   22.3102 C   0  0  0  0  0  0
  -29.8547  -18.2844   20.7074 C   0  0  0  0  0  0
  -27.9749  -24.1358   20.5846 C   0  0  0  0  0  0
  -29.2377  -19.9796   18.7888 N   0  0  0  0  0  0
  -28.6934  -22.3746   18.7409 N   0  0  0  0  0  0
  -29.6353  -16.6365   20.3897 N   0  0  0  0  0  0
  -31.4474  -13.1109   19.1628 H   0  0  0  0  0  0
  -30.5436  -11.9918   20.1372 H   0  0  0  0  0  0
  -29.9331  -11.7524   17.7076 H   0  0  0  0  0  0
  -29.5463  -13.4530   17.6177 H   0  0  0  0  0  0
  -28.0645  -11.2765   19.1106 H   0  0  0  0  0  0
  -27.4201  -12.3118   17.8617 H   0  0  0  0  0  0
  -27.5047  -14.2345   19.2962 H   0  0  0  0  0  0
  -28.8401  -12.5705   21.4845 H   0  0  0  0  0  0
  -28.2662  -14.2133   21.6661 H   0  0  0  0  0  0
  -25.2793   -9.5673   22.4759 H   0  0  0  0  0  0
  -24.0023   -7.4631   22.7462 H   0  0  0  0  0  0
  -21.0872   -8.8780   19.8949 H   0  0  0  0  0  0
  -22.3734  -10.9673   19.6165 H   0  0  0  0  0  0
  -21.2005   -7.6149   23.9715 H   0  0  0  0  0  0
  -21.1489   -6.0521   25.9077 H   0  0  0  0  0  0
  -22.0596   -2.7611   23.2836 H   0  0  0  0  0  0
  -22.4063  -11.9853   22.4885 H   0  0  0  0  0  0
  -21.1014  -13.1154   22.2651 H   0  0  0  0  0  0
  -24.6246  -15.8439   20.5232 H   0  0  0  0  0  0
  -26.2355  -15.6405   20.0604 H   0  0  0  0  0  0
  -26.7406  -32.5095   23.0865 H   0  0  0  0  0  0
  -25.0072  -33.9454   25.0167 H   0  0  0  0  0  0
  -22.8015  -31.2612   21.3416 H   0  0  0  0  0  0
  -23.3771  -35.9507   23.3280 H   0  0  0  0  0  0
  -24.3567  -36.8874   22.2069 H   0  0  0  0  0  0
  -23.7236  -37.6364   23.6727 H   0  0  0  0  0  0
  -26.2428  -31.3439   20.6202 H   0  0  0  0  0  0
  -26.9167  -30.6694   22.0615 H   0  0  0  0  0  0
  -28.1685  -28.5565   21.2649 H   0  0  0  0  0  0
  -25.8638  -25.6971   19.0264 H   0  0  0  0  0  0
  -24.0019  -27.2479   18.9673 H   0  0  0  0  0  0
  -23.8932  -30.5035   19.3886 H   0  0  0  0  0  0
  -22.8375  -29.1975   19.8267 H   0  0  0  0  0  0
  -25.1338  -36.1741   25.0788 H   0  0  0  0  0  0
  -21.0037  -28.3360   24.1304 H   0  0  0  0  0  0
  -20.5682  -26.2374   23.3643 H   0  0  0  0  0  0
  -21.6664  -26.7412   22.1205 H   0  0  0  0  0  0
  -19.6933  -25.6270   21.1284 H   0  0  0  0  0  0
  -19.6711  -27.3152   20.6719 H   0  0  0  0  0  0
  -17.4224  -26.6681   21.4031 H   0  0  0  0  0  0
  -18.0355  -26.0101   22.9038 H   0  0  0  0  0  0
  -19.7969  -30.7324   24.2202 H   0  0  0  0  0  0
  -17.5036  -31.6279   24.5153 H   0  0  0  0  0  0
  -15.5375  -30.2966   23.7699 H   0  0  0  0  0  0
  -15.8707  -28.0797   22.7123 H   0  0  0  0  0  0
  -24.5863  -30.7151   25.7644 H   0  0  0  0  0  0
  -24.8863  -32.2997   26.4666 H   0  0  0  0  0  0
  -25.7887  -30.9019   27.0208 H   0  0  0  0  0  0
  -26.3144  -29.6566   24.1459 H   0  0  0  0  0  0
  -27.3956  -29.7279   25.5148 H   0  0  0  0  0  0
  -27.9105  -30.4072   23.9927 H   0  0  0  0  0  0
  -27.2619  -33.3703   26.1956 H   0  0  0  0  0  0
  -28.3929  -32.6848   25.0388 H   0  0  0  0  0  0
  -28.0651  -31.8576   26.5535 H   0  0  0  0  0  0
  -28.2566  -38.0067   24.7513 H   0  0  0  0  0  0
  -28.1083  -36.2592   24.6299 H   0  0  0  0  0  0
  -27.2283  -37.1401   25.8869 H   0  0  0  0  0  0
  -20.9623  -29.8716   21.6637 H   0  0  0  0  0  0
  -26.0121  -38.2752   24.1416 H   0  0  0  0  0  0
  -29.0029  -21.1539   17.1292 H   0  0  0  0  0  0
  -29.8445  -21.4736   22.7185 H   0  0  0  0  0  0
  -28.5707  -20.2487   22.7054 H   0  0  0  0  0  0
  -28.1425  -21.9525   22.6768 H   0  0  0  0  0  0
  -30.9330  -18.4052   20.6069 H   0  0  0  0  0  0
  -29.6998  -18.3420   21.7837 H   0  0  0  0  0  0
  -28.1103  -24.1298   21.6654 H   0  0  0  0  0  0
  -26.9003  -24.0017   20.4633 H   0  0  0  0  0  0
  -28.6490  -16.4423   20.3116 H   0  0  0  0  0  0
  1 25  1  0  0  0
  1 30  2  0  0  0
  1 80  1  0  0  0
  2  3  1  0  0  0
  2 25  1  0  0  0
  2 81  1  0  0  0
  2 82  1  0  0  0
  3  4  1  0  0  0
  3 83  1  0  0  0
  3 84  1  0  0  0
  4  5  1  0  0  0
  4 85  1  0  0  0
  4 86  1  0  0  0
  5  6  1  0  0  0
  5 26  1  0  0  0
  5 87  1  0  0  0
  6 25  1  0  0  0
  6 88  1  0  0  0
  6 89  1  0  0  0
  7  8  2  0  0  0
  7 26  1  0  0  0
  7 29  1  0  0  0
  8  9  1  0  0  0
  8 22  1  0  0  0
  9 10  1  0  0  0
  9 27  2  0  0  0
 10 11  2  0  0  0
 10 15  1  0  0  0
 11 12  1  0  0  0
 11 90  1  0  0  0
 12 13  2  0  0  0
 12 91  1  0  0  0
 13 14  1  0  0  0
 13 31  1  0  0  0
 14 15  2  0  0  0
 14 92  1  0  0  0
 15 93  1  0  0  0
 16 17  2  0  0  0
 16 21  1  0  0  0
 16 31  1  0  0  0
 17 18  1  0  0  0
 17 94  1  0  0  0
 18 19  2  0  0  0
 18 95  1  0  0  0
 19 20  1  0  0  0
 19 24  1  0  0  0
 20 21  2  0  0  0
 20 96  1  0  0  0
 21 23  1  0  0  0
 22 28  1  0  0  0
 22 32  2  0  0  0
 26 27  1  0  0  0
 28 97  1  0  0  0
 28 98  1  0  0  0
 29 99  1  0  0  0
 29100  1  0  0  0
 33 34  1  0  0  0
 33 66  1  0  0  0
 33 70  2  0  0  0
 34 36  1  0  0  0
 34 59  1  0  0  0
 34101  1  0  0  0
 35 44  2  0  0  0
 35 45  1  0  0  0
 35 68  1  0  0  0
 36 56  1  0  0  0
 36102  1  0  0  0
 37 39  1  0  0  0
 37 47  1  0  0  0
 37 66  1  0  0  0
 37103  1  0  0  0
 38 43  2  0  0  0
 38 46  1  0  0  0
 38 47  1  0  0  0
 39 64  1  0  0  0
 39 67  2  0  0  0
 40 52  1  0  0  0
 40 53  2  0  0  0
 40 58  1  0  0  0
 41104  1  0  0  0
 41105  1  0  0  0
 41106  1  0  0  0
 41 48  1  0  0  0
 42 43  1  0  0  0
 42 66  1  0  0  0
 42107  1  0  0  0
 42108  1  0  0  0
 43 44  1  0  0  0
 44109  1  0  0  0
 45 46  2  0  0  0
 45110  1  0  0  0
 46111  1  0  0  0
 47112  1  0  0  0
 47113  1  0  0  0
 48 56  1  0  0  0
 48 65  1  0  0  0
 48114  1  0  0  0
 49 50  1  0  0  0
 49 53  1  0  0  0
 49 64  1  0  0  0
 49115  1  0  0  0
 50 51  1  0  0  0
 50116  1  0  0  0
 50117  1  0  0  0
 51 52  1  0  0  0
 51118  1  0  0  0
 51119  1  0  0  0
 52120  1  0  0  0
 52121  1  0  0  0
 53 54  1  0  0  0
 54 55  2  0  0  0
 54122  1  0  0  0
 55 57  1  0  0  0
 55123  1  0  0  0
 56 69  2  0  0  0
 57 58  2  0  0  0
 57124  1  0  0  0
 58125  1  0  0  0
 59 60  1  0  0  0
 59 61  1  0  0  0
 59 62  1  0  0  0
 60126  1  0  0  0
 60127  1  0  0  0
 60128  1  0  0  0
 61129  1  0  0  0
 61130  1  0  0  0
 61131  1  0  0  0
 62132  1  0  0  0
 62133  1  0  0  0
 62134  1  0  0  0
 63 65  1  0  0  0
 63135  1  0  0  0
 63136  1  0  0  0
 63137  1  0  0  0
 64138  1  0  0  0
 65139  1  0  0  0
 68 77  1  0  0  0
 71 78  2  0  0  0
 71 79  1  0  0  0
 71140  1  0  0  0
 72 73  2  0  0  0
 72 74  1  0  0  0
 72 75  1  0  0  0
 73 76  1  0  0  0
 73 78  1  0  0  0
 74 77  1  0  0  0
 74 79  2  0  0  0
 75141  1  0  0  0
 75142  1  0  0  0
 75143  1  0  0  0
 76 80  1  0  0  0
 76144  1  0  0  0
 76145  1  0  0  0
 77146  1  0  0  0
 77147  1  0  0  0
 80148  1  0  0  0
M  ISO  4   1 100  68 101  77 101  80 100
M  END
> <chiral flag>
0

> <version>
0

> <s_m_source_file>
/data/baiqing/PycharmProjects/Reinvent-master-3.2/result/LINK_invent/BTK/process_docking_weight1_custom_sum_contain_oxygen_bond_distance_aromatic_linkinvent_7_9_3/rearranged_h_0052.sdf

> <i_m_source_file_index>
80

> <r_mmod_Potential_Energy-OPLS-2005>
943.601989746094

> <r_mmod_Stretch_Energy-OPLS-2005>
643.615478515625

> <r_mmod_Bend_Energy-OPLS-2005>
460.849548339844

> <r_mmod_Torsional_Energy-OPLS-2005>
233.92512512207

> <r_mmod_Improper_Torsional_Energy-OPLS-2005>
5.729567527771

> <r_mmod_Van_der_Waal_Energy-OPLS-2005>
131.953414916992

> <r_mmod_Electrostatic_Energy-OPLS-2005>
-826.951354980469

> <r_mmod_Solvation_Energy-OPLS-2005>
-252.872619628906

> <b_mmod_Minimization_Converged-OPLS-2005>
0

> <r_mmod_RMS_Derivative-OPLS-2005>
0.791206300258636

$$$$
80
                    3D
 Structure written by MMmdl.
153161  0  0  1  0            999 V2000
  -30.5001  -15.0220   20.4205 C   0  0  0  0  0  0
  -30.4363  -12.6342   19.5191 C   0  0  0  0  0  0
  -29.5290  -12.5418   18.2684 C   0  0  0  0  0  0
  -28.0606  -12.3217   18.6785 C   0  0  0  0  0  0
  -27.6233  -13.2567   19.8359 C   0  0  2  0  0  0
  -28.6596  -13.3068   20.9778 C   0  0  0  0  0  0
  -25.2437  -13.8225   20.5729 C   0  0  0  0  0  0
  -24.1759  -13.0432   20.9247 C   0  0  0  0  0  0
  -24.6382  -11.6923   20.8756 C   0  0  0  0  0  0
  -23.9067  -10.4296   21.0409 C   0  0  0  0  0  0
  -24.3623   -9.4204   21.9177 C   0  0  0  0  0  0
  -23.6292   -8.2239   22.0743 C   0  0  0  0  0  0
  -22.4275   -8.0280   21.3527 C   0  0  0  0  0  0
  -21.9908   -9.0265   20.4645 C   0  0  0  0  0  0
  -22.7245  -10.2138   20.3050 C   0  0  0  0  0  0
  -21.6850   -6.0728   22.5267 C   0  0  0  0  0  0
  -21.4025   -6.5634   23.8212 C   0  0  0  0  0  0
  -21.3659   -5.6782   24.9174 C   0  0  0  0  0  0
  -21.6045   -4.3048   24.7219 C   0  0  0  0  0  0
  -21.8818   -3.8140   23.4348 C   0  0  0  0  0  0
  -21.9197   -4.6956   22.3400 C   0  0  0  0  0  0
  -22.7782  -13.5206   21.1916 C   0  0  0  0  0  0
  -22.1670   -4.2141   21.0978 F   0  0  0  0  0  0
  -21.5624   -3.4534   25.7740 F   0  0  0  0  0  0
  -29.9271  -13.7442   20.3813 N   0  0  0  0  0  0
  -26.2846  -12.9457   20.3211 N   0  0  0  0  0  0
  -25.9316  -11.6582   20.5710 N   0  0  0  0  0  0
  -22.0434  -12.8190   22.0477 N   0  0  0  0  0  0
  -25.4115  -15.1959   20.4222 N   0  0  0  0  0  0
  -31.7045  -15.0856   20.1448 O   0  0  0  0  0  0
  -21.6633   -6.8874   21.4233 O   0  0  0  0  0  0
  -22.3480  -14.5509   20.6750 O   0  0  0  0  0  0
  -24.6479  -31.8418   23.1864 C   0  0  0  0  0  0
  -25.9238  -32.4684   23.8253 C   0  0  1  0  0  0
  -27.2032  -27.0778   20.1697 C   0  0  0  0  0  0
  -25.5979  -33.8492   24.2180 N   0  0  0  0  0  0
  -23.4527  -30.4591   21.5347 C   0  0  2  0  0  0
  -24.9031  -28.8847   20.1084 C   0  0  0  0  0  0
  -22.7594  -29.4532   22.4871 C   0  0  0  0  0  0
  -18.0314  -28.1396   22.8470 C   0  0  0  0  0  0
  -24.1490  -36.7242   23.2636 C   0  0  0  0  0  0
  -26.0124  -30.6970   21.3953 C   0  0  0  0  0  0
  -26.0821  -29.3036   20.7384 C   0  0  0  0  0  0
  -27.2337  -28.4176   20.7517 C   0  0  0  0  0  0
  -25.9975  -26.7848   19.4892 C   0  0  0  0  0  0
  -24.8799  -27.6422   19.4640 C   0  0  0  0  0  0
  -23.6818  -29.7911   20.1530 C   0  0  0  0  0  0
  -25.4128  -36.3027   24.0310 C   0  0  1  0  0  0
  -20.5921  -28.3728   23.1228 C   0  0  2  0  0  0
  -20.6814  -26.9457   22.5335 C   0  0  0  0  0  0
  -19.5783  -26.6461   21.5141 C   0  0  0  0  0  0
  -18.1958  -26.7961   22.1563 C   0  0  0  0  0  0
  -19.1567  -28.8874   23.2844 C   0  0  0  0  0  0
  -18.9486  -30.1464   23.8882 C   0  0  0  0  0  0
  -17.6486  -30.6573   24.0588 C   0  0  0  0  0  0
  -25.9089  -34.9405   23.5050 C   0  0  0  0  0  0
  -16.5379  -29.9070   23.6355 C   0  0  0  0  0  0
  -16.7297  -28.6499   23.0345 C   0  0  0  0  0  0
  -26.4542  -31.6559   25.0704 C   0  0  0  0  0  0
  -25.3702  -31.3768   26.1378 C   0  0  0  0  0  0
  -27.0395  -30.2941   24.6314 C   0  0  0  0  0  0
  -27.6064  -32.4315   25.7496 C   0  0  0  0  0  0
  -27.5574  -37.1794   24.8470 C   0  0  0  0  0  0
  -21.4270  -29.3077   22.3631 N   0  0  0  0  0  0
  -26.4290  -37.3747   23.9405 N   0  0  0  0  0  0
  -24.7238  -31.0218   22.0932 N   0  0  0  0  0  0
  -23.4222  -28.8078   23.3024 O   0  0  0  0  0  0
  -28.2076  -26.0236   20.2680 O   0  0  0  0  0  0
  -26.5660  -34.8916   22.4625 O   0  0  0  0  0  0
  -23.5585  -32.1338   23.7054 O   0  0  0  0  0  0
  -28.0533  -21.7224   20.4944 C   0  0  0  0  0  0
  -30.1363  -21.4176   20.3707 C   0  0  0  0  0  0
  -28.5727  -23.0525   20.3352 C   0  0  0  0  0  0
  -28.2914  -18.8223   22.0705 C   0  0  0  0  0  0
  -27.6824  -18.6925   19.6671 C   0  0  0  0  0  0
  -27.7827  -24.5126   20.0861 C   0  0  0  0  0  0
  -29.9838  -17.7932   20.4060 C   0  0  0  0  0  0
  -28.8255  -19.0352   20.6408 C   0  0  0  0  0  0
  -29.9535  -22.7710   20.2617 N   0  0  0  0  0  0
  -29.0349  -20.6337   20.4857 N   0  0  0  0  0  0
  -29.7100  -16.2139   20.5670 N   0  0  0  0  0  0
  -31.4714  -12.7974   19.2161 H   0  0  0  0  0  0
  -30.4383  -11.6928   20.0696 H   0  0  0  0  0  0
  -29.8624  -11.7328   17.6161 H   0  0  0  0  0  0
  -29.6159  -13.4605   17.6854 H   0  0  0  0  0  0
  -27.9572  -11.2823   18.9925 H   0  0  0  0  0  0
  -27.4022  -12.4499   17.8169 H   0  0  0  0  0  0
  -27.5783  -14.2544   19.3988 H   0  0  0  0  0  0
  -28.7587  -12.3347   21.4640 H   0  0  0  0  0  0
  -28.3465  -14.0082   21.7526 H   0  0  0  0  0  0
  -25.2761   -9.5692   22.4756 H   0  0  0  0  0  0
  -23.9992   -7.4631   22.7468 H   0  0  0  0  0  0
  -21.0820   -8.8803   19.8970 H   0  0  0  0  0  0
  -22.3692  -10.9683   19.6170 H   0  0  0  0  0  0
  -21.2031   -7.6137   23.9722 H   0  0  0  0  0  0
  -21.1471   -6.0506   25.9073 H   0  0  0  0  0  0
  -22.0595   -2.7598   23.2847 H   0  0  0  0  0  0
  -22.4011  -11.9836   22.4853 H   0  0  0  0  0  0
  -21.1062  -13.1229   22.2688 H   0  0  0  0  0  0
  -24.6502  -15.8507   20.5665 H   0  0  0  0  0  0
  -26.2520  -15.6386   20.0758 H   0  0  0  0  0  0
  -26.7294  -32.5277   23.0964 H   0  0  0  0  0  0
  -25.0107  -33.9613   25.0317 H   0  0  0  0  0  0
  -22.7552  -31.2841   21.3797 H   0  0  0  0  0  0
  -23.3759  -35.9565   23.3289 H   0  0  0  0  0  0
  -24.3555  -36.8880   22.2046 H   0  0  0  0  0  0
  -23.7252  -37.6442   23.6670 H   0  0  0  0  0  0
  -26.1723  -31.4437   20.6164 H   0  0  0  0  0  0
  -26.8807  -30.7512   22.0388 H   0  0  0  0  0  0
  -28.1232  -28.7330   21.2787 H   0  0  0  0  0  0
  -25.8572  -25.8373   18.9927 H   0  0  0  0  0  0
  -23.9851  -27.3152   18.9529 H   0  0  0  0  0  0
  -23.8214  -30.5657   19.3978 H   0  0  0  0  0  0
  -22.7966  -29.2324   19.8429 H   0  0  0  0  0  0
  -25.1326  -36.1836   25.0802 H   0  0  0  0  0  0
  -21.0001  -28.3267   24.1352 H   0  0  0  0  0  0
  -20.5770  -26.2284   23.3494 H   0  0  0  0  0  0
  -21.6665  -26.7543   22.1059 H   0  0  0  0  0  0
  -19.6965  -25.6417   21.1075 H   0  0  0  0  0  0
  -19.6707  -27.3333   20.6713 H   0  0  0  0  0  0
  -17.4245  -26.6741   21.3944 H   0  0  0  0  0  0
  -18.0363  -26.0064   22.8916 H   0  0  0  0  0  0
  -19.7961  -30.7272   24.2248 H   0  0  0  0  0  0
  -17.5050  -31.6250   24.5214 H   0  0  0  0  0  0
  -15.5378  -30.2963   23.7693 H   0  0  0  0  0  0
  -15.8702  -28.0807   22.7058 H   0  0  0  0  0  0
  -24.5897  -30.7105   25.7695 H   0  0  0  0  0  0
  -24.8875  -32.2951   26.4722 H   0  0  0  0  0  0
  -25.7967  -30.8996   27.0208 H   0  0  0  0  0  0
  -26.3017  -29.6669   24.1293 H   0  0  0  0  0  0
  -27.3950  -29.7245   25.4912 H   0  0  0  0  0  0
  -27.8958  -30.4155   23.9673 H   0  0  0  0  0  0
  -27.2662  -33.3639   26.2010 H   0  0  0  0  0  0
  -28.3913  -32.6832   25.0350 H   0  0  0  0  0  0
  -28.0676  -31.8468   26.5466 H   0  0  0  0  0  0
  -28.2614  -38.0075   24.7491 H   0  0  0  0  0  0
  -28.1057  -36.2602   24.6330 H   0  0  0  0  0  0
  -27.2274  -37.1476   25.8874 H   0  0  0  0  0  0
  -20.9496  -29.8820   21.6824 H   0  0  0  0  0  0
  -26.0144  -38.2816   24.1390 H   0  0  0  0  0  0
  -27.0079  -21.4588   20.5902 H   0  0  0  0  0  0
  -31.1258  -20.9830   20.3516 H   0  0  0  0  0  0
  -27.9084  -17.8115   22.2155 H   0  0  0  0  0  0
  -27.4725  -19.5052   22.3015 H   0  0  0  0  0  0
  -29.0735  -18.9838   22.8132 H   0  0  0  0  0  0
  -27.3558  -17.6577   19.7628 H   0  0  0  0  0  0
  -26.8046  -19.3159   19.8325 H   0  0  0  0  0  0
  -27.9973  -18.8430   18.6347 H   0  0  0  0  0  0
  -26.8449  -24.4296   20.6368 H   0  0  0  0  0  0
  -27.4819  -24.4651   19.0397 H   0  0  0  0  0  0
  -30.8306  -18.0208   21.0539 H   0  0  0  0  0  0
  -30.3719  -17.9183   19.3933 H   0  0  0  0  0  0
  -28.7423  -16.0040   20.7616 H   0  0  0  0  0  0
  1 25  1  0  0  0
  1 30  2  0  0  0
  1 81  1  0  0  0
  2  3  1  0  0  0
  2 25  1  0  0  0
  2 82  1  0  0  0
  2 83  1  0  0  0
  3  4  1  0  0  0
  3 84  1  0  0  0
  3 85  1  0  0  0
  4  5  1  0  0  0
  4 86  1  0  0  0
  4 87  1  0  0  0
  5  6  1  0  0  0
  5 26  1  0  0  0
  5 88  1  0  0  0
  6 25  1  0  0  0
  6 89  1  0  0  0
  6 90  1  0  0  0
  7  8  2  0  0  0
  7 26  1  0  0  0
  7 29  1  0  0  0
  8  9  1  0  0  0
  8 22  1  0  0  0
  9 10  1  0  0  0
  9 27  2  0  0  0
 10 11  2  0  0  0
 10 15  1  0  0  0
 11 12  1  0  0  0
 11 91  1  0  0  0
 12 13  2  0  0  0
 12 92  1  0  0  0
 13 14  1  0  0  0
 13 31  1  0  0  0
 14 15  2  0  0  0
 14 93  1  0  0  0
 15 94  1  0  0  0
 16 17  2  0  0  0
 16 21  1  0  0  0
 16 31  1  0  0  0
 17 18  1  0  0  0
 17 95  1  0  0  0
 18 19  2  0  0  0
 18 96  1  0  0  0
 19 20  1  0  0  0
 19 24  1  0  0  0
 20 21  2  0  0  0
 20 97  1  0  0  0
 21 23  1  0  0  0
 22 28  1  0  0  0
 22 32  2  0  0  0
 26 27  1  0  0  0
 28 98  1  0  0  0
 28 99  1  0  0  0
 29100  1  0  0  0
 29101  1  0  0  0
 33 34  1  0  0  0
 33 66  1  0  0  0
 33 70  2  0  0  0
 34 36  1  0  0  0
 34 59  1  0  0  0
 34102  1  0  0  0
 35 44  2  0  0  0
 35 45  1  0  0  0
 35 68  1  0  0  0
 36 56  1  0  0  0
 36103  1  0  0  0
 37 39  1  0  0  0
 37 47  1  0  0  0
 37 66  1  0  0  0
 37104  1  0  0  0
 38 43  2  0  0  0
 38 46  1  0  0  0
 38 47  1  0  0  0
 39 64  1  0  0  0
 39 67  2  0  0  0
 40 52  1  0  0  0
 40 53  2  0  0  0
 40 58  1  0  0  0
 41105  1  0  0  0
 41106  1  0  0  0
 41107  1  0  0  0
 41 48  1  0  0  0
 42 43  1  0  0  0
 42 66  1  0  0  0
 42108  1  0  0  0
 42109  1  0  0  0
 43 44  1  0  0  0
 44110  1  0  0  0
 45 46  2  0  0  0
 45111  1  0  0  0
 46112  1  0  0  0
 47113  1  0  0  0
 47114  1  0  0  0
 48 56  1  0  0  0
 48 65  1  0  0  0
 48115  1  0  0  0
 49 50  1  0  0  0
 49 53  1  0  0  0
 49 64  1  0  0  0
 49116  1  0  0  0
 50 51  1  0  0  0
 50117  1  0  0  0
 50118  1  0  0  0
 51 52  1  0  0  0
 51119  1  0  0  0
 51120  1  0  0  0
 52121  1  0  0  0
 52122  1  0  0  0
 53 54  1  0  0  0
 54 55  2  0  0  0
 54123  1  0  0  0
 55 57  1  0  0  0
 55124  1  0  0  0
 56 69  2  0  0  0
 57 58  2  0  0  0
 57125  1  0  0  0
 58126  1  0  0  0
 59 60  1  0  0  0
 59 61  1  0  0  0
 59 62  1  0  0  0
 60127  1  0  0  0
 60128  1  0  0  0
 60129  1  0  0  0
 61130  1  0  0  0
 61131  1  0  0  0
 61132  1  0  0  0
 62133  1  0  0  0
 62134  1  0  0  0
 62135  1  0  0  0
 63 65  1  0  0  0
 63136  1  0  0  0
 63137  1  0  0  0
 63138  1  0  0  0
 64139  1  0  0  0
 65140  1  0  0  0
 68 76  1  0  0  0
 71 73  2  0  0  0
 71 80  1  0  0  0
 71141  1  0  0  0
 72 79  2  0  0  0
 72 80  1  0  0  0
 72142  1  0  0  0
 73 76  1  0  0  0
 73 79  1  0  0  0
 74143  1  0  0  0
 74144  1  0  0  0
 74145  1  0  0  0
 74 78  1  0  0  0
 75 78  1  0  0  0
 75146  1  0  0  0
 75147  1  0  0  0
 75148  1  0  0  0
 76149  1  0  0  0
 76150  1  0  0  0
 77 78  1  0  0  0
 77 81  1  0  0  0
 77151  1  0  0  0
 77152  1  0  0  0
 78 80  1  0  0  0
 81153  1  0  0  0
M  ISO  4   1 100  68 101  76 101  81 100
M  END
> <chiral flag>
0

> <version>
0

> <s_m_source_file>
/data/baiqing/PycharmProjects/Reinvent-master-3.2/result/LINK_invent/BTK/process_docking_weight1_custom_sum_contain_oxygen_bond_distance_aromatic_linkinvent_7_9_3/rearranged_h_0052.sdf

> <i_m_source_file_index>
81

> <r_mmod_Potential_Energy-OPLS-2005>
633.389404296875

> <r_mmod_Stretch_Energy-OPLS-2005>
318.931060791016

> <r_mmod_Bend_Energy-OPLS-2005>
310.682434082031

> <r_mmod_Torsional_Energy-OPLS-2005>
252.845581054688

> <r_mmod_Improper_Torsional_Energy-OPLS-2005>
4.92284917831421

> <r_mmod_Van_der_Waal_Energy-OPLS-2005>
111.916122436523

> <r_mmod_Electrostatic_Energy-OPLS-2005>
-383.250732421875

> <r_mmod_Solvation_Energy-OPLS-2005>
-237.861465454102

> <b_mmod_Minimization_Converged-OPLS-2005>
0

> <r_mmod_RMS_Derivative-OPLS-2005>
2.70660090446472

$$$$
81
                    3D
 Structure written by MMmdl.
159167  0  0  1  0            999 V2000
  -30.7112  -14.5182   20.6049 C   0  0  0  0  0  0
  -30.4227  -12.3459   19.4401 C   0  0  0  0  0  0
  -29.4959  -12.5105   18.2179 C   0  0  0  0  0  0
  -28.0197  -12.3598   18.6298 C   0  0  0  0  0  0
  -27.6578  -13.2145   19.8728 C   0  0  2  0  0  0
  -28.6947  -13.0267   21.0004 C   0  0  0  0  0  0
  -25.2536  -13.8154   20.5649 C   0  0  0  0  0  0
  -24.1814  -13.0425   20.9184 C   0  0  0  0  0  0
  -24.6391  -11.6905   20.8750 C   0  0  0  0  0  0
  -23.9063  -10.4291   21.0415 C   0  0  0  0  0  0
  -24.3614   -9.4207   21.9189 C   0  0  0  0  0  0
  -23.6292   -8.2241   22.0756 C   0  0  0  0  0  0
  -22.4277   -8.0276   21.3546 C   0  0  0  0  0  0
  -21.9911   -9.0251   20.4645 C   0  0  0  0  0  0
  -22.7238  -10.2131   20.3058 C   0  0  0  0  0  0
  -21.6856   -6.0730   22.5272 C   0  0  0  0  0  0
  -21.4012   -6.5635   23.8206 C   0  0  0  0  0  0
  -21.3662   -5.6789   24.9169 C   0  0  0  0  0  0
  -21.6043   -4.3049   24.7218 C   0  0  0  0  0  0
  -21.8823   -3.8143   23.4341 C   0  0  0  0  0  0
  -21.9194   -4.6960   22.3397 C   0  0  0  0  0  0
  -22.7837  -13.5218   21.1857 C   0  0  0  0  0  0
  -22.1664   -4.2143   21.0978 F   0  0  0  0  0  0
  -21.5631   -3.4539   25.7735 F   0  0  0  0  0  0
  -30.0264  -13.3420   20.4553 N   0  0  0  0  0  0
  -26.3003  -12.9356   20.3353 N   0  0  0  0  0  0
  -25.9322  -11.6507   20.5780 N   0  0  0  0  0  0
  -22.0484  -12.8203   22.0414 N   0  0  0  0  0  0
  -25.4165  -15.1861   20.3965 N   0  0  0  0  0  0
  -31.7875  -14.7168   20.0318 O   0  0  0  0  0  0
  -21.6637   -6.8872   21.4233 O   0  0  0  0  0  0
  -22.3523  -14.5533   20.6718 O   0  0  0  0  0  0
  -24.6177  -31.8645   23.2070 C   0  0  0  0  0  0
  -25.9047  -32.4816   23.8379 C   0  0  1  0  0  0
  -27.2281  -27.3953   20.1128 C   0  0  0  0  0  0
  -25.5892  -33.8618   24.2310 N   0  0  0  0  0  0
  -23.4087  -30.4872   21.5475 C   0  0  2  0  0  0
  -24.8546  -28.9462   20.1154 C   0  0  0  0  0  0
  -22.7444  -29.4641   22.4973 C   0  0  0  0  0  0
  -18.0274  -28.1399   22.8503 C   0  0  0  0  0  0
  -24.1475  -36.7303   23.2643 C   0  0  0  0  0  0
  -25.9405  -30.8206   21.3636 C   0  0  0  0  0  0
  -26.0173  -29.4507   20.7127 C   0  0  0  0  0  0
  -27.2099  -28.6852   20.7017 C   0  0  0  0  0  0
  -26.0499  -26.9118   19.5074 C   0  0  0  0  0  0
  -24.8677  -27.6772   19.5081 C   0  0  0  0  0  0
  -23.6190  -29.8178   20.1632 C   0  0  0  0  0  0
  -25.4105  -36.3118   24.0334 C   0  0  1  0  0  0
  -20.5873  -28.3679   23.1319 C   0  0  2  0  0  0
  -20.6775  -26.9413   22.5422 C   0  0  0  0  0  0
  -19.5742  -26.6391   21.5236 C   0  0  0  0  0  0
  -18.1916  -26.7949   22.1633 C   0  0  0  0  0  0
  -19.1533  -28.8858   23.2903 C   0  0  0  0  0  0
  -18.9463  -30.1464   23.8903 C   0  0  0  0  0  0
  -17.6462  -30.6602   24.0577 C   0  0  0  0  0  0
  -25.9032  -34.9476   23.5125 C   0  0  0  0  0  0
  -16.5353  -29.9108   23.6338 C   0  0  0  0  0  0
  -16.7265  -28.6526   23.0357 C   0  0  0  0  0  0
  -26.4464  -31.6613   25.0727 C   0  0  0  0  0  0
  -25.3715  -31.3718   26.1469 C   0  0  0  0  0  0
  -27.0318  -30.3067   24.6119 C   0  0  0  0  0  0
  -27.6051  -32.4333   25.7484 C   0  0  0  0  0  0
  -27.5575  -37.1812   24.8475 C   0  0  0  0  0  0
  -21.4168  -29.3040   22.3728 N   0  0  0  0  0  0
  -26.4291  -37.3807   23.9414 N   0  0  0  0  0  0
  -24.6741  -31.0726   22.0971 N   0  0  0  0  0  0
  -23.4211  -28.8190   23.3025 O   0  0  0  0  0  0
  -28.3730  -26.6176   20.1098 O   0  0  0  0  0  0
  -26.5615  -34.8932   22.4696 O   0  0  0  0  0  0
  -23.5357  -32.1389   23.7444 O   0  0  0  0  0  0
  -27.6978  -17.3660   21.5622 C   0  0  0  0  0  0
  -26.9044  -18.5369   21.6646 C   0  0  0  0  0  0
  -28.8967  -17.7852   21.0530 C   0  0  0  0  0  0
  -30.1737  -15.4749   22.7446 C   0  0  0  0  0  0
  -30.1283  -16.9358   20.7553 C   0  0  0  0  0  0
  -28.8173  -22.7242   20.6089 C   0  0  0  0  0  0
  -29.1562  -21.4906   19.7038 C   0  0  0  0  0  0
  -28.5954  -24.0821   19.8473 C   0  0  0  0  0  0
  -29.7332  -20.1843   20.3779 C   0  0  0  0  0  0
  -28.2774  -25.3173   20.7514 C   0  0  0  0  0  0
  -27.5489  -19.6128   21.2512 N   0  0  0  0  0  0
  -28.7673  -19.1764   20.8532 N   0  0  0  0  0  0
  -30.0927  -15.5316   21.2777 N   0  0  0  0  0  0
  -31.4654  -12.4498   19.1345 H   0  0  0  0  0  0
  -30.3372  -11.3386   19.8523 H   0  0  0  0  0  0
  -29.7467  -11.7711   17.4559 H   0  0  0  0  0  0
  -29.6530  -13.4883   17.7601 H   0  0  0  0  0  0
  -27.8437  -11.3045   18.8436 H   0  0  0  0  0  0
  -27.3644  -12.6111   17.7951 H   0  0  0  0  0  0
  -27.6937  -14.2588   19.5618 H   0  0  0  0  0  0
  -28.6813  -12.0006   21.3695 H   0  0  0  0  0  0
  -28.4263  -13.6480   21.8539 H   0  0  0  0  0  0
  -25.2758   -9.5678   22.4766 H   0  0  0  0  0  0
  -24.0002   -7.4624   22.7470 H   0  0  0  0  0  0
  -21.0848   -8.8764   19.8945 H   0  0  0  0  0  0
  -22.3701  -10.9668   19.6168 H   0  0  0  0  0  0
  -21.2002   -7.6145   23.9707 H   0  0  0  0  0  0
  -21.1483   -6.0520   25.9071 H   0  0  0  0  0  0
  -22.0603   -2.7605   23.2840 H   0  0  0  0  0  0
  -22.4098  -11.9852   22.4775 H   0  0  0  0  0  0
  -21.1107  -13.1219   22.2620 H   0  0  0  0  0  0
  -24.6431  -15.8333   20.5034 H   0  0  0  0  0  0
  -26.2634  -15.6317   20.0658 H   0  0  0  0  0  0
  -26.7124  -32.5507   23.1148 H   0  0  0  0  0  0
  -25.0073  -33.9779   25.0477 H   0  0  0  0  0  0
  -22.6984  -31.3039   21.4045 H   0  0  0  0  0  0
  -23.3750  -35.9627   23.3329 H   0  0  0  0  0  0
  -24.3574  -36.8898   22.2059 H   0  0  0  0  0  0
  -23.7197  -37.6496   23.6650 H   0  0  0  0  0  0
  -26.0528  -31.5821   20.5905 H   0  0  0  0  0  0
  -26.8307  -30.8797   21.9782 H   0  0  0  0  0  0
  -28.1064  -29.0693   21.1679 H   0  0  0  0  0  0
  -26.0469  -25.9371   19.0400 H   0  0  0  0  0  0
  -23.9726  -27.2819   19.0478 H   0  0  0  0  0  0
  -23.7297  -30.5912   19.4027 H   0  0  0  0  0  0
  -22.7428  -29.2387   19.8653 H   0  0  0  0  0  0
  -25.1273  -36.1994   25.0824 H   0  0  0  0  0  0
  -20.9955  -28.3240   24.1444 H   0  0  0  0  0  0
  -20.5719  -26.2280   23.3611 H   0  0  0  0  0  0
  -21.6635  -26.7476   22.1178 H   0  0  0  0  0  0
  -19.6906  -25.6304   21.1252 H   0  0  0  0  0  0
  -19.6688  -27.3223   20.6787 H   0  0  0  0  0  0
  -17.4195  -26.6726   21.4023 H   0  0  0  0  0  0
  -18.0280  -26.0091   22.9021 H   0  0  0  0  0  0
  -19.7938  -30.7295   24.2262 H   0  0  0  0  0  0
  -17.5016  -31.6281   24.5187 H   0  0  0  0  0  0
  -15.5357  -30.3018   23.7662 H   0  0  0  0  0  0
  -15.8662  -28.0856   22.7060 H   0  0  0  0  0  0
  -24.5895  -30.7064   25.7790 H   0  0  0  0  0  0
  -24.8890  -32.2873   26.4905 H   0  0  0  0  0  0
  -25.8040  -30.8885   27.0240 H   0  0  0  0  0  0
  -26.2878  -29.6825   24.1163 H   0  0  0  0  0  0
  -27.4098  -29.7308   25.4576 H   0  0  0  0  0  0
  -27.8698  -30.4420   23.9280 H   0  0  0  0  0  0
  -27.2691  -33.3644   26.2063 H   0  0  0  0  0  0
  -28.3858  -32.6878   25.0302 H   0  0  0  0  0  0
  -28.0733  -31.8450   26.5390 H   0  0  0  0  0  0
  -28.2614  -38.0094   24.7530 H   0  0  0  0  0  0
  -28.1044  -36.2627   24.6290 H   0  0  0  0  0  0
  -27.2296  -37.1443   25.8880 H   0  0  0  0  0  0
  -20.9328  -29.8751   21.6942 H   0  0  0  0  0  0
  -26.0180  -38.2880   24.1434 H   0  0  0  0  0  0
  -27.4223  -16.3600   21.8443 H   0  0  0  0  0  0
  -25.8922  -18.6324   22.0317 H   0  0  0  0  0  0
  -30.2236  -14.4523   23.1242 H   0  0  0  0  0  0
  -29.3135  -15.9489   23.2151 H   0  0  0  0  0  0
  -31.0682  -15.9895   23.0979 H   0  0  0  0  0  0
  -31.0172  -17.4310   21.1484 H   0  0  0  0  0  0
  -30.2657  -16.9149   19.6728 H   0  0  0  0  0  0
  -29.6312  -22.8644   21.3215 H   0  0  0  0  0  0
  -27.9350  -22.4937   21.2082 H   0  0  0  0  0  0
  -29.9159  -21.8256   18.9972 H   0  0  0  0  0  0
  -28.2952  -21.2397   19.0836 H   0  0  0  0  0  0
  -27.7923  -23.9642   19.1191 H   0  0  0  0  0  0
  -29.4928  -24.3025   19.2696 H   0  0  0  0  0  0
  -30.3935  -20.4443   21.2055 H   0  0  0  0  0  0
  -30.3654  -19.6825   19.6448 H   0  0  0  0  0  0
  -28.9960  -25.3352   21.5713 H   0  0  0  0  0  0
  -27.3056  -25.1754   21.2276 H   0  0  0  0  0  0
  1 25  1  0  0  0
  1 30  2  0  0  0
  1 83  1  0  0  0
  2  3  1  0  0  0
  2 25  1  0  0  0
  2 84  1  0  0  0
  2 85  1  0  0  0
  3  4  1  0  0  0
  3 86  1  0  0  0
  3 87  1  0  0  0
  4  5  1  0  0  0
  4 88  1  0  0  0
  4 89  1  0  0  0
  5  6  1  0  0  0
  5 26  1  0  0  0
  5 90  1  0  0  0
  6 25  1  0  0  0
  6 91  1  0  0  0
  6 92  1  0  0  0
  7  8  2  0  0  0
  7 26  1  0  0  0
  7 29  1  0  0  0
  8  9  1  0  0  0
  8 22  1  0  0  0
  9 10  1  0  0  0
  9 27  2  0  0  0
 10 11  2  0  0  0
 10 15  1  0  0  0
 11 12  1  0  0  0
 11 93  1  0  0  0
 12 13  2  0  0  0
 12 94  1  0  0  0
 13 14  1  0  0  0
 13 31  1  0  0  0
 14 15  2  0  0  0
 14 95  1  0  0  0
 15 96  1  0  0  0
 16 17  2  0  0  0
 16 21  1  0  0  0
 16 31  1  0  0  0
 17 18  1  0  0  0
 17 97  1  0  0  0
 18 19  2  0  0  0
 18 98  1  0  0  0
 19 20  1  0  0  0
 19 24  1  0  0  0
 20 21  2  0  0  0
 20 99  1  0  0  0
 21 23  1  0  0  0
 22 28  1  0  0  0
 22 32  2  0  0  0
 26 27  1  0  0  0
 28100  1  0  0  0
 28101  1  0  0  0
 29102  1  0  0  0
 29103  1  0  0  0
 33 34  1  0  0  0
 33 66  1  0  0  0
 33 70  2  0  0  0
 34 36  1  0  0  0
 34 59  1  0  0  0
 34104  1  0  0  0
 35 44  2  0  0  0
 35 45  1  0  0  0
 35 68  1  0  0  0
 36 56  1  0  0  0
 36105  1  0  0  0
 37 39  1  0  0  0
 37 47  1  0  0  0
 37 66  1  0  0  0
 37106  1  0  0  0
 38 43  2  0  0  0
 38 46  1  0  0  0
 38 47  1  0  0  0
 39 64  1  0  0  0
 39 67  2  0  0  0
 40 52  1  0  0  0
 40 53  2  0  0  0
 40 58  1  0  0  0
 41107  1  0  0  0
 41108  1  0  0  0
 41109  1  0  0  0
 41 48  1  0  0  0
 42 43  1  0  0  0
 42 66  1  0  0  0
 42110  1  0  0  0
 42111  1  0  0  0
 43 44  1  0  0  0
 44112  1  0  0  0
 45 46  2  0  0  0
 45113  1  0  0  0
 46114  1  0  0  0
 47115  1  0  0  0
 47116  1  0  0  0
 48 56  1  0  0  0
 48 65  1  0  0  0
 48117  1  0  0  0
 49 50  1  0  0  0
 49 53  1  0  0  0
 49 64  1  0  0  0
 49118  1  0  0  0
 50 51  1  0  0  0
 50119  1  0  0  0
 50120  1  0  0  0
 51 52  1  0  0  0
 51121  1  0  0  0
 51122  1  0  0  0
 52123  1  0  0  0
 52124  1  0  0  0
 53 54  1  0  0  0
 54 55  2  0  0  0
 54125  1  0  0  0
 55 57  1  0  0  0
 55126  1  0  0  0
 56 69  2  0  0  0
 57 58  2  0  0  0
 57127  1  0  0  0
 58128  1  0  0  0
 59 60  1  0  0  0
 59 61  1  0  0  0
 59 62  1  0  0  0
 60129  1  0  0  0
 60130  1  0  0  0
 60131  1  0  0  0
 61132  1  0  0  0
 61133  1  0  0  0
 61134  1  0  0  0
 62135  1  0  0  0
 62136  1  0  0  0
 62137  1  0  0  0
 63 65  1  0  0  0
 63138  1  0  0  0
 63139  1  0  0  0
 63140  1  0  0  0
 64141  1  0  0  0
 65142  1  0  0  0
 68 80  1  0  0  0
 71 72  1  0  0  0
 71 73  2  0  0  0
 71143  1  0  0  0
 72 81  2  0  0  0
 72144  1  0  0  0
 73 75  1  0  0  0
 73 82  1  0  0  0
 74 83  1  0  0  0
 74145  1  0  0  0
 74146  1  0  0  0
 74147  1  0  0  0
 75 83  1  0  0  0
 75148  1  0  0  0
 75149  1  0  0  0
 76 77  1  0  0  0
 76 78  1  0  0  0
 76150  1  0  0  0
 76151  1  0  0  0
 77 79  1  0  0  0
 77152  1  0  0  0
 77153  1  0  0  0
 78 80  1  0  0  0
 78154  1  0  0  0
 78155  1  0  0  0
 79 82  1  0  0  0
 79156  1  0  0  0
 79157  1  0  0  0
 80158  1  0  0  0
 80159  1  0  0  0
 81 82  1  0  0  0
M  ISO  4   1 100  68 101  80 101  83 100
M  END
> <chiral flag>
0

> <version>
0

> <s_m_source_file>
/data/baiqing/PycharmProjects/Reinvent-master-3.2/result/LINK_invent/BTK/process_docking_weight1_custom_sum_contain_oxygen_bond_distance_aromatic_linkinvent_7_9_3/rearranged_h_0052.sdf

> <i_m_source_file_index>
82

> <r_mmod_Potential_Energy-OPLS-2005>
69.1669998168945

> <r_mmod_Stretch_Energy-OPLS-2005>
53.1106338500977

> <r_mmod_Bend_Energy-OPLS-2005>
112.639511108398

> <r_mmod_Torsional_Energy-OPLS-2005>
287.387969970703

> <r_mmod_Improper_Torsional_Energy-OPLS-2005>
6.65124130249023

> <r_mmod_Van_der_Waal_Energy-OPLS-2005>
119.93529510498

> <r_mmod_Electrostatic_Energy-OPLS-2005>
-331.325775146484

> <r_mmod_Solvation_Energy-OPLS-2005>
-197.944427490234

> <b_mmod_Minimization_Converged-OPLS-2005>
0

> <r_mmod_RMS_Derivative-OPLS-2005>
1.78348350524902

$$$$
82
                    3D
 Structure written by MMmdl.
162170  0  0  1  0            999 V2000
  -30.6977  -14.5289   20.5940 C   0  0  0  0  0  0
  -30.4307  -12.3491   19.4370 C   0  0  0  0  0  0
  -29.5010  -12.5124   18.2155 C   0  0  0  0  0  0
  -28.0247  -12.3560   18.6275 C   0  0  0  0  0  0
  -27.6603  -13.2100   19.8699 C   0  0  2  0  0  0
  -28.6993  -13.0133   20.9948 C   0  0  0  0  0  0
  -25.2587  -13.8167   20.5678 C   0  0  0  0  0  0
  -24.1841  -13.0440   20.9174 C   0  0  0  0  0  0
  -24.6394  -11.6906   20.8723 C   0  0  0  0  0  0
  -23.9056  -10.4292   21.0393 C   0  0  0  0  0  0
  -24.3605   -9.4211   21.9174 C   0  0  0  0  0  0
  -23.6280   -8.2246   22.0754 C   0  0  0  0  0  0
  -22.4262   -8.0279   21.3544 C   0  0  0  0  0  0
  -21.9894   -9.0254   20.4645 C   0  0  0  0  0  0
  -22.7226  -10.2129   20.3049 C   0  0  0  0  0  0
  -21.6849   -6.0726   22.5278 C   0  0  0  0  0  0
  -21.4012   -6.5628   23.8210 C   0  0  0  0  0  0
  -21.3656   -5.6783   24.9171 C   0  0  0  0  0  0
  -21.6042   -4.3048   24.7222 C   0  0  0  0  0  0
  -21.8819   -3.8137   23.4345 C   0  0  0  0  0  0
  -21.9192   -4.6954   22.3402 C   0  0  0  0  0  0
  -22.7864  -13.5240   21.1838 C   0  0  0  0  0  0
  -22.1664   -4.2141   21.0982 F   0  0  0  0  0  0
  -21.5622   -3.4532   25.7733 F   0  0  0  0  0  0
  -30.0297  -13.3421   20.4528 N   0  0  0  0  0  0
  -26.3018  -12.9340   20.3334 N   0  0  0  0  0  0
  -25.9320  -11.6498   20.5745 N   0  0  0  0  0  0
  -22.0502  -12.8242   22.0395 N   0  0  0  0  0  0
  -25.4317  -15.1885   20.4100 N   0  0  0  0  0  0
  -31.7844  -14.7332   20.0435 O   0  0  0  0  0  0
  -21.6633   -6.8870   21.4241 O   0  0  0  0  0  0
  -22.3557  -14.5542   20.6679 O   0  0  0  0  0  0
  -24.6190  -31.8654   23.2049 C   0  0  0  0  0  0
  -25.9061  -32.4807   23.8361 C   0  0  1  0  0  0
  -27.2339  -27.3987   20.0964 C   0  0  0  0  0  0
  -25.5903  -33.8605   24.2298 N   0  0  0  0  0  0
  -23.4104  -30.4870   21.5460 C   0  0  2  0  0  0
  -24.8598  -28.9476   20.1126 C   0  0  0  0  0  0
  -22.7435  -29.4655   22.4968 C   0  0  0  0  0  0
  -18.0277  -28.1375   22.8483 C   0  0  0  0  0  0
  -24.1496  -36.7303   23.2642 C   0  0  0  0  0  0
  -25.9442  -30.8175   21.3662 C   0  0  0  0  0  0
  -26.0229  -29.4491   20.7125 C   0  0  0  0  0  0
  -27.2175  -28.6818   20.7019 C   0  0  0  0  0  0
  -26.0566  -26.9207   19.4895 C   0  0  0  0  0  0
  -24.8717  -27.6823   19.4992 C   0  0  0  0  0  0
  -23.6218  -29.8183   20.1620 C   0  0  0  0  0  0
  -25.4121  -36.3098   24.0336 C   0  0  1  0  0  0
  -20.5872  -28.3678   23.1302 C   0  0  2  0  0  0
  -20.6774  -26.9411   22.5411 C   0  0  0  0  0  0
  -19.5750  -26.6382   21.5210 C   0  0  0  0  0  0
  -18.1924  -26.7915   22.1617 C   0  0  0  0  0  0
  -19.1527  -28.8838   23.2887 C   0  0  0  0  0  0
  -18.9461  -30.1433   23.8913 C   0  0  0  0  0  0
  -17.6468  -30.6581   24.0560 C   0  0  0  0  0  0
  -25.9052  -34.9467   23.5116 C   0  0  0  0  0  0
  -16.5354  -29.9087   23.6333 C   0  0  0  0  0  0
  -16.7268  -28.6503   23.0356 C   0  0  0  0  0  0
  -26.4461  -31.6595   25.0708 C   0  0  0  0  0  0
  -25.3700  -31.3701   26.1441 C   0  0  0  0  0  0
  -27.0313  -30.3043   24.6109 C   0  0  0  0  0  0
  -27.6036  -32.4322   25.7469 C   0  0  0  0  0  0
  -27.5584  -37.1801   24.8467 C   0  0  0  0  0  0
  -21.4161  -29.3039   22.3704 N   0  0  0  0  0  0
  -26.4307  -37.3785   23.9408 N   0  0  0  0  0  0
  -24.6757  -31.0719   22.0968 N   0  0  0  0  0  0
  -23.4183  -28.8209   23.3044 O   0  0  0  0  0  0
  -28.3474  -26.5774   20.0912 O   0  0  0  0  0  0
  -26.5630  -34.8919   22.4687 O   0  0  0  0  0  0
  -23.5371  -32.1439   23.7420 O   0  0  0  0  0  0
  -28.9946  -23.6406   19.4577 C   0  0  0  0  0  0
  -28.7522  -24.1890   20.6987 C   0  0  0  0  0  0
  -29.2696  -22.0104   20.8894 C   0  0  0  0  0  0
  -28.7881  -23.1925   23.0472 C   0  0  0  0  0  0
  -29.9960  -15.5759   22.6654 C   0  0  0  0  0  0
  -27.9295  -19.3837   20.2346 C   0  0  0  0  0  0
  -28.3414  -25.5950   21.1529 C   0  0  0  0  0  0
  -29.5919  -20.6665   21.5779 C   0  0  0  0  0  0
  -29.7353  -16.8535   20.4972 C   0  0  0  0  0  0
  -29.8047  -18.1923   21.3407 C   0  0  0  0  0  0
  -29.3331  -22.2812   19.5829 N   0  0  0  0  0  0
  -28.9327  -23.1211   21.5994 N   0  0  0  0  0  0
  -30.0267  -15.5553   21.1985 N   0  0  0  0  0  0
  -29.3442  -19.4780   20.6816 N   0  3  1  0  0  0
  -31.4738  -12.4579   19.1335 H   0  0  0  0  0  0
  -30.3503  -11.3409   19.8482 H   0  0  0  0  0  0
  -29.7541  -11.7774   17.4499 H   0  0  0  0  0  0
  -29.6546  -13.4927   17.7625 H   0  0  0  0  0  0
  -27.8532  -11.3012   18.8451 H   0  0  0  0  0  0
  -27.3690  -12.6019   17.7918 H   0  0  0  0  0  0
  -27.6977  -14.2543   19.5599 H   0  0  0  0  0  0
  -28.6900  -11.9795   21.3434 H   0  0  0  0  0  0
  -28.4293  -13.6132   21.8619 H   0  0  0  0  0  0
  -25.2748   -9.5678   22.4755 H   0  0  0  0  0  0
  -23.9977   -7.4635   22.7478 H   0  0  0  0  0  0
  -21.0821   -8.8771   19.8957 H   0  0  0  0  0  0
  -22.3684  -10.9663   19.6157 H   0  0  0  0  0  0
  -21.2012   -7.6135   23.9707 H   0  0  0  0  0  0
  -21.1477   -6.0515   25.9070 H   0  0  0  0  0  0
  -22.0603   -2.7601   23.2850 H   0  0  0  0  0  0
  -22.4100  -11.9900   22.4784 H   0  0  0  0  0  0
  -21.1127  -13.1289   22.2601 H   0  0  0  0  0  0
  -24.6647  -15.8442   20.5116 H   0  0  0  0  0  0
  -26.2867  -15.6220   20.0867 H   0  0  0  0  0  0
  -26.7135  -32.5514   23.1128 H   0  0  0  0  0  0
  -25.0032  -33.9762   25.0420 H   0  0  0  0  0  0
  -22.7023  -31.3058   21.4021 H   0  0  0  0  0  0
  -23.3759  -35.9635   23.3320 H   0  0  0  0  0  0
  -24.3589  -36.8912   22.2054 H   0  0  0  0  0  0
  -23.7247  -37.6509   23.6658 H   0  0  0  0  0  0
  -26.0667  -31.5832   20.5990 H   0  0  0  0  0  0
  -26.8271  -30.8661   21.9915 H   0  0  0  0  0  0
  -28.1155  -29.0602   21.1698 H   0  0  0  0  0  0
  -26.0559  -25.9478   19.0184 H   0  0  0  0  0  0
  -23.9781  -27.2887   19.0348 H   0  0  0  0  0  0
  -23.7307  -30.5931   19.4020 H   0  0  0  0  0  0
  -22.7433  -29.2407   19.8673 H   0  0  0  0  0  0
  -25.1293  -36.1962   25.0832 H   0  0  0  0  0  0
  -20.9962  -28.3251   24.1424 H   0  0  0  0  0  0
  -20.5694  -26.2285   23.3603 H   0  0  0  0  0  0
  -21.6644  -26.7462   22.1191 H   0  0  0  0  0  0
  -19.6934  -25.6301   21.1229 H   0  0  0  0  0  0
  -19.6692  -27.3201   20.6752 H   0  0  0  0  0  0
  -17.4198  -26.6673   21.4011 H   0  0  0  0  0  0
  -18.0319  -26.0046   22.9007 H   0  0  0  0  0  0
  -19.7946  -30.7225   24.2303 H   0  0  0  0  0  0
  -17.5036  -31.6267   24.5149 H   0  0  0  0  0  0
  -15.5360  -30.2998   23.7647 H   0  0  0  0  0  0
  -15.8668  -28.0821   22.7081 H   0  0  0  0  0  0
  -24.5901  -30.7024   25.7760 H   0  0  0  0  0  0
  -24.8846  -32.2838   26.4874 H   0  0  0  0  0  0
  -25.8024  -30.8877   27.0214 H   0  0  0  0  0  0
  -26.2868  -29.6782   24.1175 H   0  0  0  0  0  0
  -27.4102  -29.7299   25.4576 H   0  0  0  0  0  0
  -27.8690  -30.4373   23.9256 H   0  0  0  0  0  0
  -27.2679  -33.3637   26.2036 H   0  0  0  0  0  0
  -28.3840  -32.6860   25.0278 H   0  0  0  0  0  0
  -28.0708  -31.8443   26.5383 H   0  0  0  0  0  0
  -28.2596  -38.0101   24.7528 H   0  0  0  0  0  0
  -28.1080  -36.2633   24.6285 H   0  0  0  0  0  0
  -27.2296  -37.1450   25.8866 H   0  0  0  0  0  0
  -20.9338  -29.8760   21.6911 H   0  0  0  0  0  0
  -26.0193  -38.2865   24.1396 H   0  0  0  0  0  0
  -28.9525  -24.1191   18.4884 H   0  0  0  0  0  0
  -28.6627  -24.2177   23.3892 H   0  0  0  0  0  0
  -29.6756  -22.7853   23.5316 H   0  0  0  0  0  0
  -27.9133  -22.6217   23.3581 H   0  0  0  0  0  0
  -29.0187  -15.8976   23.0250 H   0  0  0  0  0  0
  -30.7564  -16.2474   23.0642 H   0  0  0  0  0  0
  -30.1880  -14.5931   23.1012 H   0  0  0  0  0  0
  -27.5495  -20.3158   19.8206 H   0  0  0  0  0  0
  -27.2767  -19.1059   21.0627 H   0  0  0  0  0  0
  -27.8134  -18.6384   19.4489 H   0  0  0  0  0  0
  -29.0406  -25.9495   21.9107 H   0  0  0  0  0  0
  -27.3662  -25.5379   21.6406 H   0  0  0  0  0  0
  -28.9900  -20.5624   22.4802 H   0  0  0  0  0  0
  -30.6361  -20.6889   21.8900 H   0  0  0  0  0  0
  -30.3880  -16.9573   19.6285 H   0  0  0  0  0  0
  -28.7314  -16.7280   20.0953 H   0  0  0  0  0  0
  -30.8355  -18.3286   21.6714 H   0  0  0  0  0  0
  -29.2129  -18.0798   22.2500 H   0  0  0  0  0  0
  -29.9067  -19.6470   19.8595 H   0  0  0  0  0  0
  1 25  1  0  0  0
  1 30  2  0  0  0
  1 83  1  0  0  0
  2  3  1  0  0  0
  2 25  1  0  0  0
  2 85  1  0  0  0
  2 86  1  0  0  0
  3  4  1  0  0  0
  3 87  1  0  0  0
  3 88  1  0  0  0
  4  5  1  0  0  0
  4 89  1  0  0  0
  4 90  1  0  0  0
  5  6  1  0  0  0
  5 26  1  0  0  0
  5 91  1  0  0  0
  6 25  1  0  0  0
  6 92  1  0  0  0
  6 93  1  0  0  0
  7  8  2  0  0  0
  7 26  1  0  0  0
  7 29  1  0  0  0
  8  9  1  0  0  0
  8 22  1  0  0  0
  9 10  1  0  0  0
  9 27  2  0  0  0
 10 11  2  0  0  0
 10 15  1  0  0  0
 11 12  1  0  0  0
 11 94  1  0  0  0
 12 13  2  0  0  0
 12 95  1  0  0  0
 13 14  1  0  0  0
 13 31  1  0  0  0
 14 15  2  0  0  0
 14 96  1  0  0  0
 15 97  1  0  0  0
 16 17  2  0  0  0
 16 21  1  0  0  0
 16 31  1  0  0  0
 17 18  1  0  0  0
 17 98  1  0  0  0
 18 19  2  0  0  0
 18 99  1  0  0  0
 19 20  1  0  0  0
 19 24  1  0  0  0
 20 21  2  0  0  0
 20100  1  0  0  0
 21 23  1  0  0  0
 22 28  1  0  0  0
 22 32  2  0  0  0
 26 27  1  0  0  0
 28101  1  0  0  0
 28102  1  0  0  0
 29103  1  0  0  0
 29104  1  0  0  0
 33 34  1  0  0  0
 33 66  1  0  0  0
 33 70  2  0  0  0
 34 36  1  0  0  0
 34 59  1  0  0  0
 34105  1  0  0  0
 35 44  2  0  0  0
 35 45  1  0  0  0
 35 68  1  0  0  0
 36 56  1  0  0  0
 36106  1  0  0  0
 37 39  1  0  0  0
 37 47  1  0  0  0
 37 66  1  0  0  0
 37107  1  0  0  0
 38 43  2  0  0  0
 38 46  1  0  0  0
 38 47  1  0  0  0
 39 64  1  0  0  0
 39 67  2  0  0  0
 40 52  1  0  0  0
 40 53  2  0  0  0
 40 58  1  0  0  0
 41108  1  0  0  0
 41109  1  0  0  0
 41110  1  0  0  0
 41 48  1  0  0  0
 42 43  1  0  0  0
 42 66  1  0  0  0
 42111  1  0  0  0
 42112  1  0  0  0
 43 44  1  0  0  0
 44113  1  0  0  0
 45 46  2  0  0  0
 45114  1  0  0  0
 46115  1  0  0  0
 47116  1  0  0  0
 47117  1  0  0  0
 48 56  1  0  0  0
 48 65  1  0  0  0
 48118  1  0  0  0
 49 50  1  0  0  0
 49 53  1  0  0  0
 49 64  1  0  0  0
 49119  1  0  0  0
 50 51  1  0  0  0
 50120  1  0  0  0
 50121  1  0  0  0
 51 52  1  0  0  0
 51122  1  0  0  0
 51123  1  0  0  0
 52124  1  0  0  0
 52125  1  0  0  0
 53 54  1  0  0  0
 54 55  2  0  0  0
 54126  1  0  0  0
 55 57  1  0  0  0
 55127  1  0  0  0
 56 69  2  0  0  0
 57 58  2  0  0  0
 57128  1  0  0  0
 58129  1  0  0  0
 59 60  1  0  0  0
 59 61  1  0  0  0
 59 62  1  0  0  0
 60130  1  0  0  0
 60131  1  0  0  0
 60132  1  0  0  0
 61133  1  0  0  0
 61134  1  0  0  0
 61135  1  0  0  0
 62136  1  0  0  0
 62137  1  0  0  0
 62138  1  0  0  0
 63 65  1  0  0  0
 63139  1  0  0  0
 63140  1  0  0  0
 63141  1  0  0  0
 64142  1  0  0  0
 65143  1  0  0  0
 68 77  1  0  0  0
 71 72  2  0  0  0
 71 81  1  0  0  0
 71144  1  0  0  0
 72 77  1  0  0  0
 72 82  1  0  0  0
 73 78  1  0  0  0
 73 81  2  0  0  0
 73 82  1  0  0  0
 74 82  1  0  0  0
 74145  1  0  0  0
 74146  1  0  0  0
 74147  1  0  0  0
 75 83  1  0  0  0
 75148  1  0  0  0
 75149  1  0  0  0
 75150  1  0  0  0
 76151  1  0  0  0
 76152  1  0  0  0
 76153  1  0  0  0
 76 84  1  0  0  0
 77154  1  0  0  0
 77155  1  0  0  0
 78 84  1  0  0  0
 78156  1  0  0  0
 78157  1  0  0  0
 79 80  1  0  0  0
 79 83  1  0  0  0
 79158  1  0  0  0
 79159  1  0  0  0
 80 84  1  0  0  0
 80160  1  0  0  0
 80161  1  0  0  0
 84162  1  0  0  0
M  CHG  1  84   1
M  ISO  4   1 100  68 101  77 101  83 100
M  END
> <chiral flag>
0

> <version>
0

> <s_m_source_file>
/data/baiqing/PycharmProjects/Reinvent-master-3.2/result/LINK_invent/BTK/process_docking_weight1_custom_sum_contain_oxygen_bond_distance_aromatic_linkinvent_7_9_3/rearranged_h_0052.sdf

> <i_m_source_file_index>
83

> <r_mmod_Potential_Energy-OPLS-2005>
-21.3839416503906

> <r_mmod_Stretch_Energy-OPLS-2005>
59.1054306030273

> <r_mmod_Bend_Energy-OPLS-2005>
128.317138671875

> <r_mmod_Torsional_Energy-OPLS-2005>
324.34716796875

> <r_mmod_Improper_Torsional_Energy-OPLS-2005>
5.44442224502563

> <r_mmod_Van_der_Waal_Energy-OPLS-2005>
131.625335693359

> <r_mmod_Electrostatic_Energy-OPLS-2005>
-247.704467773438

> <r_mmod_Solvation_Energy-OPLS-2005>
-442.980010986328

> <b_mmod_Minimization_Converged-OPLS-2005>
0

> <r_mmod_RMS_Derivative-OPLS-2005>
1.62696135044098

$$$$
83
                    3D
 Structure written by MMmdl.
151159  0  0  1  0            999 V2000
  -30.5754  -14.8842   20.4262 C   0  0  0  0  0  0
  -30.4305  -12.5455   19.4965 C   0  0  0  0  0  0
  -29.5159  -12.5214   18.2516 C   0  0  0  0  0  0
  -28.0460  -12.3227   18.6657 C   0  0  0  0  0  0
  -27.6302  -13.2463   19.8419 C   0  0  2  0  0  0
  -28.6718  -13.2588   20.9808 C   0  0  0  0  0  0
  -25.2456  -13.8220   20.5709 C   0  0  0  0  0  0
  -24.1773  -13.0444   20.9224 C   0  0  0  0  0  0
  -24.6387  -11.6928   20.8753 C   0  0  0  0  0  0
  -23.9073  -10.4298   21.0410 C   0  0  0  0  0  0
  -24.3624   -9.4215   21.9188 C   0  0  0  0  0  0
  -23.6302   -8.2249   22.0758 C   0  0  0  0  0  0
  -22.4285   -8.0283   21.3546 C   0  0  0  0  0  0
  -21.9917   -9.0257   20.4649 C   0  0  0  0  0  0
  -22.7245  -10.2138   20.3059 C   0  0  0  0  0  0
  -21.6857   -6.0737   22.5281 C   0  0  0  0  0  0
  -21.4019   -6.5639   23.8214 C   0  0  0  0  0  0
  -21.3660   -5.6793   24.9176 C   0  0  0  0  0  0
  -21.6042   -4.3056   24.7225 C   0  0  0  0  0  0
  -21.8819   -3.8145   23.4348 C   0  0  0  0  0  0
  -21.9195   -4.6964   22.3405 C   0  0  0  0  0  0
  -22.7794  -13.5216   21.1878 C   0  0  0  0  0  0
  -22.1664   -4.2149   21.0984 F   0  0  0  0  0  0
  -21.5625   -3.4540   25.7738 F   0  0  0  0  0  0
  -29.9540  -13.6437   20.3816 N   0  0  0  0  0  0
  -26.2882  -12.9449   20.3262 N   0  0  0  0  0  0
  -25.9320  -11.6580   20.5748 N   0  0  0  0  0  0
  -22.0448  -12.8203   22.0435 N   0  0  0  0  0  0
  -25.4109  -15.1949   20.4127 N   0  0  0  0  0  0
  -31.7794  -14.9298   20.1548 O   0  0  0  0  0  0
  -21.6647   -6.8880   21.4244 O   0  0  0  0  0  0
  -22.3477  -14.5521   20.6724 O   0  0  0  0  0  0
  -24.6397  -31.8474   23.1906 C   0  0  0  0  0  0
  -25.9184  -32.4712   23.8290 C   0  0  1  0  0  0
  -27.2171  -27.1712   20.1445 C   0  0  0  0  0  0
  -25.5941  -33.8514   24.2207 N   0  0  0  0  0  0
  -23.4420  -30.4679   21.5345 C   0  0  2  0  0  0
  -24.8911  -28.8997   20.1078 C   0  0  0  0  0  0
  -22.7554  -29.4565   22.4859 C   0  0  0  0  0  0
  -18.0307  -28.1397   22.8483 C   0  0  0  0  0  0
  -24.1491  -36.7264   23.2644 C   0  0  0  0  0  0
  -25.9952  -30.7319   21.3840 C   0  0  0  0  0  0
  -26.0667  -29.3459   20.7256 C   0  0  0  0  0  0
  -27.2309  -28.4969   20.7274 C   0  0  0  0  0  0
  -26.0191  -26.8179   19.4861 C   0  0  0  0  0  0
  -24.8788  -27.6480   19.4732 C   0  0  0  0  0  0
  -23.6666  -29.7978   20.1527 C   0  0  0  0  0  0
  -25.4121  -36.3044   24.0322 C   0  0  1  0  0  0
  -20.5918  -28.3724   23.1240 C   0  0  2  0  0  0
  -20.6784  -26.9428   22.5405 C   0  0  0  0  0  0
  -19.5757  -26.6386   21.5214 C   0  0  0  0  0  0
  -18.1939  -26.7936   22.1628 C   0  0  0  0  0  0
  -19.1562  -28.8879   23.2856 C   0  0  0  0  0  0
  -18.9474  -30.1474   23.8884 C   0  0  0  0  0  0
  -17.6468  -30.6592   24.0567 C   0  0  0  0  0  0
  -25.9066  -34.9416   23.5075 C   0  0  0  0  0  0
  -16.5362  -29.9087   23.6333 C   0  0  0  0  0  0
  -16.7290  -28.6506   23.0356 C   0  0  0  0  0  0
  -26.4510  -31.6570   25.0721 C   0  0  0  0  0  0
  -25.3700  -31.3747   26.1425 C   0  0  0  0  0  0
  -27.0367  -30.2969   24.6276 C   0  0  0  0  0  0
  -27.6049  -32.4334   25.7500 C   0  0  0  0  0  0
  -27.5578  -37.1791   24.8468 C   0  0  0  0  0  0
  -21.4251  -29.3054   22.3608 N   0  0  0  0  0  0
  -26.4287  -37.3755   23.9409 N   0  0  0  0  0  0
  -24.7122  -31.0364   22.0915 N   0  0  0  0  0  0
  -23.4222  -28.8111   23.2993 O   0  0  0  0  0  0
  -28.2812  -26.2134   20.2246 O   0  0  0  0  0  0
  -26.5654  -34.8909   22.4655 O   0  0  0  0  0  0
  -23.5523  -32.1329   23.7146 O   0  0  0  0  0  0
  -29.9206  -19.9415   19.2832 C   0  0  0  0  0  0
  -29.6357  -19.0041   20.3380 C   0  0  0  0  0  0
  -28.6985  -20.9385   21.4375 C   0  0  0  0  0  0
  -29.0371  -21.8842   20.3961 C   0  0  0  0  0  0
  -28.0510  -21.4241   22.7187 C   0  0  0  0  0  0
  -29.0892  -23.5218   20.5775 C   0  0  0  0  0  0
  -30.3877  -17.5438   20.4285 C   0  0  0  0  0  0
  -28.0492  -24.6960   20.0284 C   0  0  0  0  0  0
  -29.6391  -21.3054   19.3054 N   0  0  0  0  0  0
  -28.9874  -19.5692   21.4122 N   0  0  0  0  0  0
  -29.8411  -16.0846   20.5564 N   0  0  0  0  0  0
  -31.4691  -12.6821   19.1915 H   0  0  0  0  0  0
  -30.3994  -11.5892   20.0214 H   0  0  0  0  0  0
  -29.8225  -11.7281   17.5691 H   0  0  0  0  0  0
  -29.6214  -13.4577   17.7010 H   0  0  0  0  0  0
  -27.9260  -11.2788   18.9583 H   0  0  0  0  0  0
  -27.3859  -12.4765   17.8111 H   0  0  0  0  0  0
  -27.6004  -14.2534   19.4256 H   0  0  0  0  0  0
  -28.7425  -12.2836   21.4654 H   0  0  0  0  0  0
  -28.3826  -13.9704   21.7563 H   0  0  0  0  0  0
  -25.2767   -9.5693   22.4768 H   0  0  0  0  0  0
  -24.0009   -7.4640   22.7479 H   0  0  0  0  0  0
  -21.0847   -8.8777   19.8954 H   0  0  0  0  0  0
  -22.3702  -10.9679   19.6168 H   0  0  0  0  0  0
  -21.2017   -7.6147   23.9716 H   0  0  0  0  0  0
  -21.1479   -6.0524   25.9077 H   0  0  0  0  0  0
  -22.0596   -2.7608   23.2849 H   0  0  0  0  0  0
  -22.4074  -11.9868   22.4818 H   0  0  0  0  0  0
  -21.1066  -13.1223   22.2649 H   0  0  0  0  0  0
  -24.6372  -15.8420   20.5195 H   0  0  0  0  0  0
  -26.2506  -15.6392   20.0650 H   0  0  0  0  0  0
  -26.7255  -32.5332   23.1028 H   0  0  0  0  0  0
  -25.0062  -33.9632   25.0337 H   0  0  0  0  0  0
  -22.7426  -31.2922   21.3815 H   0  0  0  0  0  0
  -23.3752  -35.9597   23.3295 H   0  0  0  0  0  0
  -24.3575  -36.8903   22.2060 H   0  0  0  0  0  0
  -23.7238  -37.6457   23.6679 H   0  0  0  0  0  0
  -26.1479  -31.4873   20.6118 H   0  0  0  0  0  0
  -26.8671  -30.7816   22.0245 H   0  0  0  0  0  0
  -28.1272  -28.8316   21.2307 H   0  0  0  0  0  0
  -25.9355  -25.8614   18.9921 H   0  0  0  0  0  0
  -23.9829  -27.3021   18.9762 H   0  0  0  0  0  0
  -23.7999  -30.5718   19.3959 H   0  0  0  0  0  0
  -22.7823  -29.2375   19.8438 H   0  0  0  0  0  0
  -25.1303  -36.1885   25.0813 H   0  0  0  0  0  0
  -21.0019  -28.3315   24.1358 H   0  0  0  0  0  0
  -20.5672  -26.2337   23.3623 H   0  0  0  0  0  0
  -21.6650  -26.7426   22.1206 H   0  0  0  0  0  0
  -19.6907  -25.6291   21.1256 H   0  0  0  0  0  0
  -19.6688  -27.3185   20.6735 H   0  0  0  0  0  0
  -17.4206  -26.6692   21.4033 H   0  0  0  0  0  0
  -18.0338  -26.0076   22.9025 H   0  0  0  0  0  0
  -19.7946  -30.7301   24.2243 H   0  0  0  0  0  0
  -17.5018  -31.6267   24.5178 H   0  0  0  0  0  0
  -15.5359  -30.2987   23.7656 H   0  0  0  0  0  0
  -15.8692  -28.0820   22.7076 H   0  0  0  0  0  0
  -24.5894  -30.7076   25.7749 H   0  0  0  0  0  0
  -24.8868  -32.2922   26.4797 H   0  0  0  0  0  0
  -25.7998  -30.8963   27.0238 H   0  0  0  0  0  0
  -26.2971  -29.6702   24.1279 H   0  0  0  0  0  0
  -27.3980  -29.7262   25.4840 H   0  0  0  0  0  0
  -27.8883  -30.4208   23.9583 H   0  0  0  0  0  0
  -27.2647  -33.3656   26.2026 H   0  0  0  0  0  0
  -28.3884  -32.6864   25.0343 H   0  0  0  0  0  0
  -28.0688  -31.8493   26.5460 H   0  0  0  0  0  0
  -28.2594  -38.0090   24.7510 H   0  0  0  0  0  0
  -28.1075  -36.2619   24.6296 H   0  0  0  0  0  0
  -27.2298  -37.1447   25.8873 H   0  0  0  0  0  0
  -20.9447  -29.8775   21.6800 H   0  0  0  0  0  0
  -26.0157  -38.2827   24.1401 H   0  0  0  0  0  0
  -30.4875  -19.6097   18.4252 H   0  0  0  0  0  0
  -27.2876  -22.1724   22.5032 H   0  0  0  0  0  0
  -28.7980  -21.8738   23.3729 H   0  0  0  0  0  0
  -27.5717  -20.6063   23.2579 H   0  0  0  0  0  0
  -30.0694  -23.8017   20.1927 H   0  0  0  0  0  0
  -29.1813  -23.6912   21.6494 H   0  0  0  0  0  0
  -31.0874  -17.6536   21.2574 H   0  0  0  0  0  0
  -31.0289  -17.5153   19.5465 H   0  0  0  0  0  0
  -27.0767  -24.4615   20.4612 H   0  0  0  0  0  0
  -27.9363  -24.5441   18.9545 H   0  0  0  0  0  0
  -28.8518  -15.9958   20.7332 H   0  0  0  0  0  0
  1 25  1  0  0  0
  1 30  2  0  0  0
  1 81  1  0  0  0
  2  3  1  0  0  0
  2 25  1  0  0  0
  2 82  1  0  0  0
  2 83  1  0  0  0
  3  4  1  0  0  0
  3 84  1  0  0  0
  3 85  1  0  0  0
  4  5  1  0  0  0
  4 86  1  0  0  0
  4 87  1  0  0  0
  5  6  1  0  0  0
  5 26  1  0  0  0
  5 88  1  0  0  0
  6 25  1  0  0  0
  6 89  1  0  0  0
  6 90  1  0  0  0
  7  8  2  0  0  0
  7 26  1  0  0  0
  7 29  1  0  0  0
  8  9  1  0  0  0
  8 22  1  0  0  0
  9 10  1  0  0  0
  9 27  2  0  0  0
 10 11  2  0  0  0
 10 15  1  0  0  0
 11 12  1  0  0  0
 11 91  1  0  0  0
 12 13  2  0  0  0
 12 92  1  0  0  0
 13 14  1  0  0  0
 13 31  1  0  0  0
 14 15  2  0  0  0
 14 93  1  0  0  0
 15 94  1  0  0  0
 16 17  2  0  0  0
 16 21  1  0  0  0
 16 31  1  0  0  0
 17 18  1  0  0  0
 17 95  1  0  0  0
 18 19  2  0  0  0
 18 96  1  0  0  0
 19 20  1  0  0  0
 19 24  1  0  0  0
 20 21  2  0  0  0
 20 97  1  0  0  0
 21 23  1  0  0  0
 22 28  1  0  0  0
 22 32  2  0  0  0
 26 27  1  0  0  0
 28 98  1  0  0  0
 28 99  1  0  0  0
 29100  1  0  0  0
 29101  1  0  0  0
 33 34  1  0  0  0
 33 66  1  0  0  0
 33 70  2  0  0  0
 34 36  1  0  0  0
 34 59  1  0  0  0
 34102  1  0  0  0
 35 44  2  0  0  0
 35 45  1  0  0  0
 35 68  1  0  0  0
 36 56  1  0  0  0
 36103  1  0  0  0
 37 39  1  0  0  0
 37 47  1  0  0  0
 37 66  1  0  0  0
 37104  1  0  0  0
 38 43  2  0  0  0
 38 46  1  0  0  0
 38 47  1  0  0  0
 39 64  1  0  0  0
 39 67  2  0  0  0
 40 52  1  0  0  0
 40 53  2  0  0  0
 40 58  1  0  0  0
 41105  1  0  0  0
 41106  1  0  0  0
 41107  1  0  0  0
 41 48  1  0  0  0
 42 43  1  0  0  0
 42 66  1  0  0  0
 42108  1  0  0  0
 42109  1  0  0  0
 43 44  1  0  0  0
 44110  1  0  0  0
 45 46  2  0  0  0
 45111  1  0  0  0
 46112  1  0  0  0
 47113  1  0  0  0
 47114  1  0  0  0
 48 56  1  0  0  0
 48 65  1  0  0  0
 48115  1  0  0  0
 49 50  1  0  0  0
 49 53  1  0  0  0
 49 64  1  0  0  0
 49116  1  0  0  0
 50 51  1  0  0  0
 50117  1  0  0  0
 50118  1  0  0  0
 51 52  1  0  0  0
 51119  1  0  0  0
 51120  1  0  0  0
 52121  1  0  0  0
 52122  1  0  0  0
 53 54  1  0  0  0
 54 55  2  0  0  0
 54123  1  0  0  0
 55 57  1  0  0  0
 55124  1  0  0  0
 56 69  2  0  0  0
 57 58  2  0  0  0
 57125  1  0  0  0
 58126  1  0  0  0
 59 60  1  0  0  0
 59 61  1  0  0  0
 59 62  1  0  0  0
 60127  1  0  0  0
 60128  1  0  0  0
 60129  1  0  0  0
 61130  1  0  0  0
 61131  1  0  0  0
 61132  1  0  0  0
 62133  1  0  0  0
 62134  1  0  0  0
 62135  1  0  0  0
 63 65  1  0  0  0
 63136  1  0  0  0
 63137  1  0  0  0
 63138  1  0  0  0
 64139  1  0  0  0
 65140  1  0  0  0
 68 78  1  0  0  0
 71 72  2  0  0  0
 71 79  1  0  0  0
 71141  1  0  0  0
 72 77  1  0  0  0
 72 80  1  0  0  0
 73 74  1  0  0  0
 73 75  1  0  0  0
 73 80  2  0  0  0
 74 76  1  0  0  0
 74 79  2  0  0  0
 75142  1  0  0  0
 75143  1  0  0  0
 75144  1  0  0  0
 76 78  1  0  0  0
 76145  1  0  0  0
 76146  1  0  0  0
 77 81  1  0  0  0
 77147  1  0  0  0
 77148  1  0  0  0
 78149  1  0  0  0
 78150  1  0  0  0
 81151  1  0  0  0
M  ISO  4   1 100  68 101  78 101  81 100
M  END
> <chiral flag>
0

> <version>
0

> <s_m_source_file>
/data/baiqing/PycharmProjects/Reinvent-master-3.2/result/LINK_invent/BTK/process_docking_weight1_custom_sum_contain_oxygen_bond_distance_aromatic_linkinvent_7_9_3/rearranged_h_0052.sdf

> <i_m_source_file_index>
84

> <r_mmod_Potential_Energy-OPLS-2005>
357.853973388672

> <r_mmod_Stretch_Energy-OPLS-2005>
206.406265258789

> <r_mmod_Bend_Energy-OPLS-2005>
243.741744995117

> <r_mmod_Torsional_Energy-OPLS-2005>
211.445068359375

> <r_mmod_Improper_Torsional_Energy-OPLS-2005>
9.5782585144043

> <r_mmod_Van_der_Waal_Energy-OPLS-2005>
137.748184204102

> <r_mmod_Electrostatic_Energy-OPLS-2005>
-379.201599121094

> <r_mmod_Solvation_Energy-OPLS-2005>
-228.192337036133

> <b_mmod_Minimization_Converged-OPLS-2005>
0

> <r_mmod_RMS_Derivative-OPLS-2005>
1.03196740150452

$$$$
84
                    3D
 Structure written by MMmdl.
145153  0  0  1  0            999 V2000
  -30.4596  -15.2261   20.3788 C   0  0  0  0  0  0
  -30.4370  -12.7822   19.5234 C   0  0  0  0  0  0
  -29.5325  -12.5673   18.2846 C   0  0  0  0  0  0
  -28.0795  -12.2992   18.7126 C   0  0  0  0  0  0
  -27.6125  -13.2719   19.8243 C   0  0  2  0  0  0
  -28.6472  -13.4354   20.9580 C   0  0  0  0  0  0
  -25.2390  -13.8243   20.5743 C   0  0  0  0  0  0
  -24.1741  -13.0436   20.9260 C   0  0  0  0  0  0
  -24.6394  -11.6932   20.8767 C   0  0  0  0  0  0
  -23.9087  -10.4292   21.0409 C   0  0  0  0  0  0
  -24.3633   -9.4206   21.9185 C   0  0  0  0  0  0
  -23.6305   -8.2240   22.0751 C   0  0  0  0  0  0
  -22.4286   -8.0282   21.3543 C   0  0  0  0  0  0
  -21.9926   -9.0255   20.4643 C   0  0  0  0  0  0
  -22.7258  -10.2134   20.3056 C   0  0  0  0  0  0
  -21.6856   -6.0738   22.5279 C   0  0  0  0  0  0
  -21.4014   -6.5641   23.8211 C   0  0  0  0  0  0
  -21.3660   -5.6793   24.9174 C   0  0  0  0  0  0
  -21.6045   -4.3056   24.7225 C   0  0  0  0  0  0
  -21.8819   -3.8149   23.4345 C   0  0  0  0  0  0
  -21.9195   -4.6966   22.3403 C   0  0  0  0  0  0
  -22.7760  -13.5190   21.1910 C   0  0  0  0  0  0
  -22.1663   -4.2150   21.0980 F   0  0  0  0  0  0
  -21.5630   -3.4539   25.7737 F   0  0  0  0  0  0
  -29.8838  -13.9284   20.3315 N   0  0  0  0  0  0
  -26.2817  -12.9511   20.3224 N   0  0  0  0  0  0
  -25.9329  -11.6621   20.5727 N   0  0  0  0  0  0
  -22.0423  -12.8166   22.0464 N   0  0  0  0  0  0
  -25.4025  -15.1974   20.4165 N   0  0  0  0  0  0
  -31.6803  -15.2231   20.1691 O   0  0  0  0  0  0
  -21.6646   -6.8882   21.4241 O   0  0  0  0  0  0
  -22.3438  -14.5494   20.6755 O   0  0  0  0  0  0
  -24.6617  -31.8260   23.1733 C   0  0  0  0  0  0
  -25.9307  -32.4601   23.8186 C   0  0  1  0  0  0
  -27.2141  -26.9475   20.1786 C   0  0  0  0  0  0
  -25.5984  -33.8414   24.2088 N   0  0  0  0  0  0
  -23.4752  -30.4398   21.5221 C   0  0  2  0  0  0
  -24.9283  -28.8349   20.1114 C   0  0  0  0  0  0
  -22.7659  -29.4455   22.4787 C   0  0  0  0  0  0
  -18.0320  -28.1411   22.8474 C   0  0  0  0  0  0
  -24.1487  -36.7200   23.2645 C   0  0  0  0  0  0
  -26.0446  -30.6391   21.4017 C   0  0  0  0  0  0
  -26.1127  -29.2320   20.7445 C   0  0  0  0  0  0
  -27.2521  -28.3092   20.7549 C   0  0  0  0  0  0
  -26.0008  -26.7042   19.4941 C   0  0  0  0  0  0
  -24.8968  -27.5908   19.4658 C   0  0  0  0  0  0
  -23.7139  -29.7599   20.1470 C   0  0  0  0  0  0
  -25.4127  -36.2970   24.0302 C   0  0  1  0  0  0
  -20.5945  -28.3751   23.1190 C   0  0  2  0  0  0
  -20.6796  -26.9434   22.5402 C   0  0  0  0  0  0
  -19.5768  -26.6383   21.5216 C   0  0  0  0  0  0
  -18.1951  -26.7946   22.1628 C   0  0  0  0  0  0
  -19.1583  -28.8902   23.2820 C   0  0  0  0  0  0
  -18.9495  -30.1491   23.8854 C   0  0  0  0  0  0
  -17.6489  -30.6603   24.0555 C   0  0  0  0  0  0
  -25.9098  -34.9357   23.5013 C   0  0  0  0  0  0
  -16.5377  -29.9091   23.6348 C   0  0  0  0  0  0
  -16.7303  -28.6511   23.0371 C   0  0  0  0  0  0
  -26.4564  -31.6543   25.0707 C   0  0  0  0  0  0
  -25.3698  -31.3798   26.1369 C   0  0  0  0  0  0
  -27.0452  -30.2908   24.6437 C   0  0  0  0  0  0
  -27.6053  -32.4354   25.7510 C   0  0  0  0  0  0
  -27.5563  -37.1754   24.8467 C   0  0  0  0  0  0
  -21.4331  -29.3043   22.3537 N   0  0  0  0  0  0
  -26.4269  -37.3708   23.9417 N   0  0  0  0  0  0
  -24.7482  -30.9944   22.0859 N   0  0  0  0  0  0
  -23.4217  -28.8020   23.3019 O   0  0  0  0  0  0
  -28.1982  -25.8299   20.2604 O   0  0  0  0  0  0
  -26.5700  -34.8890   22.4604 O   0  0  0  0  0  0
  -23.5691  -32.1218   23.6840 O   0  0  0  0  0  0
  -28.8544  -21.7621   19.1335 C   0  0  0  0  0  0
  -28.7317  -21.8259   21.3784 C   0  0  0  0  0  0
  -28.5759  -22.6882   20.2176 C   0  0  0  0  0  0
  -29.3390  -19.6493   20.3362 C   0  0  0  0  0  0
  -27.8062  -24.2519   20.0698 C   0  0  0  0  0  0
  -30.1315  -18.0961   20.3966 C   0  0  0  0  0  0
  -29.2210  -20.3898   19.1911 N   0  0  0  0  0  0
  -29.1064  -20.4494   21.4277 N   0  0  0  0  0  0
  -29.7160  -16.4971   20.4587 N   0  0  0  0  0  0
  -31.4581  -12.9783   19.1934 H   0  0  0  0  0  0
  -30.4938  -11.8738   20.1253 H   0  0  0  0  0  0
  -29.9054  -11.7399   17.6793 H   0  0  0  0  0  0
  -29.5686  -13.4539   17.6496 H   0  0  0  0  0  0
  -28.0303  -11.2738   19.0813 H   0  0  0  0  0  0
  -27.4106  -12.3480   17.8527 H   0  0  0  0  0  0
  -27.5317  -14.2412   19.3315 H   0  0  0  0  0  0
  -28.8059  -12.4990   21.4947 H   0  0  0  0  0  0
  -28.2930  -14.1601   21.6931 H   0  0  0  0  0  0
  -25.2773   -9.5684   22.4765 H   0  0  0  0  0  0
  -24.0015   -7.4629   22.7466 H   0  0  0  0  0  0
  -21.0858   -8.8775   19.8944 H   0  0  0  0  0  0
  -22.3713  -10.9675   19.6169 H   0  0  0  0  0  0
  -21.2004   -7.6148   23.9714 H   0  0  0  0  0  0
  -21.1484   -6.0523   25.9076 H   0  0  0  0  0  0
  -22.0598   -2.7611   23.2844 H   0  0  0  0  0  0
  -22.4063  -11.9835   22.4848 H   0  0  0  0  0  0
  -21.1033  -13.1161   22.2674 H   0  0  0  0  0  0
  -24.6289  -15.8451   20.5211 H   0  0  0  0  0  0
  -26.2386  -15.6365   20.0548 H   0  0  0  0  0  0
  -26.7376  -32.5144   23.0902 H   0  0  0  0  0  0
  -25.0096  -33.9496   25.0216 H   0  0  0  0  0  0
  -22.7877  -31.2712   21.3541 H   0  0  0  0  0  0
  -23.3765  -35.9515   23.3288 H   0  0  0  0  0  0
  -24.3564  -36.8864   22.2064 H   0  0  0  0  0  0
  -23.7232  -37.6379   23.6711 H   0  0  0  0  0  0
  -26.2239  -31.3828   20.6239 H   0  0  0  0  0  0
  -26.9049  -30.6931   22.0569 H   0  0  0  0  0  0
  -28.1465  -28.6104   21.2814 H   0  0  0  0  0  0
  -25.8583  -25.7579   18.9955 H   0  0  0  0  0  0
  -23.9976  -27.2811   18.9508 H   0  0  0  0  0  0
  -23.8681  -30.5300   19.3903 H   0  0  0  0  0  0
  -22.8240  -29.2137   19.8291 H   0  0  0  0  0  0
  -25.1327  -36.1761   25.0794 H   0  0  0  0  0  0
  -21.0035  -28.3357   24.1312 H   0  0  0  0  0  0
  -20.5672  -26.2372   23.3642 H   0  0  0  0  0  0
  -21.6658  -26.7411   22.1206 H   0  0  0  0  0  0
  -19.6922  -25.6284   21.1271 H   0  0  0  0  0  0
  -19.6700  -27.3170   20.6727 H   0  0  0  0  0  0
  -17.4215  -26.6690   21.4034 H   0  0  0  0  0  0
  -18.0344  -26.0099   22.9035 H   0  0  0  0  0  0
  -19.7969  -30.7320   24.2203 H   0  0  0  0  0  0
  -17.5042  -31.6279   24.5165 H   0  0  0  0  0  0
  -15.5375  -30.2979   23.7699 H   0  0  0  0  0  0
  -15.8704  -28.0811   22.7118 H   0  0  0  0  0  0
  -24.5890  -30.7133   25.7693 H   0  0  0  0  0  0
  -24.8874  -32.3001   26.4671 H   0  0  0  0  0  0
  -25.7936  -30.9056   27.0229 H   0  0  0  0  0  0
  -26.3117  -29.6591   24.1412 H   0  0  0  0  0  0
  -27.3950  -29.7268   25.5094 H   0  0  0  0  0  0
  -27.9078  -30.4090   23.9875 H   0  0  0  0  0  0
  -27.2617  -33.3696   26.1965 H   0  0  0  0  0  0
  -28.3929  -32.6849   25.0388 H   0  0  0  0  0  0
  -28.0649  -31.8563   26.5530 H   0  0  0  0  0  0
  -28.2566  -38.0062   24.7520 H   0  0  0  0  0  0
  -28.1074  -36.2592   24.6288 H   0  0  0  0  0  0
  -27.2284  -37.1391   25.8870 H   0  0  0  0  0  0
  -20.9579  -29.8736   21.6673 H   0  0  0  0  0  0
  -26.0115  -38.2762   24.1445 H   0  0  0  0  0  0
  -28.7316  -22.1272   18.1245 H   0  0  0  0  0  0
  -28.4991  -22.2451   22.3463 H   0  0  0  0  0  0
  -26.9074  -24.1393   20.6772 H   0  0  0  0  0  0
  -27.4397  -24.2152   19.0440 H   0  0  0  0  0  0
  -30.8052  -18.2030   21.2465 H   0  0  0  0  0  0
  -30.8025  -18.1357   19.5389 H   0  0  0  0  0  0
  -28.7226  -16.3693   20.5746 H   0  0  0  0  0  0
  1 25  1  0  0  0
  1 30  2  0  0  0
  1 79  1  0  0  0
  2  3  1  0  0  0
  2 25  1  0  0  0
  2 80  1  0  0  0
  2 81  1  0  0  0
  3  4  1  0  0  0
  3 82  1  0  0  0
  3 83  1  0  0  0
  4  5  1  0  0  0
  4 84  1  0  0  0
  4 85  1  0  0  0
  5  6  1  0  0  0
  5 26  1  0  0  0
  5 86  1  0  0  0
  6 25  1  0  0  0
  6 87  1  0  0  0
  6 88  1  0  0  0
  7  8  2  0  0  0
  7 26  1  0  0  0
  7 29  1  0  0  0
  8  9  1  0  0  0
  8 22  1  0  0  0
  9 10  1  0  0  0
  9 27  2  0  0  0
 10 11  2  0  0  0
 10 15  1  0  0  0
 11 12  1  0  0  0
 11 89  1  0  0  0
 12 13  2  0  0  0
 12 90  1  0  0  0
 13 14  1  0  0  0
 13 31  1  0  0  0
 14 15  2  0  0  0
 14 91  1  0  0  0
 15 92  1  0  0  0
 16 17  2  0  0  0
 16 21  1  0  0  0
 16 31  1  0  0  0
 17 18  1  0  0  0
 17 93  1  0  0  0
 18 19  2  0  0  0
 18 94  1  0  0  0
 19 20  1  0  0  0
 19 24  1  0  0  0
 20 21  2  0  0  0
 20 95  1  0  0  0
 21 23  1  0  0  0
 22 28  1  0  0  0
 22 32  2  0  0  0
 26 27  1  0  0  0
 28 96  1  0  0  0
 28 97  1  0  0  0
 29 98  1  0  0  0
 29 99  1  0  0  0
 33 34  1  0  0  0
 33 66  1  0  0  0
 33 70  2  0  0  0
 34 36  1  0  0  0
 34 59  1  0  0  0
 34100  1  0  0  0
 35 44  2  0  0  0
 35 45  1  0  0  0
 35 68  1  0  0  0
 36 56  1  0  0  0
 36101  1  0  0  0
 37 39  1  0  0  0
 37 47  1  0  0  0
 37 66  1  0  0  0
 37102  1  0  0  0
 38 43  2  0  0  0
 38 46  1  0  0  0
 38 47  1  0  0  0
 39 64  1  0  0  0
 39 67  2  0  0  0
 40 52  1  0  0  0
 40 53  2  0  0  0
 40 58  1  0  0  0
 41103  1  0  0  0
 41104  1  0  0  0
 41105  1  0  0  0
 41 48  1  0  0  0
 42 43  1  0  0  0
 42 66  1  0  0  0
 42106  1  0  0  0
 42107  1  0  0  0
 43 44  1  0  0  0
 44108  1  0  0  0
 45 46  2  0  0  0
 45109  1  0  0  0
 46110  1  0  0  0
 47111  1  0  0  0
 47112  1  0  0  0
 48 56  1  0  0  0
 48 65  1  0  0  0
 48113  1  0  0  0
 49 50  1  0  0  0
 49 53  1  0  0  0
 49 64  1  0  0  0
 49114  1  0  0  0
 50 51  1  0  0  0
 50115  1  0  0  0
 50116  1  0  0  0
 51 52  1  0  0  0
 51117  1  0  0  0
 51118  1  0  0  0
 52119  1  0  0  0
 52120  1  0  0  0
 53 54  1  0  0  0
 54 55  2  0  0  0
 54121  1  0  0  0
 55 57  1  0  0  0
 55122  1  0  0  0
 56 69  2  0  0  0
 57 58  2  0  0  0
 57123  1  0  0  0
 58124  1  0  0  0
 59 60  1  0  0  0
 59 61  1  0  0  0
 59 62  1  0  0  0
 60125  1  0  0  0
 60126  1  0  0  0
 60127  1  0  0  0
 61128  1  0  0  0
 61129  1  0  0  0
 61130  1  0  0  0
 62131  1  0  0  0
 62132  1  0  0  0
 62133  1  0  0  0
 63 65  1  0  0  0
 63134  1  0  0  0
 63135  1  0  0  0
 63136  1  0  0  0
 64137  1  0  0  0
 65138  1  0  0  0
 68 75  1  0  0  0
 71 73  2  0  0  0
 71 77  1  0  0  0
 71139  1  0  0  0
 72 73  1  0  0  0
 72 78  2  0  0  0
 72140  1  0  0  0
 73 75  1  0  0  0
 74 76  1  0  0  0
 74 77  2  0  0  0
 74 78  1  0  0  0
 75141  1  0  0  0
 75142  1  0  0  0
 76 79  1  0  0  0
 76143  1  0  0  0
 76144  1  0  0  0
 79145  1  0  0  0
M  ISO  4   1 100  68 101  75 101  79 100
M  END
> <chiral flag>
0

> <version>
0

> <s_m_source_file>
/data/baiqing/PycharmProjects/Reinvent-master-3.2/result/LINK_invent/BTK/process_docking_weight1_custom_sum_contain_oxygen_bond_distance_aromatic_linkinvent_7_9_3/rearranged_h_0052.sdf

> <i_m_source_file_index>
85

> <r_mmod_Potential_Energy-OPLS-2005>
584.22021484375

> <r_mmod_Stretch_Energy-OPLS-2005>
473.427337646484

> <r_mmod_Bend_Energy-OPLS-2005>
436.410430908203

> <r_mmod_Torsional_Energy-OPLS-2005>
222.291076660156

> <r_mmod_Improper_Torsional_Energy-OPLS-2005>
11.0635986328125

> <r_mmod_Van_der_Waal_Energy-OPLS-2005>
138.747360229492

> <r_mmod_Electrostatic_Energy-OPLS-2005>
-877.027099609375

> <r_mmod_Solvation_Energy-OPLS-2005>
-247.818649291992

> <b_mmod_Minimization_Converged-OPLS-2005>
0

> <r_mmod_RMS_Derivative-OPLS-2005>
0.564218401908875

$$$$
85
                    3D
 Structure written by MMmdl.
155163  0  0  1  0            999 V2000
  -30.6071  -14.7815   20.5071 C   0  0  0  0  0  0
  -30.4379  -12.4901   19.4911 C   0  0  0  0  0  0
  -29.5205  -12.5237   18.2476 C   0  0  0  0  0  0
  -28.0461  -12.3374   18.6501 C   0  0  0  0  0  0
  -27.6418  -13.2345   19.8493 C   0  0  2  0  0  0
  -28.6763  -13.1604   20.9907 C   0  0  0  0  0  0
  -25.2514  -13.8199   20.5687 C   0  0  0  0  0  0
  -24.1797  -13.0441   20.9178 C   0  0  0  0  0  0
  -24.6385  -11.6916   20.8718 C   0  0  0  0  0  0
  -23.9057  -10.4293   21.0390 C   0  0  0  0  0  0
  -24.3613   -9.4210   21.9163 C   0  0  0  0  0  0
  -23.6293   -8.2247   22.0745 C   0  0  0  0  0  0
  -22.4273   -8.0279   21.3541 C   0  0  0  0  0  0
  -21.9899   -9.0252   20.4643 C   0  0  0  0  0  0
  -22.7227  -10.2133   20.3041 C   0  0  0  0  0  0
  -21.6864   -6.0721   22.5266 C   0  0  0  0  0  0
  -21.4021   -6.5625   23.8200 C   0  0  0  0  0  0
  -21.3666   -5.6777   24.9166 C   0  0  0  0  0  0
  -21.6056   -4.3040   24.7212 C   0  0  0  0  0  0
  -21.8824   -3.8129   23.4332 C   0  0  0  0  0  0
  -21.9196   -4.6947   22.3388 C   0  0  0  0  0  0
  -22.7818  -13.5224   21.1847 C   0  0  0  0  0  0
  -22.1663   -4.2133   21.0967 F   0  0  0  0  0  0
  -21.5636   -3.4524   25.7727 F   0  0  0  0  0  0
  -29.9795  -13.5475   20.4298 N   0  0  0  0  0  0
  -26.2928  -12.9410   20.3241 N   0  0  0  0  0  0
  -25.9314  -11.6555   20.5707 N   0  0  0  0  0  0
  -22.0473  -12.8223   22.0417 N   0  0  0  0  0  0
  -25.4252  -15.1925   20.4181 N   0  0  0  0  0  0
  -31.7508  -14.8878   20.0525 O   0  0  0  0  0  0
  -21.6648   -6.8866   21.4232 O   0  0  0  0  0  0
  -22.3489  -14.5517   20.6680 O   0  0  0  0  0  0
  -24.6339  -31.8552   23.1967 C   0  0  0  0  0  0
  -25.9154  -32.4759   23.8323 C   0  0  1  0  0  0
  -27.2170  -27.2403   20.1402 C   0  0  0  0  0  0
  -25.5944  -33.8564   24.2245 N   0  0  0  0  0  0
  -23.4326  -30.4756   21.5427 C   0  0  2  0  0  0
  -24.8806  -28.9233   20.1125 C   0  0  0  0  0  0
  -22.7540  -29.4583   22.4919 C   0  0  0  0  0  0
  -18.0294  -28.1410   22.8477 C   0  0  0  0  0  0
  -24.1489  -36.7273   23.2636 C   0  0  0  0  0  0
  -25.9805  -30.7623   21.3803 C   0  0  0  0  0  0
  -26.0555  -29.3826   20.7237 C   0  0  0  0  0  0
  -27.2288  -28.5555   20.7244 C   0  0  0  0  0  0
  -26.0247  -26.8665   19.4807 C   0  0  0  0  0  0
  -24.8721  -27.6731   19.4788 C   0  0  0  0  0  0
  -23.6526  -29.8127   20.1580 C   0  0  0  0  0  0
  -25.4119  -36.3075   24.0321 C   0  0  1  0  0  0
  -20.5902  -28.3711   23.1270 C   0  0  2  0  0  0
  -20.6784  -26.9427   22.5410 C   0  0  0  0  0  0
  -19.5757  -26.6389   21.5223 C   0  0  0  0  0  0
  -18.1933  -26.7939   22.1628 C   0  0  0  0  0  0
  -19.1551  -28.8879   23.2856 C   0  0  0  0  0  0
  -18.9471  -30.1478   23.8877 C   0  0  0  0  0  0
  -17.6471  -30.6602   24.0566 C   0  0  0  0  0  0
  -25.9067  -34.9449   23.5083 C   0  0  0  0  0  0
  -16.5361  -29.9106   23.6336 C   0  0  0  0  0  0
  -16.7277  -28.6530   23.0343 C   0  0  0  0  0  0
  -26.4517  -31.6595   25.0723 C   0  0  0  0  0  0
  -25.3728  -31.3770   26.1436 C   0  0  0  0  0  0
  -27.0370  -30.3009   24.6223 C   0  0  0  0  0  0
  -27.6061  -32.4351   25.7504 C   0  0  0  0  0  0
  -27.5575  -37.1785   24.8469 C   0  0  0  0  0  0
  -21.4243  -29.3052   22.3667 N   0  0  0  0  0  0
  -26.4287  -37.3778   23.9418 N   0  0  0  0  0  0
  -24.7018  -31.0499   22.0957 N   0  0  0  0  0  0
  -23.4227  -28.8119   23.3025 O   0  0  0  0  0  0
  -28.2698  -26.2897   20.1891 O   0  0  0  0  0  0
  -26.5642  -34.8925   22.4659 O   0  0  0  0  0  0
  -23.5479  -32.1389   23.7235 O   0  0  0  0  0  0
  -28.7798  -23.6441   20.4258 C   0  0  0  0  0  0
  -30.4080  -22.2811   20.3618 C   0  0  0  0  0  0
  -31.7872  -21.7152   20.2773 C   0  0  0  0  0  0
  -29.5421  -16.1222   22.2701 C   0  0  0  0  0  0
  -27.8859  -24.9242   20.7251 C   0  0  0  0  0  0
  -29.6291  -18.7476   20.7472 C   0  0  0  0  0  0
  -29.1875  -20.0181   19.8214 C   0  0  0  0  0  0
  -29.8047  -17.2614   20.0632 C   0  0  0  0  0  0
  -30.1486  -23.5970   20.5146 N   0  0  0  0  0  0
  -28.2490  -22.3966   20.2528 N   0  0  0  0  0  0
  -29.3184  -21.4990   20.2302 N   0  0  0  0  0  0
  -29.8815  -15.9343   20.8582 N   0  0  0  0  0  0
  -31.4782  -12.6194   19.1908 H   0  0  0  0  0  0
  -30.3945  -11.5122   19.9732 H   0  0  0  0  0  0
  -29.8167  -11.7448   17.5433 H   0  0  0  0  0  0
  -29.6422  -13.4729   17.7228 H   0  0  0  0  0  0
  -27.9082  -11.2876   18.9124 H   0  0  0  0  0  0
  -27.3939  -12.5269   17.7965 H   0  0  0  0  0  0
  -27.6409  -14.2605   19.4786 H   0  0  0  0  0  0
  -28.7194  -12.1535   21.4094 H   0  0  0  0  0  0
  -28.3676  -13.8103   21.8070 H   0  0  0  0  0  0
  -25.2776   -9.5692   22.4707 H   0  0  0  0  0  0
  -24.0013   -7.4643   22.7461 H   0  0  0  0  0  0
  -21.0827   -8.8767   19.8946 H   0  0  0  0  0  0
  -22.3691  -10.9660   19.6130 H   0  0  0  0  0  0
  -21.2010   -7.6133   23.9701 H   0  0  0  0  0  0
  -21.1494   -6.0504   25.9074 H   0  0  0  0  0  0
  -22.0595   -2.7584   23.2836 H   0  0  0  0  0  0
  -22.4122  -11.9926   22.4857 H   0  0  0  0  0  0
  -21.1074  -13.1229   22.2592 H   0  0  0  0  0  0
  -24.6655  -15.8526   20.5429 H   0  0  0  0  0  0
  -26.2921  -15.6316   20.1340 H   0  0  0  0  0  0
  -26.7221  -32.5399   23.1065 H   0  0  0  0  0  0
  -25.0116  -33.9720   25.0406 H   0  0  0  0  0  0
  -22.7286  -31.2968   21.3964 H   0  0  0  0  0  0
  -23.3764  -35.9592   23.3309 H   0  0  0  0  0  0
  -24.3566  -36.8888   22.2045 H   0  0  0  0  0  0
  -23.7226  -37.6465   23.6665 H   0  0  0  0  0  0
  -26.1184  -31.5188   20.6055 H   0  0  0  0  0  0
  -26.8585  -30.8156   22.0120 H   0  0  0  0  0  0
  -28.1251  -28.9020   21.2204 H   0  0  0  0  0  0
  -25.9625  -25.9153   18.9731 H   0  0  0  0  0  0
  -23.9770  -27.3202   18.9859 H   0  0  0  0  0  0
  -23.7835  -30.5909   19.4048 H   0  0  0  0  0  0
  -22.7715  -29.2490   19.8470 H   0  0  0  0  0  0
  -25.1300  -36.1916   25.0809 H   0  0  0  0  0  0
  -20.9969  -28.3278   24.1402 H   0  0  0  0  0  0
  -20.5708  -26.2316   23.3615 H   0  0  0  0  0  0
  -21.6647  -26.7463   22.1187 H   0  0  0  0  0  0
  -19.6923  -25.6301   21.1252 H   0  0  0  0  0  0
  -19.6695  -27.3202   20.6755 H   0  0  0  0  0  0
  -17.4201  -26.6675   21.4028 H   0  0  0  0  0  0
  -18.0330  -26.0102   22.9044 H   0  0  0  0  0  0
  -19.7952  -30.7294   24.2227 H   0  0  0  0  0  0
  -17.5038  -31.6276   24.5185 H   0  0  0  0  0  0
  -15.5367  -30.3012   23.7684 H   0  0  0  0  0  0
  -15.8668  -28.0861   22.7060 H   0  0  0  0  0  0
  -24.5895  -30.7132   25.7764 H   0  0  0  0  0  0
  -24.8933  -32.2956   26.4831 H   0  0  0  0  0  0
  -25.8020  -30.8962   27.0235 H   0  0  0  0  0  0
  -26.2961  -29.6752   24.1225 H   0  0  0  0  0  0
  -27.4038  -29.7278   25.4747 H   0  0  0  0  0  0
  -27.8852  -30.4297   23.9493 H   0  0  0  0  0  0
  -27.2658  -33.3660   26.2064 H   0  0  0  0  0  0
  -28.3882  -32.6896   25.0339 H   0  0  0  0  0  0
  -28.0731  -31.8492   26.5435 H   0  0  0  0  0  0
  -28.2593  -38.0079   24.7519 H   0  0  0  0  0  0
  -28.1063  -36.2603   24.6302 H   0  0  0  0  0  0
  -27.2286  -37.1447   25.8869 H   0  0  0  0  0  0
  -20.9450  -29.8786   21.6865 H   0  0  0  0  0  0
  -26.0161  -38.2844   24.1442 H   0  0  0  0  0  0
  -31.9655  -21.3147   19.2778 H   0  0  0  0  0  0
  -31.9134  -20.9151   21.0046 H   0  0  0  0  0  0
  -32.5349  -22.4820   20.4816 H   0  0  0  0  0  0
  -28.4938  -16.4054   22.3767 H   0  0  0  0  0  0
  -30.1599  -16.9054   22.7100 H   0  0  0  0  0  0
  -29.7067  -15.2299   22.8753 H   0  0  0  0  0  0
  -27.8651  -25.0351   21.8096 H   0  0  0  0  0  0
  -26.8651  -24.6547   20.4600 H   0  0  0  0  0  0
  -28.8943  -18.6864   21.5500 H   0  0  0  0  0  0
  -30.5706  -18.9921   21.2393 H   0  0  0  0  0  0
  -28.1476  -19.8625   19.5313 H   0  0  0  0  0  0
  -29.7425  -19.9300   18.8877 H   0  0  0  0  0  0
  -30.6742  -17.3038   19.4055 H   0  0  0  0  0  0
  -28.9571  -17.1271   19.3904 H   0  0  0  0  0  0
  1 25  1  0  0  0
  1 30  2  0  0  0
  1 82  1  0  0  0
  2  3  1  0  0  0
  2 25  1  0  0  0
  2 83  1  0  0  0
  2 84  1  0  0  0
  3  4  1  0  0  0
  3 85  1  0  0  0
  3 86  1  0  0  0
  4  5  1  0  0  0
  4 87  1  0  0  0
  4 88  1  0  0  0
  5  6  1  0  0  0
  5 26  1  0  0  0
  5 89  1  0  0  0
  6 25  1  0  0  0
  6 90  1  0  0  0
  6 91  1  0  0  0
  7  8  2  0  0  0
  7 26  1  0  0  0
  7 29  1  0  0  0
  8  9  1  0  0  0
  8 22  1  0  0  0
  9 10  1  0  0  0
  9 27  2  0  0  0
 10 11  2  0  0  0
 10 15  1  0  0  0
 11 12  1  0  0  0
 11 92  1  0  0  0
 12 13  2  0  0  0
 12 93  1  0  0  0
 13 14  1  0  0  0
 13 31  1  0  0  0
 14 15  2  0  0  0
 14 94  1  0  0  0
 15 95  1  0  0  0
 16 17  2  0  0  0
 16 21  1  0  0  0
 16 31  1  0  0  0
 17 18  1  0  0  0
 17 96  1  0  0  0
 18 19  2  0  0  0
 18 97  1  0  0  0
 19 20  1  0  0  0
 19 24  1  0  0  0
 20 21  2  0  0  0
 20 98  1  0  0  0
 21 23  1  0  0  0
 22 28  1  0  0  0
 22 32  2  0  0  0
 26 27  1  0  0  0
 28 99  1  0  0  0
 28100  1  0  0  0
 29101  1  0  0  0
 29102  1  0  0  0
 33 34  1  0  0  0
 33 66  1  0  0  0
 33 70  2  0  0  0
 34 36  1  0  0  0
 34 59  1  0  0  0
 34103  1  0  0  0
 35 44  2  0  0  0
 35 45  1  0  0  0
 35 68  1  0  0  0
 36 56  1  0  0  0
 36104  1  0  0  0
 37 39  1  0  0  0
 37 47  1  0  0  0
 37 66  1  0  0  0
 37105  1  0  0  0
 38 43  2  0  0  0
 38 46  1  0  0  0
 38 47  1  0  0  0
 39 64  1  0  0  0
 39 67  2  0  0  0
 40 52  1  0  0  0
 40 53  2  0  0  0
 40 58  1  0  0  0
 41106  1  0  0  0
 41107  1  0  0  0
 41108  1  0  0  0
 41 48  1  0  0  0
 42 43  1  0  0  0
 42 66  1  0  0  0
 42109  1  0  0  0
 42110  1  0  0  0
 43 44  1  0  0  0
 44111  1  0  0  0
 45 46  2  0  0  0
 45112  1  0  0  0
 46113  1  0  0  0
 47114  1  0  0  0
 47115  1  0  0  0
 48 56  1  0  0  0
 48 65  1  0  0  0
 48116  1  0  0  0
 49 50  1  0  0  0
 49 53  1  0  0  0
 49 64  1  0  0  0
 49117  1  0  0  0
 50 51  1  0  0  0
 50118  1  0  0  0
 50119  1  0  0  0
 51 52  1  0  0  0
 51120  1  0  0  0
 51121  1  0  0  0
 52122  1  0  0  0
 52123  1  0  0  0
 53 54  1  0  0  0
 54 55  2  0  0  0
 54124  1  0  0  0
 55 57  1  0  0  0
 55125  1  0  0  0
 56 69  2  0  0  0
 57 58  2  0  0  0
 57126  1  0  0  0
 58127  1  0  0  0
 59 60  1  0  0  0
 59 61  1  0  0  0
 59 62  1  0  0  0
 60128  1  0  0  0
 60129  1  0  0  0
 60130  1  0  0  0
 61131  1  0  0  0
 61132  1  0  0  0
 61133  1  0  0  0
 62134  1  0  0  0
 62135  1  0  0  0
 62136  1  0  0  0
 63 65  1  0  0  0
 63137  1  0  0  0
 63138  1  0  0  0
 63139  1  0  0  0
 64140  1  0  0  0
 65141  1  0  0  0
 68 75  1  0  0  0
 71 75  1  0  0  0
 71 79  1  0  0  0
 71 80  2  0  0  0
 72 73  1  0  0  0
 72 79  2  0  0  0
 72 81  1  0  0  0
 73142  1  0  0  0
 73143  1  0  0  0
 73144  1  0  0  0
 74 82  1  0  0  0
 74145  1  0  0  0
 74146  1  0  0  0
 74147  1  0  0  0
 75148  1  0  0  0
 75149  1  0  0  0
 76 77  1  0  0  0
 76 78  1  0  0  0
 76150  1  0  0  0
 76151  1  0  0  0
 77 81  1  0  0  0
 77152  1  0  0  0
 77153  1  0  0  0
 78 82  1  0  0  0
 78154  1  0  0  0
 78155  1  0  0  0
 80 81  1  0  0  0
M  ISO  4   1 100  68 101  75 101  82 100
M  END
> <chiral flag>
0

> <version>
0

> <s_m_source_file>
/data/baiqing/PycharmProjects/Reinvent-master-3.2/result/LINK_invent/BTK/process_docking_weight1_custom_sum_contain_oxygen_bond_distance_aromatic_linkinvent_7_9_3/rearranged_h_0052.sdf

> <i_m_source_file_index>
86

> <r_mmod_Potential_Energy-OPLS-2005>
404.264007568359

> <r_mmod_Stretch_Energy-OPLS-2005>
149.700302124023

> <r_mmod_Bend_Energy-OPLS-2005>
198.604507446289

> <r_mmod_Torsional_Energy-OPLS-2005>
313.65380859375

> <r_mmod_Improper_Torsional_Energy-OPLS-2005>
9.00153541564941

> <r_mmod_Van_der_Waal_Energy-OPLS-2005>
118.722129821777

> <r_mmod_Electrostatic_Energy-OPLS-2005>
-267.601379394531

> <r_mmod_Solvation_Energy-OPLS-2005>
-219.648681640625

> <b_mmod_Minimization_Converged-OPLS-2005>
0

> <r_mmod_RMS_Derivative-OPLS-2005>
2.18137621879578

$$$$
86
                    3D
 Structure written by MMmdl.
150158  0  0  1  0            999 V2000
  -30.5943  -14.7388   20.4576 C   0  0  0  0  0  0
  -30.4315  -12.4481   19.4777 C   0  0  0  0  0  0
  -29.5167  -12.5225   18.2353 C   0  0  0  0  0  0
  -28.0375  -12.3503   18.6367 C   0  0  0  0  0  0
  -27.6438  -13.2328   19.8529 C   0  0  2  0  0  0
  -28.6853  -13.1479   20.9914 C   0  0  0  0  0  0
  -25.2523  -13.8193   20.5667 C   0  0  0  0  0  0
  -24.1817  -13.0444   20.9205 C   0  0  0  0  0  0
  -24.6407  -11.6924   20.8738 C   0  0  0  0  0  0
  -23.9081  -10.4299   21.0402 C   0  0  0  0  0  0
  -24.3636   -9.4213   21.9174 C   0  0  0  0  0  0
  -23.6319   -8.2240   22.0742 C   0  0  0  0  0  0
  -22.4298   -8.0274   21.3534 C   0  0  0  0  0  0
  -21.9932   -9.0248   20.4636 C   0  0  0  0  0  0
  -22.7254  -10.2134   20.3049 C   0  0  0  0  0  0
  -21.6847   -6.0743   22.5281 C   0  0  0  0  0  0
  -21.4010   -6.5647   23.8216 C   0  0  0  0  0  0
  -21.3671   -5.6795   24.9176 C   0  0  0  0  0  0
  -21.6048   -4.3058   24.7213 C   0  0  0  0  0  0
  -21.8826   -3.8153   23.4331 C   0  0  0  0  0  0
  -21.9197   -4.6973   22.3394 C   0  0  0  0  0  0
  -22.7833  -13.5219   21.1870 C   0  0  0  0  0  0
  -22.1659   -4.2158   21.0969 F   0  0  0  0  0  0
  -21.5641   -3.4544   25.7725 F   0  0  0  0  0  0
  -29.9883  -13.5030   20.4190 N   0  0  0  0  0  0
  -26.2950  -12.9404   20.3254 N   0  0  0  0  0  0
  -25.9334  -11.6548   20.5722 N   0  0  0  0  0  0
  -22.0472  -12.8208   22.0426 N   0  0  0  0  0  0
  -25.4219  -15.1915   20.4054 N   0  0  0  0  0  0
  -31.7737  -14.8561   20.1142 O   0  0  0  0  0  0
  -21.6653   -6.8880   21.4237 O   0  0  0  0  0  0
  -22.3515  -14.5522   20.6715 O   0  0  0  0  0  0
  -24.6342  -31.8519   23.1970 C   0  0  0  0  0  0
  -25.9168  -32.4733   23.8307 C   0  0  1  0  0  0
  -27.2115  -27.2404   20.1191 C   0  0  0  0  0  0
  -25.5945  -33.8539   24.2211 N   0  0  0  0  0  0
  -23.4284  -30.4779   21.5410 C   0  0  2  0  0  0
  -24.8706  -28.9208   20.1058 C   0  0  0  0  0  0
  -22.7496  -29.4618   22.4908 C   0  0  0  0  0  0
  -18.0294  -28.1378   22.8483 C   0  0  0  0  0  0
  -24.1482  -36.7292   23.2640 C   0  0  0  0  0  0
  -25.9761  -30.7552   21.3804 C   0  0  0  0  0  0
  -26.0426  -29.3778   20.7204 C   0  0  0  0  0  0
  -27.2119  -28.5481   20.7214 C   0  0  0  0  0  0
  -26.0189  -26.8664   19.4578 C   0  0  0  0  0  0
  -24.8640  -27.6731   19.4664 C   0  0  0  0  0  0
  -23.6427  -29.8128   20.1564 C   0  0  0  0  0  0
  -25.4112  -36.3060   24.0312 C   0  0  1  0  0  0
  -20.5893  -28.3710   23.1233 C   0  0  2  0  0  0
  -20.6783  -26.9421   22.5394 C   0  0  0  0  0  0
  -19.5762  -26.6367   21.5201 C   0  0  0  0  0  0
  -18.1943  -26.7919   22.1622 C   0  0  0  0  0  0
  -19.1549  -28.8858   23.2847 C   0  0  0  0  0  0
  -18.9480  -30.1454   23.8874 C   0  0  0  0  0  0
  -17.6485  -30.6578   24.0562 C   0  0  0  0  0  0
  -25.9056  -34.9431   23.5058 C   0  0  0  0  0  0
  -16.5365  -29.9092   23.6331 C   0  0  0  0  0  0
  -16.7286  -28.6495   23.0369 C   0  0  0  0  0  0
  -26.4503  -31.6594   25.0741 C   0  0  0  0  0  0
  -25.3715  -31.3802   26.1466 C   0  0  0  0  0  0
  -27.0356  -30.3001   24.6283 C   0  0  0  0  0  0
  -27.6008  -32.4374   25.7544 C   0  0  0  0  0  0
  -27.5564  -37.1804   24.8455 C   0  0  0  0  0  0
  -21.4199  -29.3073   22.3637 N   0  0  0  0  0  0
  -26.4268  -37.3773   23.9408 N   0  0  0  0  0  0
  -24.6989  -31.0464   22.0961 N   0  0  0  0  0  0
  -23.4185  -28.8152   23.3013 O   0  0  0  0  0  0
  -28.3043  -26.3388   20.1984 O   0  0  0  0  0  0
  -26.5635  -34.8919   22.4632 O   0  0  0  0  0  0
  -23.5490  -32.1342   23.7282 O   0  0  0  0  0  0
  -29.3844  -20.4286   18.8961 C   0  0  0  0  0  0
  -29.2806  -21.8051   18.8854 C   0  0  0  0  0  0
  -29.2118  -20.0097   20.2486 C   0  0  0  0  0  0
  -29.1376  -18.5221   20.8249 C   0  0  0  0  0  0
  -28.9567  -23.7143   20.6714 C   0  0  0  0  0  0
  -30.0688  -17.3199   20.2501 C   0  0  0  0  0  0
  -28.1572  -24.8687   19.8600 C   0  0  0  0  0  0
  -29.0016  -21.1403   20.9928 N   0  0  0  0  0  0
  -29.0166  -22.2667   20.1634 N   0  0  0  0  0  0
  -29.7976  -15.8590   20.6496 N   0  0  0  0  0  0
  -31.4761  -12.5707   19.1876 H   0  0  0  0  0  0
  -30.3638  -11.4649   19.9460 H   0  0  0  0  0  0
  -29.8001  -11.7633   17.5060 H   0  0  0  0  0  0
  -29.6551  -13.4848   17.7398 H   0  0  0  0  0  0
  -27.8808  -11.2980   18.8739 H   0  0  0  0  0  0
  -27.3911  -12.5682   17.7855 H   0  0  0  0  0  0
  -27.6428  -14.2605   19.4910 H   0  0  0  0  0  0
  -28.7166  -12.1436   21.4162 H   0  0  0  0  0  0
  -28.4211  -13.8179   21.8110 H   0  0  0  0  0  0
  -25.2775   -9.5703   22.4759 H   0  0  0  0  0  0
  -24.0036   -7.4639   22.7467 H   0  0  0  0  0  0
  -21.0856   -8.8766   19.8954 H   0  0  0  0  0  0
  -22.3693  -10.9679   19.6172 H   0  0  0  0  0  0
  -21.1989   -7.6153   23.9718 H   0  0  0  0  0  0
  -21.1492   -6.0522   25.9084 H   0  0  0  0  0  0
  -22.0598   -2.7614   23.2822 H   0  0  0  0  0  0
  -22.4091  -11.9873   22.4827 H   0  0  0  0  0  0
  -21.1085  -13.1232   22.2625 H   0  0  0  0  0  0
  -24.6496  -15.8430   20.4978 H   0  0  0  0  0  0
  -26.2629  -15.6261   20.0491 H   0  0  0  0  0  0
  -26.7247  -32.5356   23.1053 H   0  0  0  0  0  0
  -25.0116  -33.9657   25.0369 H   0  0  0  0  0  0
  -22.7283  -31.3037   21.3967 H   0  0  0  0  0  0
  -23.3729  -35.9640   23.3296 H   0  0  0  0  0  0
  -24.3570  -36.8925   22.2054 H   0  0  0  0  0  0
  -23.7239  -37.6491   23.6681 H   0  0  0  0  0  0
  -26.1165  -31.5162   20.6119 H   0  0  0  0  0  0
  -26.8530  -30.7996   22.0150 H   0  0  0  0  0  0
  -28.1028  -28.8899   21.2281 H   0  0  0  0  0  0
  -25.9350  -25.9281   18.9312 H   0  0  0  0  0  0
  -23.9703  -27.3193   18.9713 H   0  0  0  0  0  0
  -23.7691  -30.5900   19.4010 H   0  0  0  0  0  0
  -22.7572  -29.2519   19.8501 H   0  0  0  0  0  0
  -25.1297  -36.1887   25.0803 H   0  0  0  0  0  0
  -20.9983  -28.3296   24.1351 H   0  0  0  0  0  0
  -20.5660  -26.2336   23.3614 H   0  0  0  0  0  0
  -21.6655  -26.7426   22.1204 H   0  0  0  0  0  0
  -19.6927  -25.6268   21.1257 H   0  0  0  0  0  0
  -19.6693  -27.3151   20.6704 H   0  0  0  0  0  0
  -17.4211  -26.6650   21.4031 H   0  0  0  0  0  0
  -18.0352  -26.0050   22.9006 H   0  0  0  0  0  0
  -19.7961  -30.7261   24.2226 H   0  0  0  0  0  0
  -17.5053  -31.6257   24.5175 H   0  0  0  0  0  0
  -15.5375  -30.3007   23.7639 H   0  0  0  0  0  0
  -15.8675  -28.0792   22.7133 H   0  0  0  0  0  0
  -24.5853  -30.7180   25.7826 H   0  0  0  0  0  0
  -24.8965  -32.3006   26.4874 H   0  0  0  0  0  0
  -25.8024  -30.8997   27.0253 H   0  0  0  0  0  0
  -26.2961  -29.6763   24.1256 H   0  0  0  0  0  0
  -27.3930  -29.7278   25.4850 H   0  0  0  0  0  0
  -27.8885  -30.4248   23.9611 H   0  0  0  0  0  0
  -27.2534  -33.3653   26.2103 H   0  0  0  0  0  0
  -28.3842  -32.6975   25.0414 H   0  0  0  0  0  0
  -28.0655  -31.8531   26.5492 H   0  0  0  0  0  0
  -28.2579  -38.0108   24.7498 H   0  0  0  0  0  0
  -28.1057  -36.2630   24.6270 H   0  0  0  0  0  0
  -27.2285  -37.1433   25.8861 H   0  0  0  0  0  0
  -20.9383  -29.8820   21.6854 H   0  0  0  0  0  0
  -26.0135  -38.2839   24.1421 H   0  0  0  0  0  0
  -29.5602  -19.7954   18.0375 H   0  0  0  0  0  0
  -29.3854  -22.4978   18.0619 H   0  0  0  0  0  0
  -28.1031  -18.1945   20.7149 H   0  0  0  0  0  0
  -29.2961  -18.5610   21.9020 H   0  0  0  0  0  0
  -28.5621  -23.6886   21.6872 H   0  0  0  0  0  0
  -29.9909  -24.0409   20.7734 H   0  0  0  0  0  0
  -31.1091  -17.5497   20.4835 H   0  0  0  0  0  0
  -29.9973  -17.3452   19.1618 H   0  0  0  0  0  0
  -27.1161  -24.5660   19.9470 H   0  0  0  0  0  0
  -28.4071  -24.7724   18.8022 H   0  0  0  0  0  0
  -28.8521  -15.6556   20.9365 H   0  0  0  0  0  0
  1 25  1  0  0  0
  1 30  2  0  0  0
  1 80  1  0  0  0
  2  3  1  0  0  0
  2 25  1  0  0  0
  2 81  1  0  0  0
  2 82  1  0  0  0
  3  4  1  0  0  0
  3 83  1  0  0  0
  3 84  1  0  0  0
  4  5  1  0  0  0
  4 85  1  0  0  0
  4 86  1  0  0  0
  5  6  1  0  0  0
  5 26  1  0  0  0
  5 87  1  0  0  0
  6 25  1  0  0  0
  6 88  1  0  0  0
  6 89  1  0  0  0
  7  8  2  0  0  0
  7 26  1  0  0  0
  7 29  1  0  0  0
  8  9  1  0  0  0
  8 22  1  0  0  0
  9 10  1  0  0  0
  9 27  2  0  0  0
 10 11  2  0  0  0
 10 15  1  0  0  0
 11 12  1  0  0  0
 11 90  1  0  0  0
 12 13  2  0  0  0
 12 91  1  0  0  0
 13 14  1  0  0  0
 13 31  1  0  0  0
 14 15  2  0  0  0
 14 92  1  0  0  0
 15 93  1  0  0  0
 16 17  2  0  0  0
 16 21  1  0  0  0
 16 31  1  0  0  0
 17 18  1  0  0  0
 17 94  1  0  0  0
 18 19  2  0  0  0
 18 95  1  0  0  0
 19 20  1  0  0  0
 19 24  1  0  0  0
 20 21  2  0  0  0
 20 96  1  0  0  0
 21 23  1  0  0  0
 22 28  1  0  0  0
 22 32  2  0  0  0
 26 27  1  0  0  0
 28 97  1  0  0  0
 28 98  1  0  0  0
 29 99  1  0  0  0
 29100  1  0  0  0
 33 34  1  0  0  0
 33 66  1  0  0  0
 33 70  2  0  0  0
 34 36  1  0  0  0
 34 59  1  0  0  0
 34101  1  0  0  0
 35 44  2  0  0  0
 35 45  1  0  0  0
 35 68  1  0  0  0
 36 56  1  0  0  0
 36102  1  0  0  0
 37 39  1  0  0  0
 37 47  1  0  0  0
 37 66  1  0  0  0
 37103  1  0  0  0
 38 43  2  0  0  0
 38 46  1  0  0  0
 38 47  1  0  0  0
 39 64  1  0  0  0
 39 67  2  0  0  0
 40 52  1  0  0  0
 40 53  2  0  0  0
 40 58  1  0  0  0
 41104  1  0  0  0
 41105  1  0  0  0
 41106  1  0  0  0
 41 48  1  0  0  0
 42 43  1  0  0  0
 42 66  1  0  0  0
 42107  1  0  0  0
 42108  1  0  0  0
 43 44  1  0  0  0
 44109  1  0  0  0
 45 46  2  0  0  0
 45110  1  0  0  0
 46111  1  0  0  0
 47112  1  0  0  0
 47113  1  0  0  0
 48 56  1  0  0  0
 48 65  1  0  0  0
 48114  1  0  0  0
 49 50  1  0  0  0
 49 53  1  0  0  0
 49 64  1  0  0  0
 49115  1  0  0  0
 50 51  1  0  0  0
 50116  1  0  0  0
 50117  1  0  0  0
 51 52  1  0  0  0
 51118  1  0  0  0
 51119  1  0  0  0
 52120  1  0  0  0
 52121  1  0  0  0
 53 54  1  0  0  0
 54 55  2  0  0  0
 54122  1  0  0  0
 55 57  1  0  0  0
 55123  1  0  0  0
 56 69  2  0  0  0
 57 58  2  0  0  0
 57124  1  0  0  0
 58125  1  0  0  0
 59 60  1  0  0  0
 59 61  1  0  0  0
 59 62  1  0  0  0
 60126  1  0  0  0
 60127  1  0  0  0
 60128  1  0  0  0
 61129  1  0  0  0
 61130  1  0  0  0
 61131  1  0  0  0
 62132  1  0  0  0
 62133  1  0  0  0
 62134  1  0  0  0
 63 65  1  0  0  0
 63135  1  0  0  0
 63136  1  0  0  0
 63137  1  0  0  0
 64138  1  0  0  0
 65139  1  0  0  0
 68 77  1  0  0  0
 71 72  2  0  0  0
 71 73  1  0  0  0
 71140  1  0  0  0
 72 79  1  0  0  0
 72141  1  0  0  0
 73 74  1  0  0  0
 73 78  2  0  0  0
 74 76  1  0  0  0
 74142  1  0  0  0
 74143  1  0  0  0
 75 77  1  0  0  0
 75 79  1  0  0  0
 75144  1  0  0  0
 75145  1  0  0  0
 76 80  1  0  0  0
 76146  1  0  0  0
 76147  1  0  0  0
 77148  1  0  0  0
 77149  1  0  0  0
 78 79  1  0  0  0
 80150  1  0  0  0
M  ISO  4   1 100  68 101  77 101  80 100
M  END
> <chiral flag>
0

> <version>
0

> <s_m_source_file>
/data/baiqing/PycharmProjects/Reinvent-master-3.2/result/LINK_invent/BTK/process_docking_weight1_custom_sum_contain_oxygen_bond_distance_aromatic_linkinvent_7_9_3/rearranged_h_0052.sdf

> <i_m_source_file_index>
87

> <r_mmod_Potential_Energy-OPLS-2005>
121.614105224609

> <r_mmod_Stretch_Energy-OPLS-2005>
129.037048339844

> <r_mmod_Bend_Energy-OPLS-2005>
166.539764404297

> <r_mmod_Torsional_Energy-OPLS-2005>
214.51432800293

> <r_mmod_Improper_Torsional_Energy-OPLS-2005>
6.90883541107178

> <r_mmod_Van_der_Waal_Energy-OPLS-2005>
117.595550537109

> <r_mmod_Electrostatic_Energy-OPLS-2005>
-367.019805908203

> <r_mmod_Solvation_Energy-OPLS-2005>
-235.549072265625

> <b_mmod_Minimization_Converged-OPLS-2005>
0

> <r_mmod_RMS_Derivative-OPLS-2005>
2.58225393295288

$$$$
87
                    3D
 Structure written by MMmdl.
153161  0  0  1  0            999 V2000
  -30.4011  -15.3972   20.3315 C   0  0  0  0  0  0
  -30.4266  -12.9005   19.5089 C   0  0  0  0  0  0
  -29.5373  -12.6057   18.2747 C   0  0  0  0  0  0
  -28.0811  -12.3112   18.6850 C   0  0  0  0  0  0
  -27.5908  -13.2617   19.8042 C   0  0  2  0  0  0
  -28.6305  -13.5136   20.9186 C   0  0  0  0  0  0
  -25.2253  -13.8019   20.5768 C   0  0  0  0  0  0
  -24.1648  -13.0240   20.9331 C   0  0  0  0  0  0
  -24.6339  -11.6752   20.8835 C   0  0  0  0  0  0
  -23.9030  -10.4138   21.0467 C   0  0  0  0  0  0
  -24.3549   -9.4034   21.9240 C   0  0  0  0  0  0
  -23.6193   -8.2088   22.0769 C   0  0  0  0  0  0
  -22.4197   -8.0152   21.3521 C   0  0  0  0  0  0
  -21.9857   -9.0147   20.4641 C   0  0  0  0  0  0
  -22.7214  -10.2013   20.3076 C   0  0  0  0  0  0
  -21.6786   -6.0624   22.5262 C   0  0  0  0  0  0
  -21.3981   -6.5551   23.8194 C   0  0  0  0  0  0
  -21.3692   -5.6734   24.9182 C   0  0  0  0  0  0
  -21.6061   -4.2990   24.7251 C   0  0  0  0  0  0
  -21.8802   -3.8052   23.4377 C   0  0  0  0  0  0
  -21.9155   -4.6849   22.3410 C   0  0  0  0  0  0
  -22.7676  -13.5055   21.1942 C   0  0  0  0  0  0
  -22.1609   -4.2019   21.0990 F   0  0  0  0  0  0
  -21.5688   -3.4503   25.7784 F   0  0  0  0  0  0
  -29.8346  -14.0716   20.2642 N   0  0  0  0  0  0
  -26.2695  -12.9324   20.3163 N   0  0  0  0  0  0
  -25.9258  -11.6434   20.5690 N   0  0  0  0  0  0
  -22.0258  -12.8135   22.0503 N   0  0  0  0  0  0
  -25.3721  -15.1727   20.4177 N   0  0  0  0  0  0
  -31.6432  -15.3421   20.2896 O   0  0  0  0  0  0
  -21.6547   -6.8763   21.4215 O   0  0  0  0  0  0
  -22.3409  -14.5348   20.6717 O   0  0  0  0  0  0
  -24.6734  -31.8170   23.1626 C   0  0  0  0  0  0
  -25.9380  -32.4555   23.8125 C   0  0  1  0  0  0
  -27.2266  -26.8657   20.1728 C   0  0  0  0  0  0
  -25.5996  -33.8373   24.2024 N   0  0  0  0  0  0
  -23.4911  -30.4274   21.5142 C   0  0  2  0  0  0
  -24.9445  -28.8020   20.1146 C   0  0  0  0  0  0
  -22.7725  -29.4424   22.4747 C   0  0  0  0  0  0
  -18.0344  -28.1451   22.8444 C   0  0  0  0  0  0
  -24.1497  -36.7209   23.2646 C   0  0  0  0  0  0
  -26.0660  -30.6038   21.4004 C   0  0  0  0  0  0
  -26.1342  -29.1862   20.7453 C   0  0  0  0  0  0
  -27.2700  -28.2434   20.7439 C   0  0  0  0  0  0
  -26.0035  -26.6559   19.4918 C   0  0  0  0  0  0
  -24.9079  -27.5584   19.4676 C   0  0  0  0  0  0
  -23.7336  -29.7374   20.1441 C   0  0  0  0  0  0
  -25.4143  -36.2948   24.0283 C   0  0  1  0  0  0
  -20.5975  -28.3800   23.1157 C   0  0  2  0  0  0
  -20.6821  -26.9468   22.5403 C   0  0  0  0  0  0
  -19.5795  -26.6393   21.5223 C   0  0  0  0  0  0
  -18.1974  -26.7974   22.1620 C   0  0  0  0  0  0
  -19.1605  -28.8947   23.2780 C   0  0  0  0  0  0
  -18.9514  -30.1531   23.8824 C   0  0  0  0  0  0
  -17.6507  -30.6618   24.0568 C   0  0  0  0  0  0
  -25.9115  -34.9333   23.4979 C   0  0  0  0  0  0
  -16.5397  -29.9110   23.6352 C   0  0  0  0  0  0
  -16.7327  -28.6546   23.0339 C   0  0  0  0  0  0
  -26.4582  -31.6526   25.0687 C   0  0  0  0  0  0
  -25.3648  -31.3833   26.1296 C   0  0  0  0  0  0
  -27.0494  -30.2881   24.6479 C   0  0  0  0  0  0
  -27.6051  -32.4333   25.7530 C   0  0  0  0  0  0
  -27.5573  -37.1762   24.8453 C   0  0  0  0  0  0
  -21.4390  -29.3061   22.3488 N   0  0  0  0  0  0
  -26.4279  -37.3696   23.9391 N   0  0  0  0  0  0
  -24.7660  -30.9774   22.0791 N   0  0  0  0  0  0
  -23.4237  -28.7993   23.3020 O   0  0  0  0  0  0
  -28.2099  -25.7161   20.2116 O   0  0  0  0  0  0
  -26.5751  -34.8892   22.4588 O   0  0  0  0  0  0
  -23.5778  -32.1179   23.6661 O   0  0  0  0  0  0
  -30.4029  -21.0119   19.6128 C   0  0  0  0  0  0
  -29.5279  -20.1055   20.2260 C   0  0  0  0  0  0
  -28.7843  -22.5754   20.1534 C   0  0  0  0  0  0
  -31.7561  -20.6786   19.0635 C   0  0  0  0  0  0
  -27.2425  -20.8533   21.1907 C   0  0  0  0  0  0
  -28.3990  -16.6350   19.4995 C   0  0  0  0  0  0
  -29.8723  -18.3838   20.6303 C   0  0  0  0  0  0
  -27.8250  -24.0815   20.2283 C   0  0  0  0  0  0
  -29.9771  -22.3916   19.5633 N   0  0  0  0  0  0
  -28.4934  -21.1847   20.5385 N   0  0  0  0  0  0
  -29.6579  -16.7257   20.2464 N   0  0  0  0  0  0
  -31.4407  -13.1271   19.1771 H   0  0  0  0  0  0
  -30.5131  -12.0137   20.1403 H   0  0  0  0  0  0
  -29.9441  -11.7744   17.6982 H   0  0  0  0  0  0
  -29.5586  -13.4710   17.6092 H   0  0  0  0  0  0
  -28.0158  -11.2745   19.0142 H   0  0  0  0  0  0
  -27.4308  -12.3966   17.8127 H   0  0  0  0  0  0
  -27.4532  -14.1988   19.2785 H   0  0  0  0  0  0
  -28.8382  -12.6010   21.4814 H   0  0  0  0  0  0
  -28.2391  -14.2365   21.6352 H   0  0  0  0  0  0
  -25.2666   -9.5432   22.4889 H   0  0  0  0  0  0
  -23.9822   -7.4424   22.7467 H   0  0  0  0  0  0
  -21.0803   -8.8670   19.8931 H   0  0  0  0  0  0
  -22.3681  -10.9562   19.6189 H   0  0  0  0  0  0
  -21.1938   -7.6052   23.9670 H   0  0  0  0  0  0
  -21.1592   -6.0479   25.9099 H   0  0  0  0  0  0
  -22.0572   -2.7498   23.2927 H   0  0  0  0  0  0
  -22.3810  -11.9813   22.4981 H   0  0  0  0  0  0
  -21.0865  -13.1199   22.2609 H   0  0  0  0  0  0
  -24.5877  -15.8080   20.5130 H   0  0  0  0  0  0
  -26.2027  -15.6115   20.0466 H   0  0  0  0  0  0
  -26.7467  -32.5081   23.0852 H   0  0  0  0  0  0
  -25.0005  -33.9426   25.0076 H   0  0  0  0  0  0
  -22.8100  -31.2615   21.3361 H   0  0  0  0  0  0
  -23.3764  -35.9533   23.3260 H   0  0  0  0  0  0
  -24.3572  -36.8917   22.2071 H   0  0  0  0  0  0
  -23.7259  -37.6378   23.6751 H   0  0  0  0  0  0
  -26.2533  -31.3403   20.6175 H   0  0  0  0  0  0
  -26.9248  -30.6645   22.0579 H   0  0  0  0  0  0
  -28.1752  -28.5432   21.2537 H   0  0  0  0  0  0
  -25.8545  -25.7188   18.9766 H   0  0  0  0  0  0
  -24.0070  -27.2617   18.9492 H   0  0  0  0  0  0
  -23.8955  -30.5017   19.3831 H   0  0  0  0  0  0
  -22.8418  -29.1935   19.8270 H   0  0  0  0  0  0
  -25.1349  -36.1726   25.0776 H   0  0  0  0  0  0
  -21.0065  -28.3435   24.1284 H   0  0  0  0  0  0
  -20.5709  -26.2435   23.3667 H   0  0  0  0  0  0
  -21.6682  -26.7444   22.1204 H   0  0  0  0  0  0
  -19.6952  -25.6284   21.1301 H   0  0  0  0  0  0
  -19.6733  -27.3164   20.6723 H   0  0  0  0  0  0
  -17.4243  -26.6706   21.4028 H   0  0  0  0  0  0
  -18.0361  -26.0150   22.9054 H   0  0  0  0  0  0
  -19.7992  -30.7370   24.2145 H   0  0  0  0  0  0
  -17.5065  -31.6286   24.5205 H   0  0  0  0  0  0
  -15.5394  -30.2994   23.7734 H   0  0  0  0  0  0
  -15.8726  -28.0871   22.7056 H   0  0  0  0  0  0
  -24.5826  -30.7211   25.7576 H   0  0  0  0  0  0
  -24.8844  -32.3059   26.4554 H   0  0  0  0  0  0
  -25.7793  -30.9077   27.0186 H   0  0  0  0  0  0
  -26.3189  -29.6522   24.1468 H   0  0  0  0  0  0
  -27.3988  -29.7297   25.5176 H   0  0  0  0  0  0
  -27.9139  -30.4060   23.9943 H   0  0  0  0  0  0
  -27.2609  -33.3666   26.1999 H   0  0  0  0  0  0
  -28.3949  -32.6828   25.0433 H   0  0  0  0  0  0
  -28.0623  -31.8515   26.5546 H   0  0  0  0  0  0
  -28.2542  -38.0102   24.7511 H   0  0  0  0  0  0
  -28.1110  -36.2621   24.6253 H   0  0  0  0  0  0
  -27.2282  -37.1370   25.8852 H   0  0  0  0  0  0
  -20.9687  -29.8746   21.6580 H   0  0  0  0  0  0
  -26.0112  -38.2747   24.1391 H   0  0  0  0  0  0
  -31.7108  -20.4727   17.9948 H   0  0  0  0  0  0
  -32.1840  -19.8037   19.5528 H   0  0  0  0  0  0
  -32.4571  -21.5006   19.2093 H   0  0  0  0  0  0
  -27.2781  -19.8449   21.6001 H   0  0  0  0  0  0
  -26.4332  -20.9032   20.4621 H   0  0  0  0  0  0
  -27.0415  -21.5560   21.9990 H   0  0  0  0  0  0
  -28.0751  -17.5912   19.0819 H   0  0  0  0  0  0
  -27.6202  -16.3132   20.1811 H   0  0  0  0  0  0
  -28.4818  -15.9585   18.6480 H   0  0  0  0  0  0
  -28.9126  -18.2791   21.1337 H   0  0  0  0  0  0
  -30.0865  -18.3020   19.5656 H   0  0  0  0  0  0
  -27.2202  -23.9773   21.1279 H   0  0  0  0  0  0
  -27.1078  -23.9637   19.4180 H   0  0  0  0  0  0
  1 25  1  0  0  0
  1 30  2  0  0  0
  1 81  1  0  0  0
  2  3  1  0  0  0
  2 25  1  0  0  0
  2 82  1  0  0  0
  2 83  1  0  0  0
  3  4  1  0  0  0
  3 84  1  0  0  0
  3 85  1  0  0  0
  4  5  1  0  0  0
  4 86  1  0  0  0
  4 87  1  0  0  0
  5  6  1  0  0  0
  5 26  1  0  0  0
  5 88  1  0  0  0
  6 25  1  0  0  0
  6 89  1  0  0  0
  6 90  1  0  0  0
  7  8  2  0  0  0
  7 26  1  0  0  0
  7 29  1  0  0  0
  8  9  1  0  0  0
  8 22  1  0  0  0
  9 10  1  0  0  0
  9 27  2  0  0  0
 10 11  2  0  0  0
 10 15  1  0  0  0
 11 12  1  0  0  0
 11 91  1  0  0  0
 12 13  2  0  0  0
 12 92  1  0  0  0
 13 14  1  0  0  0
 13 31  1  0  0  0
 14 15  2  0  0  0
 14 93  1  0  0  0
 15 94  1  0  0  0
 16 17  2  0  0  0
 16 21  1  0  0  0
 16 31  1  0  0  0
 17 18  1  0  0  0
 17 95  1  0  0  0
 18 19  2  0  0  0
 18 96  1  0  0  0
 19 20  1  0  0  0
 19 24  1  0  0  0
 20 21  2  0  0  0
 20 97  1  0  0  0
 21 23  1  0  0  0
 22 28  1  0  0  0
 22 32  2  0  0  0
 26 27  1  0  0  0
 28 98  1  0  0  0
 28 99  1  0  0  0
 29100  1  0  0  0
 29101  1  0  0  0
 33 34  1  0  0  0
 33 66  1  0  0  0
 33 70  2  0  0  0
 34 36  1  0  0  0
 34 59  1  0  0  0
 34102  1  0  0  0
 35 44  2  0  0  0
 35 45  1  0  0  0
 35 68  1  0  0  0
 36 56  1  0  0  0
 36103  1  0  0  0
 37 39  1  0  0  0
 37 47  1  0  0  0
 37 66  1  0  0  0
 37104  1  0  0  0
 38 43  2  0  0  0
 38 46  1  0  0  0
 38 47  1  0  0  0
 39 64  1  0  0  0
 39 67  2  0  0  0
 40 52  1  0  0  0
 40 53  2  0  0  0
 40 58  1  0  0  0
 41105  1  0  0  0
 41106  1  0  0  0
 41107  1  0  0  0
 41 48  1  0  0  0
 42 43  1  0  0  0
 42 66  1  0  0  0
 42108  1  0  0  0
 42109  1  0  0  0
 43 44  1  0  0  0
 44110  1  0  0  0
 45 46  2  0  0  0
 45111  1  0  0  0
 46112  1  0  0  0
 47113  1  0  0  0
 47114  1  0  0  0
 48 56  1  0  0  0
 48 65  1  0  0  0
 48115  1  0  0  0
 49 50  1  0  0  0
 49 53  1  0  0  0
 49 64  1  0  0  0
 49116  1  0  0  0
 50 51  1  0  0  0
 50117  1  0  0  0
 50118  1  0  0  0
 51 52  1  0  0  0
 51119  1  0  0  0
 51120  1  0  0  0
 52121  1  0  0  0
 52122  1  0  0  0
 53 54  1  0  0  0
 54 55  2  0  0  0
 54123  1  0  0  0
 55 57  1  0  0  0
 55124  1  0  0  0
 56 69  2  0  0  0
 57 58  2  0  0  0
 57125  1  0  0  0
 58126  1  0  0  0
 59 60  1  0  0  0
 59 61  1  0  0  0
 59 62  1  0  0  0
 60127  1  0  0  0
 60128  1  0  0  0
 60129  1  0  0  0
 61130  1  0  0  0
 61131  1  0  0  0
 61132  1  0  0  0
 62133  1  0  0  0
 62134  1  0  0  0
 62135  1  0  0  0
 63 65  1  0  0  0
 63136  1  0  0  0
 63137  1  0  0  0
 63138  1  0  0  0
 64139  1  0  0  0
 65140  1  0  0  0
 68 78  1  0  0  0
 71 72  2  0  0  0
 71 74  1  0  0  0
 71 79  1  0  0  0
 72 77  1  0  0  0
 72 80  1  0  0  0
 73 78  1  0  0  0
 73 79  2  0  0  0
 73 80  1  0  0  0
 74141  1  0  0  0
 74142  1  0  0  0
 74143  1  0  0  0
 75 80  1  0  0  0
 75144  1  0  0  0
 75145  1  0  0  0
 75146  1  0  0  0
 76 81  1  0  0  0
 76147  1  0  0  0
 76148  1  0  0  0
 76149  1  0  0  0
 77 81  1  0  0  0
 77150  1  0  0  0
 77151  1  0  0  0
 78152  1  0  0  0
 78153  1  0  0  0
M  ISO  4   1 100  68 101  78 101  81 100
M  END
> <chiral flag>
0

> <version>
0

> <s_m_source_file>
/data/baiqing/PycharmProjects/Reinvent-master-3.2/result/LINK_invent/BTK/process_docking_weight1_custom_sum_contain_oxygen_bond_distance_aromatic_linkinvent_7_9_3/rearranged_h_0052.sdf

> <i_m_source_file_index>
88

> <r_mmod_Potential_Energy-OPLS-2005>
1915.30407714844

> <r_mmod_Stretch_Energy-OPLS-2005>
720.374450683594

> <r_mmod_Bend_Energy-OPLS-2005>
729.815734863281

> <r_mmod_Torsional_Energy-OPLS-2005>
273.560821533203

> <r_mmod_Improper_Torsional_Energy-OPLS-2005>
6.0929594039917

> <r_mmod_Van_der_Waal_Energy-OPLS-2005>
118.559547424316

> <r_mmod_Electrostatic_Energy-OPLS-2005>
-285.205230712891

> <r_mmod_Solvation_Energy-OPLS-2005>
-233.884521484375

> <b_mmod_Minimization_Converged-OPLS-2005>
0

> <r_mmod_RMS_Derivative-OPLS-2005>
3.4110746383667

$$$$
88
                    3D
 Structure written by MMmdl.
152160  0  0  1  0            999 V2000
  -30.3456  -15.4654   20.3488 C   0  0  0  0  0  0
  -30.4225  -12.9579   19.5178 C   0  0  0  0  0  0
  -29.5364  -12.5887   18.2971 C   0  0  0  0  0  0
  -28.1070  -12.2336   18.7377 C   0  0  0  0  0  0
  -27.5971  -13.2324   19.8052 C   0  0  2  0  0  0
  -28.6219  -13.5361   20.9194 C   0  0  0  0  0  0
  -25.2388  -13.7966   20.5805 C   0  0  0  0  0  0
  -24.1691  -13.0283   20.9322 C   0  0  0  0  0  0
  -24.6294  -11.6758   20.8814 C   0  0  0  0  0  0
  -23.8973  -10.4190   21.0481 C   0  0  0  0  0  0
  -24.3518   -9.4102   21.9265 C   0  0  0  0  0  0
  -23.6190   -8.2145   22.0790 C   0  0  0  0  0  0
  -22.4180   -8.0220   21.3578 C   0  0  0  0  0  0
  -21.9827   -9.0214   20.4678 C   0  0  0  0  0  0
  -22.7169  -10.2072   20.3126 C   0  0  0  0  0  0
  -21.6779   -6.0689   22.5299 C   0  0  0  0  0  0
  -21.3994   -6.5611   23.8231 C   0  0  0  0  0  0
  -21.3662   -5.6780   24.9190 C   0  0  0  0  0  0
  -21.6019   -4.3041   24.7247 C   0  0  0  0  0  0
  -21.8811   -3.8130   23.4371 C   0  0  0  0  0  0
  -21.9142   -4.6930   22.3428 C   0  0  0  0  0  0
  -22.7723  -13.5175   21.1887 C   0  0  0  0  0  0
  -22.1629   -4.2128   21.0992 F   0  0  0  0  0  0
  -21.5628   -3.4528   25.7766 F   0  0  0  0  0  0
  -29.7997  -14.1304   20.2564 N   0  0  0  0  0  0
  -26.2745  -12.9183   20.3227 N   0  0  0  0  0  0
  -25.9217  -11.6355   20.5755 N   0  0  0  0  0  0
  -22.0215  -12.8326   22.0420 N   0  0  0  0  0  0
  -25.4120  -15.1654   20.4248 N   0  0  0  0  0  0
  -31.5839  -15.4115   20.2962 O   0  0  0  0  0  0
  -21.6559   -6.8813   21.4256 O   0  0  0  0  0  0
  -22.3508  -14.5473   20.6630 O   0  0  0  0  0  0
  -24.6741  -31.8111   23.1611 C   0  0  0  0  0  0
  -25.9386  -32.4517   23.8113 C   0  0  1  0  0  0
  -27.2311  -26.8307   20.1851 C   0  0  0  0  0  0
  -25.6010  -33.8328   24.2028 N   0  0  0  0  0  0
  -23.4950  -30.4201   21.5125 C   0  0  2  0  0  0
  -24.9483  -28.7857   20.1186 C   0  0  0  0  0  0
  -22.7724  -29.4409   22.4759 C   0  0  0  0  0  0
  -18.0335  -28.1372   22.8448 C   0  0  0  0  0  0
  -24.1540  -36.7200   23.2633 C   0  0  0  0  0  0
  -26.0703  -30.5880   21.4059 C   0  0  0  0  0  0
  -26.1398  -29.1660   20.7515 C   0  0  0  0  0  0
  -27.2729  -28.2135   20.7536 C   0  0  0  0  0  0
  -26.0060  -26.6312   19.5046 C   0  0  0  0  0  0
  -24.9133  -27.5398   19.4745 C   0  0  0  0  0  0
  -23.7397  -29.7244   20.1455 C   0  0  0  0  0  0
  -25.4167  -36.2928   24.0279 C   0  0  1  0  0  0
  -20.5971  -28.3758   23.1159 C   0  0  2  0  0  0
  -20.6828  -26.9433   22.5395 C   0  0  0  0  0  0
  -19.5814  -26.6363   21.5193 C   0  0  0  0  0  0
  -18.1982  -26.7921   22.1590 C   0  0  0  0  0  0
  -19.1586  -28.8889   23.2786 C   0  0  0  0  0  0
  -18.9496  -30.1476   23.8831 C   0  0  0  0  0  0
  -17.6483  -30.6580   24.0532 C   0  0  0  0  0  0
  -25.9119  -34.9302   23.4981 C   0  0  0  0  0  0
  -16.5385  -29.9051   23.6323 C   0  0  0  0  0  0
  -16.7306  -28.6463   23.0356 C   0  0  0  0  0  0
  -26.4602  -31.6461   25.0657 C   0  0  0  0  0  0
  -25.3720  -31.3717   26.1299 C   0  0  0  0  0  0
  -27.0500  -30.2814   24.6447 C   0  0  0  0  0  0
  -27.6089  -32.4276   25.7461 C   0  0  0  0  0  0
  -27.5611  -37.1756   24.8441 C   0  0  0  0  0  0
  -21.4383  -29.3031   22.3497 N   0  0  0  0  0  0
  -26.4322  -37.3666   23.9385 N   0  0  0  0  0  0
  -24.7681  -30.9680   22.0802 N   0  0  0  0  0  0
  -23.4207  -28.7955   23.3030 O   0  0  0  0  0  0
  -28.2094  -25.6668   20.2055 O   0  0  0  0  0  0
  -26.5731  -34.8871   22.4588 O   0  0  0  0  0  0
  -23.5787  -32.1124   23.6633 O   0  0  0  0  0  0
  -28.6947  -22.4554   20.1583 C   0  0  0  0  0  0
  -29.3234  -20.0590   20.2713 C   0  0  0  0  0  0
  -31.2069  -18.5520   21.4868 C   0  0  0  0  0  0
  -28.0388  -21.0643   22.2268 C   0  0  0  0  0  0
  -28.2483  -16.8226   19.7444 C   0  0  0  0  0  0
  -27.8299  -24.0242   20.3776 C   0  0  0  0  0  0
  -29.8028  -18.4266   20.8531 C   0  0  2  0  0  0
  -29.3616  -22.0488   19.0459 N   0  0  0  0  0  0
  -29.7383  -20.6386   19.1166 N   0  0  0  0  0  0
  -28.6700  -21.1984   20.9276 N   0  0  0  0  0  0
  -29.5949  -16.8113   20.3283 N   0  0  0  0  0  0
  -31.4211  -13.2116   19.1639 H   0  0  0  0  0  0
  -30.5600  -12.0976   20.1779 H   0  0  0  0  0  0
  -29.9859  -11.7717   17.7288 H   0  0  0  0  0  0
  -29.4927  -13.4425   17.6216 H   0  0  0  0  0  0
  -28.1087  -11.2210   19.1466 H   0  0  0  0  0  0
  -27.4372  -12.2049   17.8767 H   0  0  0  0  0  0
  -27.4667  -14.1433   19.2335 H   0  0  0  0  0  0
  -28.8615  -12.6450   21.5049 H   0  0  0  0  0  0
  -28.2029  -14.2567   21.6213 H   0  0  0  0  0  0
  -25.2622   -9.5561   22.4906 H   0  0  0  0  0  0
  -23.9857   -7.4499   22.7516 H   0  0  0  0  0  0
  -21.0759   -8.8704   19.8997 H   0  0  0  0  0  0
  -22.3609  -10.9617   19.6249 H   0  0  0  0  0  0
  -21.2032   -7.6131   23.9724 H   0  0  0  0  0  0
  -21.1495   -6.0523   25.9085 H   0  0  0  0  0  0
  -22.0591   -2.7602   23.2866 H   0  0  0  0  0  0
  -22.3602  -12.0022   22.5058 H   0  0  0  0  0  0
  -21.0854  -13.1540   22.2408 H   0  0  0  0  0  0
  -24.6621  -15.8348   20.5531 H   0  0  0  0  0  0
  -26.2881  -15.5850   20.1495 H   0  0  0  0  0  0
  -26.7451  -32.5029   23.0809 H   0  0  0  0  0  0
  -25.0121  -33.9384   25.0163 H   0  0  0  0  0  0
  -22.8133  -31.2521   21.3316 H   0  0  0  0  0  0
  -23.3808  -35.9528   23.3221 H   0  0  0  0  0  0
  -24.3648  -36.8925   22.2069 H   0  0  0  0  0  0
  -23.7299  -37.6369   23.6738 H   0  0  0  0  0  0
  -26.2622  -31.3225   20.6221 H   0  0  0  0  0  0
  -26.9261  -30.6480   22.0658 H   0  0  0  0  0  0
  -28.1761  -28.5077   21.2698 H   0  0  0  0  0  0
  -25.8604  -25.6941   18.9897 H   0  0  0  0  0  0
  -24.0135  -27.2427   18.9507 H   0  0  0  0  0  0
  -23.9000  -30.4835   19.3807 H   0  0  0  0  0  0
  -22.8494  -29.1782   19.8301 H   0  0  0  0  0  0
  -25.1379  -36.1718   25.0769 H   0  0  0  0  0  0
  -21.0048  -28.3363   24.1282 H   0  0  0  0  0  0
  -20.5706  -26.2356   23.3621 H   0  0  0  0  0  0
  -21.6687  -26.7397   22.1203 H   0  0  0  0  0  0
  -19.6984  -25.6250   21.1258 H   0  0  0  0  0  0
  -19.6759  -27.3132   20.6687 H   0  0  0  0  0  0
  -17.4260  -26.6647   21.3982 H   0  0  0  0  0  0
  -18.0387  -26.0068   22.8988 H   0  0  0  0  0  0
  -19.7963  -30.7301   24.2190 H   0  0  0  0  0  0
  -17.5024  -31.6247   24.5133 H   0  0  0  0  0  0
  -15.5375  -30.2915   23.7686 H   0  0  0  0  0  0
  -15.8718  -28.0743   22.7126 H   0  0  0  0  0  0
  -24.5864  -30.7133   25.7565 H   0  0  0  0  0  0
  -24.8950  -32.2907   26.4696 H   0  0  0  0  0  0
  -25.7915  -30.8837   27.0099 H   0  0  0  0  0  0
  -26.3168  -29.6466   24.1446 H   0  0  0  0  0  0
  -27.3985  -29.7203   25.5125 H   0  0  0  0  0  0
  -27.9140  -30.3955   23.9907 H   0  0  0  0  0  0
  -27.2657  -33.3606   26.1946 H   0  0  0  0  0  0
  -28.3945  -32.6788   25.0322 H   0  0  0  0  0  0
  -28.0720  -31.8460   26.5443 H   0  0  0  0  0  0
  -28.2550  -38.0129   24.7549 H   0  0  0  0  0  0
  -28.1205  -36.2651   24.6199 H   0  0  0  0  0  0
  -27.2336  -37.1309   25.8848 H   0  0  0  0  0  0
  -20.9657  -29.8663   21.6565 H   0  0  0  0  0  0
  -26.0161  -38.2740   24.1350 H   0  0  0  0  0  0
  -31.2392  -19.3654   22.2125 H   0  0  0  0  0  0
  -31.9809  -18.7588   20.7482 H   0  0  0  0  0  0
  -31.4983  -17.6503   22.0238 H   0  0  0  0  0  0
  -27.6104  -22.0104   22.5502 H   0  0  0  0  0  0
  -28.7741  -20.7287   22.9630 H   0  0  0  0  0  0
  -27.2397  -20.3257   22.1546 H   0  0  0  0  0  0
  -27.4989  -16.7206   20.5346 H   0  0  0  0  0  0
  -28.1255  -16.0678   18.9743 H   0  0  0  0  0  0
  -28.0192  -17.7587   19.2257 H   0  0  0  0  0  0
  -27.4569  -23.9737   21.3978 H   0  0  0  0  0  0
  -26.9402  -23.8936   19.7652 H   0  0  0  0  0  0
  -29.1621  -18.3625   21.7380 H   0  0  0  0  0  0
  1 25  1  0  0  0
  1 30  2  0  0  0
  1 81  1  0  0  0
  2  3  1  0  0  0
  2 25  1  0  0  0
  2 82  1  0  0  0
  2 83  1  0  0  0
  3  4  1  0  0  0
  3 84  1  0  0  0
  3 85  1  0  0  0
  4  5  1  0  0  0
  4 86  1  0  0  0
  4 87  1  0  0  0
  5  6  1  0  0  0
  5 26  1  0  0  0
  5 88  1  0  0  0
  6 25  1  0  0  0
  6 89  1  0  0  0
  6 90  1  0  0  0
  7  8  2  0  0  0
  7 26  1  0  0  0
  7 29  1  0  0  0
  8  9  1  0  0  0
  8 22  1  0  0  0
  9 10  1  0  0  0
  9 27  2  0  0  0
 10 11  2  0  0  0
 10 15  1  0  0  0
 11 12  1  0  0  0
 11 91  1  0  0  0
 12 13  2  0  0  0
 12 92  1  0  0  0
 13 14  1  0  0  0
 13 31  1  0  0  0
 14 15  2  0  0  0
 14 93  1  0  0  0
 15 94  1  0  0  0
 16 17  2  0  0  0
 16 21  1  0  0  0
 16 31  1  0  0  0
 17 18  1  0  0  0
 17 95  1  0  0  0
 18 19  2  0  0  0
 18 96  1  0  0  0
 19 20  1  0  0  0
 19 24  1  0  0  0
 20 21  2  0  0  0
 20 97  1  0  0  0
 21 23  1  0  0  0
 22 28  1  0  0  0
 22 32  2  0  0  0
 26 27  1  0  0  0
 28 98  1  0  0  0
 28 99  1  0  0  0
 29100  1  0  0  0
 29101  1  0  0  0
 33 34  1  0  0  0
 33 66  1  0  0  0
 33 70  2  0  0  0
 34 36  1  0  0  0
 34 59  1  0  0  0
 34102  1  0  0  0
 35 44  2  0  0  0
 35 45  1  0  0  0
 35 68  1  0  0  0
 36 56  1  0  0  0
 36103  1  0  0  0
 37 39  1  0  0  0
 37 47  1  0  0  0
 37 66  1  0  0  0
 37104  1  0  0  0
 38 43  2  0  0  0
 38 46  1  0  0  0
 38 47  1  0  0  0
 39 64  1  0  0  0
 39 67  2  0  0  0
 40 52  1  0  0  0
 40 53  2  0  0  0
 40 58  1  0  0  0
 41105  1  0  0  0
 41106  1  0  0  0
 41107  1  0  0  0
 41 48  1  0  0  0
 42 43  1  0  0  0
 42 66  1  0  0  0
 42108  1  0  0  0
 42109  1  0  0  0
 43 44  1  0  0  0
 44110  1  0  0  0
 45 46  2  0  0  0
 45111  1  0  0  0
 46112  1  0  0  0
 47113  1  0  0  0
 47114  1  0  0  0
 48 56  1  0  0  0
 48 65  1  0  0  0
 48115  1  0  0  0
 49 50  1  0  0  0
 49 53  1  0  0  0
 49 64  1  0  0  0
 49116  1  0  0  0
 50 51  1  0  0  0
 50117  1  0  0  0
 50118  1  0  0  0
 51 52  1  0  0  0
 51119  1  0  0  0
 51120  1  0  0  0
 52121  1  0  0  0
 52122  1  0  0  0
 53 54  1  0  0  0
 54 55  2  0  0  0
 54123  1  0  0  0
 55 57  1  0  0  0
 55124  1  0  0  0
 56 69  2  0  0  0
 57 58  2  0  0  0
 57125  1  0  0  0
 58126  1  0  0  0
 59 60  1  0  0  0
 59 61  1  0  0  0
 59 62  1  0  0  0
 60127  1  0  0  0
 60128  1  0  0  0
 60129  1  0  0  0
 61130  1  0  0  0
 61131  1  0  0  0
 61132  1  0  0  0
 62133  1  0  0  0
 62134  1  0  0  0
 62135  1  0  0  0
 63 65  1  0  0  0
 63136  1  0  0  0
 63137  1  0  0  0
 63138  1  0  0  0
 64139  1  0  0  0
 65140  1  0  0  0
 68 76  1  0  0  0
 71 76  1  0  0  0
 71 78  2  0  0  0
 71 80  1  0  0  0
 72 77  1  0  0  0
 72 79  2  0  0  0
 72 80  1  0  0  0
 73141  1  0  0  0
 73142  1  0  0  0
 73143  1  0  0  0
 73 77  1  0  0  0
 74 80  1  0  0  0
 74144  1  0  0  0
 74145  1  0  0  0
 74146  1  0  0  0
 75 81  1  0  0  0
 75147  1  0  0  0
 75148  1  0  0  0
 75149  1  0  0  0
 76150  1  0  0  0
 76151  1  0  0  0
 77 81  1  0  0  0
 77152  1  0  0  0
 78 79  1  0  0  0
M  ISO  4   1 100  68 101  76 101  81 100
M  END
> <chiral flag>
0

> <version>
0

> <s_m_source_file>
/data/baiqing/PycharmProjects/Reinvent-master-3.2/result/LINK_invent/BTK/process_docking_weight1_custom_sum_contain_oxygen_bond_distance_aromatic_linkinvent_7_9_3/rearranged_h_0052.sdf

> <i_m_source_file_index>
89

> <r_mmod_Potential_Energy-OPLS-2005>
1840.65576171875

> <r_mmod_Stretch_Energy-OPLS-2005>
760.400817871094

> <r_mmod_Bend_Energy-OPLS-2005>
565.295043945312

> <r_mmod_Torsional_Energy-OPLS-2005>
269.384521484375

> <r_mmod_Improper_Torsional_Energy-OPLS-2005>
6.07459259033203

> <r_mmod_Van_der_Waal_Energy-OPLS-2005>
105.207328796387

> <r_mmod_Electrostatic_Energy-OPLS-2005>
-282.232757568359

> <r_mmod_Solvation_Energy-OPLS-2005>
-249.54231262207

> <b_mmod_Minimization_Converged-OPLS-2005>
0

> <r_mmod_RMS_Derivative-OPLS-2005>
6.60284376144409

$$$$
89
                    3D
 Structure written by MMmdl.
157165  0  0  1  0            999 V2000
  -30.8601  -14.7196   20.6037 C   0  0  0  0  0  0
  -30.3413  -12.4092   19.6536 C   0  0  0  0  0  0
  -29.6310  -12.7112   18.3328 C   0  0  0  0  0  0
  -28.1176  -12.5919   18.5949 C   0  0  0  0  0  0
  -27.6670  -13.3731   19.8640 C   0  0  2  0  0  0
  -28.6765  -13.3919   21.0552 C   0  0  0  0  0  0
  -25.2438  -13.8381   20.5448 C   0  0  0  0  0  0
  -24.1947  -13.0486   20.9090 C   0  0  0  0  0  0
  -24.6762  -11.7099   20.8618 C   0  0  0  0  0  0
  -23.9498  -10.4395   21.0225 C   0  0  0  0  0  0
  -24.3980   -9.4381   21.9113 C   0  0  0  0  0  0
  -23.6543   -8.2522   22.0860 C   0  0  0  0  0  0
  -22.4375   -8.0641   21.3762 C   0  0  0  0  0  0
  -22.0130   -9.0514   20.4739 C   0  0  0  0  0  0
  -22.7589  -10.2286   20.3021 C   0  0  0  0  0  0
  -21.6854   -6.1082   22.5420 C   0  0  0  0  0  0
  -21.3965   -6.5832   23.8465 C   0  0  0  0  0  0
  -21.3566   -5.6824   24.9282 C   0  0  0  0  0  0
  -21.6014   -4.3182   24.7156 C   0  0  0  0  0  0
  -21.8826   -3.8411   23.4274 C   0  0  0  0  0  0
  -21.9241   -4.7304   22.3391 C   0  0  0  0  0  0
  -22.7940  -13.5267   21.1670 C   0  0  0  0  0  0
  -22.1721   -4.2530   21.1000 F   0  0  0  0  0  0
  -21.5558   -3.4622   25.7618 F   0  0  0  0  0  0
  -30.0696  -13.5796   20.5557 N   0  0  0  0  0  0
  -26.3139  -12.9960   20.3081 N   0  0  0  0  0  0
  -25.9757  -11.6899   20.5605 N   0  0  0  0  0  0
  -22.0543  -12.8214   22.0176 N   0  0  0  0  0  0
  -25.3845  -15.2183   20.4231 N   0  0  0  0  0  0
  -31.8989  -14.7595   19.9363 O   0  0  0  0  0  0
  -21.6717   -6.9226   21.4465 O   0  0  0  0  0  0
  -22.3717  -14.5554   20.6492 O   0  0  0  0  0  0
  -24.6251  -31.8526   23.2072 C   0  0  0  0  0  0
  -25.9089  -32.4760   23.8396 C   0  0  1  0  0  0
  -27.1988  -27.2558   20.1081 C   0  0  0  0  0  0
  -25.5934  -33.8564   24.2344 N   0  0  0  0  0  0
  -23.4282  -30.4896   21.5505 C   0  0  2  0  0  0
  -24.8561  -28.9412   20.1036 C   0  0  0  0  0  0
  -22.7515  -29.4589   22.4930 C   0  0  0  0  0  0
  -18.0281  -28.1362   22.8475 C   0  0  0  0  0  0
  -24.1473  -36.7300   23.2645 C   0  0  0  0  0  0
  -25.9800  -30.7807   21.3693 C   0  0  0  0  0  0
  -26.0455  -29.3977   20.7099 C   0  0  0  0  0  0
  -27.2183  -28.5796   20.6907 C   0  0  0  0  0  0
  -25.9831  -26.8839   19.4879 C   0  0  0  0  0  0
  -24.8395  -27.6975   19.4854 C   0  0  0  0  0  0
  -23.6414  -29.8390   20.1658 C   0  0  0  0  0  0
  -25.4102  -36.3098   24.0371 C   0  0  1  0  0  0
  -20.5905  -28.3656   23.1275 C   0  0  2  0  0  0
  -20.6731  -26.9355   22.5398 C   0  0  0  0  0  0
  -19.5713  -26.6371   21.5180 C   0  0  0  0  0  0
  -18.1922  -26.7905   22.1606 C   0  0  0  0  0  0
  -19.1537  -28.8823   23.2897 C   0  0  0  0  0  0
  -18.9451  -30.1430   23.8900 C   0  0  0  0  0  0
  -17.6439  -30.6560   24.0547 C   0  0  0  0  0  0
  -25.9018  -34.9450   23.5132 C   0  0  0  0  0  0
  -16.5330  -29.9083   23.6305 C   0  0  0  0  0  0
  -16.7268  -28.6508   23.0342 C   0  0  0  0  0  0
  -26.4486  -31.6553   25.0740 C   0  0  0  0  0  0
  -25.3813  -31.3588   26.1533 C   0  0  0  0  0  0
  -27.0345  -30.2996   24.6128 C   0  0  0  0  0  0
  -27.6119  -32.4258   25.7515 C   0  0  0  0  0  0
  -27.5589  -37.1798   24.8492 C   0  0  0  0  0  0
  -21.4194  -29.3017   22.3709 N   0  0  0  0  0  0
  -26.4267  -37.3789   23.9452 N   0  0  0  0  0  0
  -24.7071  -31.0577   22.0982 N   0  0  0  0  0  0
  -23.4249  -28.8009   23.2926 O   0  0  0  0  0  0
  -28.2608  -26.3170   20.1618 O   0  0  0  0  0  0
  -26.5603  -34.8891   22.4697 O   0  0  0  0  0  0
  -23.5446  -32.1356   23.7463 O   0  0  0  0  0  0
  -30.3508  -24.1634   19.7957 C   0  0  0  0  0  0
  -31.3439  -23.1935   19.6540 C   0  0  0  0  0  0
  -29.0726  -23.7426   20.0768 C   0  0  0  0  0  0
  -29.8984  -21.4747   20.2247 C   0  0  0  0  0  0
  -32.7099  -23.6648   19.2467 C   0  0  0  0  0  0
  -31.1687  -15.4946   22.7722 C   0  0  0  0  0  0
  -27.9306  -24.8505   20.0109 C   0  0  0  0  0  0
  -29.7457  -19.9953   20.8843 C   0  0  0  0  0  0
  -30.1405  -18.5248   20.2489 C   0  0  0  0  0  0
  -30.8133  -17.3945   21.2467 C   0  0  0  0  0  0
  -31.1422  -21.8720   19.9044 N   0  0  0  0  0  0
  -28.8651  -22.3759   20.3015 N   0  0  0  0  0  0
  -30.5948  -15.8240   21.4212 N   0  0  0  0  0  0
  -31.3990  -12.2137   19.5278 H   0  0  0  0  0  0
  -29.9380  -11.4644   20.0619 H   0  0  0  0  0  0
  -29.9946  -12.0079   17.5774 H   0  0  0  0  0  0
  -29.9044  -13.7190   17.9995 H   0  0  0  0  0  0
  -27.8872  -11.5368   18.6952 H   0  0  0  0  0  0
  -27.5672  -13.0104   17.7483 H   0  0  0  0  0  0
  -27.6230  -14.4336   19.5616 H   0  0  0  0  0  0
  -28.5896  -12.5141   21.6837 H   0  0  0  0  0  0
  -28.3564  -14.2012   21.7036 H   0  0  0  0  0  0
  -25.3132   -9.5917   22.4748 H   0  0  0  0  0  0
  -24.0334   -7.4841   22.7585 H   0  0  0  0  0  0
  -21.1089   -8.9056   19.8916 H   0  0  0  0  0  0
  -22.4094  -10.9912   19.6272 H   0  0  0  0  0  0
  -21.1870   -7.6351   24.0120 H   0  0  0  0  0  0
  -21.1238   -6.0476   25.9234 H   0  0  0  0  0  0
  -22.0612   -2.7899   23.2585 H   0  0  0  0  0  0
  -22.4083  -11.9791   22.4467 H   0  0  0  0  0  0
  -21.1326  -13.1457   22.2497 H   0  0  0  0  0  0
  -24.5658  -15.8056   20.5200 H   0  0  0  0  0  0
  -26.2036  -15.7075   20.0863 H   0  0  0  0  0  0
  -26.7120  -32.5381   23.1128 H   0  0  0  0  0  0
  -25.0086  -33.9689   25.0504 H   0  0  0  0  0  0
  -22.7128  -31.3118   21.4213 H   0  0  0  0  0  0
  -23.3723  -35.9633   23.3292 H   0  0  0  0  0  0
  -24.3565  -36.8911   22.2057 H   0  0  0  0  0  0
  -23.7229  -37.6496   23.6643 H   0  0  0  0  0  0
  -26.0965  -31.5495   20.6084 H   0  0  0  0  0  0
  -26.8567  -30.8359   22.0047 H   0  0  0  0  0  0
  -28.1180  -28.9280   21.1518 H   0  0  0  0  0  0
  -25.8475  -25.9367   18.9974 H   0  0  0  0  0  0
  -23.9286  -27.3559   18.9989 H   0  0  0  0  0  0
  -23.7642  -30.6259   19.4225 H   0  0  0  0  0  0
  -22.7572  -29.2840   19.8423 H   0  0  0  0  0  0
  -25.1245  -36.1951   25.0861 H   0  0  0  0  0  0
  -20.9973  -28.3165   24.1416 H   0  0  0  0  0  0
  -20.5588  -26.2199   23.3613 H   0  0  0  0  0  0
  -21.6609  -26.7338   22.1203 H   0  0  0  0  0  0
  -19.6848  -25.6312   21.1194 H   0  0  0  0  0  0
  -19.6665  -27.3185   20.6754 H   0  0  0  0  0  0
  -17.4162  -26.6659   21.4041 H   0  0  0  0  0  0
  -18.0311  -26.0085   22.9030 H   0  0  0  0  0  0
  -19.7936  -30.7249   24.2268 H   0  0  0  0  0  0
  -17.5007  -31.6242   24.5143 H   0  0  0  0  0  0
  -15.5344  -30.2964   23.7663 H   0  0  0  0  0  0
  -15.8677  -28.0838   22.7039 H   0  0  0  0  0  0
  -24.5998  -30.6893   25.7829 H   0  0  0  0  0  0
  -24.8999  -32.2698   26.5082 H   0  0  0  0  0  0
  -25.8239  -30.8677   27.0210 H   0  0  0  0  0  0
  -26.2813  -29.6723   24.1286 H   0  0  0  0  0  0
  -27.4182  -29.7251   25.4550 H   0  0  0  0  0  0
  -27.8637  -30.4282   23.9195 H   0  0  0  0  0  0
  -27.2715  -33.3487   26.2206 H   0  0  0  0  0  0
  -28.3853  -32.6893   25.0296 H   0  0  0  0  0  0
  -28.0836  -31.8299   26.5335 H   0  0  0  0  0  0
  -28.2596  -38.0083   24.7514 H   0  0  0  0  0  0
  -28.1057  -36.2623   24.6298 H   0  0  0  0  0  0
  -27.2310  -37.1455   25.8880 H   0  0  0  0  0  0
  -20.9326  -29.8831   21.6992 H   0  0  0  0  0  0
  -26.0160  -38.2830   24.1462 H   0  0  0  0  0  0
  -30.5305  -25.2221   19.5940 H   0  0  0  0  0  0
  -33.4269  -23.6716   20.0578 H   0  0  0  0  0  0
  -32.5966  -24.7203   18.9438 H   0  0  0  0  0  0
  -33.1423  -23.1051   18.4256 H   0  0  0  0  0  0
  -31.5482  -14.4739   22.9740 H   0  0  0  0  0  0
  -30.4300  -15.6426   23.5314 H   0  0  0  0  0  0
  -31.9346  -16.2130   23.1159 H   0  0  0  0  0  0
  -27.0828  -24.5802   20.6589 H   0  0  0  0  0  0
  -27.5448  -24.7124   19.0038 H   0  0  0  0  0  0
  -30.3942  -20.0726   21.7593 H   0  0  0  0  0  0
  -28.7270  -19.8971   21.2541 H   0  0  0  0  0  0
  -30.8825  -18.7602   19.4782 H   0  0  0  0  0  0
  -29.2995  -18.0863   19.7430 H   0  0  0  0  0  0
  -31.8803  -17.5997   21.1940 H   0  0  0  0  0  0
  -30.5413  -17.8196   22.2157 H   0  0  0  0  0  0
  1 25  1  0  0  0
  1 30  2  0  0  0
  1 83  1  0  0  0
  2  3  1  0  0  0
  2 25  1  0  0  0
  2 84  1  0  0  0
  2 85  1  0  0  0
  3  4  1  0  0  0
  3 86  1  0  0  0
  3 87  1  0  0  0
  4  5  1  0  0  0
  4 88  1  0  0  0
  4 89  1  0  0  0
  5  6  1  0  0  0
  5 26  1  0  0  0
  5 90  1  0  0  0
  6 25  1  0  0  0
  6 91  1  0  0  0
  6 92  1  0  0  0
  7  8  2  0  0  0
  7 26  1  0  0  0
  7 29  1  0  0  0
  8  9  1  0  0  0
  8 22  1  0  0  0
  9 10  1  0  0  0
  9 27  2  0  0  0
 10 11  2  0  0  0
 10 15  1  0  0  0
 11 12  1  0  0  0
 11 93  1  0  0  0
 12 13  2  0  0  0
 12 94  1  0  0  0
 13 14  1  0  0  0
 13 31  1  0  0  0
 14 15  2  0  0  0
 14 95  1  0  0  0
 15 96  1  0  0  0
 16 17  2  0  0  0
 16 21  1  0  0  0
 16 31  1  0  0  0
 17 18  1  0  0  0
 17 97  1  0  0  0
 18 19  2  0  0  0
 18 98  1  0  0  0
 19 20  1  0  0  0
 19 24  1  0  0  0
 20 21  2  0  0  0
 20 99  1  0  0  0
 21 23  1  0  0  0
 22 28  1  0  0  0
 22 32  2  0  0  0
 26 27  1  0  0  0
 28100  1  0  0  0
 28101  1  0  0  0
 29102  1  0  0  0
 29103  1  0  0  0
 33 34  1  0  0  0
 33 66  1  0  0  0
 33 70  2  0  0  0
 34 36  1  0  0  0
 34 59  1  0  0  0
 34104  1  0  0  0
 35 44  2  0  0  0
 35 45  1  0  0  0
 35 68  1  0  0  0
 36 56  1  0  0  0
 36105  1  0  0  0
 37 39  1  0  0  0
 37 47  1  0  0  0
 37 66  1  0  0  0
 37106  1  0  0  0
 38 43  2  0  0  0
 38 46  1  0  0  0
 38 47  1  0  0  0
 39 64  1  0  0  0
 39 67  2  0  0  0
 40 52  1  0  0  0
 40 53  2  0  0  0
 40 58  1  0  0  0
 41107  1  0  0  0
 41108  1  0  0  0
 41109  1  0  0  0
 41 48  1  0  0  0
 42 43  1  0  0  0
 42 66  1  0  0  0
 42110  1  0  0  0
 42111  1  0  0  0
 43 44  1  0  0  0
 44112  1  0  0  0
 45 46  2  0  0  0
 45113  1  0  0  0
 46114  1  0  0  0
 47115  1  0  0  0
 47116  1  0  0  0
 48 56  1  0  0  0
 48 65  1  0  0  0
 48117  1  0  0  0
 49 50  1  0  0  0
 49 53  1  0  0  0
 49 64  1  0  0  0
 49118  1  0  0  0
 50 51  1  0  0  0
 50119  1  0  0  0
 50120  1  0  0  0
 51 52  1  0  0  0
 51121  1  0  0  0
 51122  1  0  0  0
 52123  1  0  0  0
 52124  1  0  0  0
 53 54  1  0  0  0
 54 55  2  0  0  0
 54125  1  0  0  0
 55 57  1  0  0  0
 55126  1  0  0  0
 56 69  2  0  0  0
 57 58  2  0  0  0
 57127  1  0  0  0
 58128  1  0  0  0
 59 60  1  0  0  0
 59 61  1  0  0  0
 59 62  1  0  0  0
 60129  1  0  0  0
 60130  1  0  0  0
 60131  1  0  0  0
 61132  1  0  0  0
 61133  1  0  0  0
 61134  1  0  0  0
 62135  1  0  0  0
 62136  1  0  0  0
 62137  1  0  0  0
 63 65  1  0  0  0
 63138  1  0  0  0
 63139  1  0  0  0
 63140  1  0  0  0
 64141  1  0  0  0
 65142  1  0  0  0
 68 77  1  0  0  0
 71 72  2  0  0  0
 71 73  1  0  0  0
 71143  1  0  0  0
 72 75  1  0  0  0
 72 81  1  0  0  0
 73 77  1  0  0  0
 73 82  2  0  0  0
 74 78  1  0  0  0
 74 81  2  0  0  0
 74 82  1  0  0  0
 75144  1  0  0  0
 75145  1  0  0  0
 75146  1  0  0  0
 76 83  1  0  0  0
 76147  1  0  0  0
 76148  1  0  0  0
 76149  1  0  0  0
 77150  1  0  0  0
 77151  1  0  0  0
 78 79  1  0  0  0
 78152  1  0  0  0
 78153  1  0  0  0
 79 80  1  0  0  0
 79154  1  0  0  0
 79155  1  0  0  0
 80 83  1  0  0  0
 80156  1  0  0  0
 80157  1  0  0  0
M  ISO  4   1 100  68 101  77 101  83 100
M  END
> <chiral flag>
0

> <version>
0

> <s_m_source_file>
/data/baiqing/PycharmProjects/Reinvent-master-3.2/result/LINK_invent/BTK/process_docking_weight1_custom_sum_contain_oxygen_bond_distance_aromatic_linkinvent_7_9_3/rearranged_h_0052.sdf

> <i_m_source_file_index>
90

> <r_mmod_Potential_Energy-OPLS-2005>
170.997817993164

> <r_mmod_Stretch_Energy-OPLS-2005>
194.280395507812

> <r_mmod_Bend_Energy-OPLS-2005>
306.465301513672

> <r_mmod_Torsional_Energy-OPLS-2005>
279.984649658203

> <r_mmod_Improper_Torsional_Energy-OPLS-2005>
10.6895036697388

> <r_mmod_Van_der_Waal_Energy-OPLS-2005>
154.790878295898

> <r_mmod_Electrostatic_Energy-OPLS-2005>
-674.591430664062

> <r_mmod_Solvation_Energy-OPLS-2005>
-225.112854003906

> <b_mmod_Minimization_Converged-OPLS-2005>
0

> <r_mmod_RMS_Derivative-OPLS-2005>
29.75510597229

$$$$
90
                    3D
 Structure written by MMmdl.
149157  0  0  1  0            999 V2000
  -30.4513  -15.3117   20.3970 C   0  0  0  0  0  0
  -30.4458  -12.8454   19.5253 C   0  0  0  0  0  0
  -29.5358  -12.5720   18.2988 C   0  0  0  0  0  0
  -28.0962  -12.2668   18.7421 C   0  0  0  0  0  0
  -27.6135  -13.2607   19.8251 C   0  0  2  0  0  0
  -28.6550  -13.4220   20.9585 C   0  0  0  0  0  0
  -25.2318  -13.8165   20.5650 C   0  0  0  0  0  0
  -24.1700  -13.0371   20.9236 C   0  0  0  0  0  0
  -24.6365  -11.6878   20.8743 C   0  0  0  0  0  0
  -23.9047  -10.4251   21.0384 C   0  0  0  0  0  0
  -24.3592   -9.4172   21.9168 C   0  0  0  0  0  0
  -23.6276   -8.2202   22.0743 C   0  0  0  0  0  0
  -22.4265   -8.0240   21.3524 C   0  0  0  0  0  0
  -21.9880   -9.0202   20.4627 C   0  0  0  0  0  0
  -22.7213  -10.2088   20.3042 C   0  0  0  0  0  0
  -21.6847   -6.0698   22.5244 C   0  0  0  0  0  0
  -21.4009   -6.5602   23.8189 C   0  0  0  0  0  0
  -21.3657   -5.6772   24.9147 C   0  0  0  0  0  0
  -21.6044   -4.3033   24.7210 C   0  0  0  0  0  0
  -21.8839   -3.8122   23.4333 C   0  0  0  0  0  0
  -21.9200   -4.6918   22.3391 C   0  0  0  0  0  0
  -22.7706  -13.5121   21.1870 C   0  0  0  0  0  0
  -22.1680   -4.2101   21.0970 F   0  0  0  0  0  0
  -21.5622   -3.4537   25.7733 F   0  0  0  0  0  0
  -29.8774  -13.9925   20.3424 N   0  0  0  0  0  0
  -26.2798  -12.9452   20.3208 N   0  0  0  0  0  0
  -25.9303  -11.6571   20.5744 N   0  0  0  0  0  0
  -22.0378  -12.8112   22.0453 N   0  0  0  0  0  0
  -25.3801  -15.1896   20.3976 N   0  0  0  0  0  0
  -31.6576  -15.2886   20.1036 O   0  0  0  0  0  0
  -21.6635   -6.8826   21.4215 O   0  0  0  0  0  0
  -22.3371  -14.5388   20.6686 O   0  0  0  0  0  0
  -24.6633  -31.8213   23.1668 C   0  0  0  0  0  0
  -25.9331  -32.4551   23.8129 C   0  0  1  0  0  0
  -27.2238  -26.9291   20.1805 C   0  0  0  0  0  0
  -25.5996  -33.8376   24.2039 N   0  0  0  0  0  0
  -23.4746  -30.4368   21.5148 C   0  0  2  0  0  0
  -24.9341  -28.8285   20.1080 C   0  0  0  0  0  0
  -22.7643  -29.4413   22.4712 C   0  0  0  0  0  0
  -18.0315  -28.1364   22.8462 C   0  0  0  0  0  0
  -24.1499  -36.7198   23.2637 C   0  0  0  0  0  0
  -26.0475  -30.6297   21.3976 C   0  0  0  0  0  0
  -26.1190  -29.2230   20.7403 C   0  0  0  0  0  0
  -27.2605  -28.2976   20.7484 C   0  0  0  0  0  0
  -26.0079  -26.6938   19.4948 C   0  0  0  0  0  0
  -24.9039  -27.5817   19.4672 C   0  0  0  0  0  0
  -23.7187  -29.7580   20.1406 C   0  0  0  0  0  0
  -25.4122  -36.2907   24.0285 C   0  0  1  0  0  0
  -20.5951  -28.3711   23.1154 C   0  0  2  0  0  0
  -20.6792  -26.9387   22.5380 C   0  0  0  0  0  0
  -19.5757  -26.6349   21.5179 C   0  0  0  0  0  0
  -18.1929  -26.7901   22.1600 C   0  0  0  0  0  0
  -19.1584  -28.8856   23.2807 C   0  0  0  0  0  0
  -18.9497  -30.1439   23.8840 C   0  0  0  0  0  0
  -17.6508  -30.6566   24.0537 C   0  0  0  0  0  0
  -25.9094  -34.9321   23.4972 C   0  0  0  0  0  0
  -16.5388  -29.9057   23.6346 C   0  0  0  0  0  0
  -16.7305  -28.6468   23.0375 C   0  0  0  0  0  0
  -26.4590  -31.6487   25.0644 C   0  0  0  0  0  0
  -25.3737  -31.3799   26.1330 C   0  0  0  0  0  0
  -27.0452  -30.2814   24.6414 C   0  0  0  0  0  0
  -27.6059  -32.4335   25.7412 C   0  0  0  0  0  0
  -27.5565  -37.1717   24.8453 C   0  0  0  0  0  0
  -21.4307  -29.3040   22.3501 N   0  0  0  0  0  0
  -26.4246  -37.3662   23.9446 N   0  0  0  0  0  0
  -24.7502  -30.9878   22.0798 N   0  0  0  0  0  0
  -23.4219  -28.7922   23.2891 O   0  0  0  0  0  0
  -28.2006  -25.7983   20.2723 O   0  0  0  0  0  0
  -26.5698  -34.8872   22.4548 O   0  0  0  0  0  0
  -23.5730  -32.1181   23.6789 O   0  0  0  0  0  0
  -29.4896  -20.7025   21.5902 C   0  0  0  0  0  0
  -29.4057  -19.8467   20.4556 C   0  0  0  0  0  0
  -28.6402  -22.6992   20.3368 C   0  0  0  0  0  0
  -28.4903  -16.6081   21.2902 C   0  0  0  0  0  0
  -30.0406  -18.2283   20.1071 C   0  0  0  0  0  0
  -27.7957  -24.2171   20.0772 C   0  0  0  0  0  0
  -30.0464  -20.3061   22.9423 C   0  0  0  0  0  0
  -29.0653  -22.1236   21.5022 N   0  0  0  0  0  0
  -29.7297  -16.6304   20.5356 N   0  0  0  0  0  0
  -29.2028  -20.6259   23.9250 F   0  0  0  0  0  0
  -30.2815  -18.9990   23.0356 F   0  0  0  0  0  0
  -31.1923  -20.9470   23.1873 F   0  0  0  0  0  0
  -28.7604  -21.1412   19.2429 S   0  0  0  0  0  0
  -31.4539  -13.0596   19.1689 H   0  0  0  0  0  0
  -30.5539  -11.9469   20.1375 H   0  0  0  0  0  0
  -29.9273  -11.7406   17.7115 H   0  0  0  0  0  0
  -29.5402  -13.4415   17.6409 H   0  0  0  0  0  0
  -28.0938  -11.2582   19.1618 H   0  0  0  0  0  0
  -27.4184  -12.2411   17.8895 H   0  0  0  0  0  0
  -27.5283  -14.2172   19.3066 H   0  0  0  0  0  0
  -28.8512  -12.4609   21.4379 H   0  0  0  0  0  0
  -28.2639  -14.0540   21.7532 H   0  0  0  0  0  0
  -25.2738   -9.5641   22.4749 H   0  0  0  0  0  0
  -23.9971   -7.4592   22.7465 H   0  0  0  0  0  0
  -21.0809   -8.8719   19.8929 H   0  0  0  0  0  0
  -22.3666  -10.9613   19.6150 H   0  0  0  0  0  0
  -21.2015   -7.6123   23.9653 H   0  0  0  0  0  0
  -21.1453   -6.0515   25.9038 H   0  0  0  0  0  0
  -22.0623   -2.7572   23.2863 H   0  0  0  0  0  0
  -22.4078  -11.9859   22.4933 H   0  0  0  0  0  0
  -21.0966  -13.1053   22.2584 H   0  0  0  0  0  0
  -24.6027  -15.8304   20.5100 H   0  0  0  0  0  0
  -26.2161  -15.6354   20.0455 H   0  0  0  0  0  0
  -26.7358  -32.5127   23.0820 H   0  0  0  0  0  0
  -25.0154  -33.9414   25.0206 H   0  0  0  0  0  0
  -22.7880  -31.2700   21.3458 H   0  0  0  0  0  0
  -23.3766  -35.9510   23.3161 H   0  0  0  0  0  0
  -24.3612  -36.8995   22.2076 H   0  0  0  0  0  0
  -23.7259  -37.6345   23.6811 H   0  0  0  0  0  0
  -26.2357  -31.3715   20.6200 H   0  0  0  0  0  0
  -26.9049  -30.6806   22.0566 H   0  0  0  0  0  0
  -28.1594  -28.5998   21.2684 H   0  0  0  0  0  0
  -25.8648  -25.7481   18.9963 H   0  0  0  0  0  0
  -24.0001  -27.2658   18.9604 H   0  0  0  0  0  0
  -23.8841  -30.5340   19.3916 H   0  0  0  0  0  0
  -22.8275  -29.2217   19.8094 H   0  0  0  0  0  0
  -25.1306  -36.1640   25.0769 H   0  0  0  0  0  0
  -21.0069  -28.3332   24.1272 H   0  0  0  0  0  0
  -20.5634  -26.2314   23.3615 H   0  0  0  0  0  0
  -21.6642  -26.7326   22.1197 H   0  0  0  0  0  0
  -19.6905  -25.6248   21.1231 H   0  0  0  0  0  0
  -19.6708  -27.3129   20.6684 H   0  0  0  0  0  0
  -17.4206  -26.6647   21.4000 H   0  0  0  0  0  0
  -18.0337  -26.0029   22.8990 H   0  0  0  0  0  0
  -19.7983  -30.7243   24.2211 H   0  0  0  0  0  0
  -17.5068  -31.6258   24.5102 H   0  0  0  0  0  0
  -15.5390  -30.2946   23.7691 H   0  0  0  0  0  0
  -15.8696  -28.0768   22.7147 H   0  0  0  0  0  0
  -24.5793  -30.7282   25.7650 H   0  0  0  0  0  0
  -24.9105  -32.3061   26.4754 H   0  0  0  0  0  0
  -25.7961  -30.8912   27.0120 H   0  0  0  0  0  0
  -26.3094  -29.6457   24.1464 H   0  0  0  0  0  0
  -27.3963  -29.7208   25.5099 H   0  0  0  0  0  0
  -27.9072  -30.3875   23.9808 H   0  0  0  0  0  0
  -27.2612  -33.3765   26.1689 H   0  0  0  0  0  0
  -28.4002  -32.6712   25.0302 H   0  0  0  0  0  0
  -28.0569  -31.8668   26.5574 H   0  0  0  0  0  0
  -28.2465  -38.0110   24.7564 H   0  0  0  0  0  0
  -28.1168  -36.2645   24.6177 H   0  0  0  0  0  0
  -27.2317  -37.1225   25.8854 H   0  0  0  0  0  0
  -20.9496  -29.8858   21.6768 H   0  0  0  0  0  0
  -26.0059  -38.2677   24.1565 H   0  0  0  0  0  0
  -27.7801  -15.9876   20.7569 H   0  0  0  0  0  0
  -28.0355  -17.5907   21.3920 H   0  0  0  0  0  0
  -28.6574  -16.2015   22.2909 H   0  0  0  0  0  0
  -31.1061  -18.3057   20.3237 H   0  0  0  0  0  0
  -30.0206  -18.1648   19.0179 H   0  0  0  0  0  0
  -26.9040  -24.1185   20.6980 H   0  0  0  0  0  0
  -27.4184  -24.1466   19.0573 H   0  0  0  0  0  0
  1 25  1  0  0  0
  1 30  2  0  0  0
  1 79  1  0  0  0
  2  3  1  0  0  0
  2 25  1  0  0  0
  2 84  1  0  0  0
  2 85  1  0  0  0
  3  4  1  0  0  0
  3 86  1  0  0  0
  3 87  1  0  0  0
  4  5  1  0  0  0
  4 88  1  0  0  0
  4 89  1  0  0  0
  5  6  1  0  0  0
  5 26  1  0  0  0
  5 90  1  0  0  0
  6 25  1  0  0  0
  6 91  1  0  0  0
  6 92  1  0  0  0
  7  8  2  0  0  0
  7 26  1  0  0  0
  7 29  1  0  0  0
  8  9  1  0  0  0
  8 22  1  0  0  0
  9 10  1  0  0  0
  9 27  2  0  0  0
 10 11  2  0  0  0
 10 15  1  0  0  0
 11 12  1  0  0  0
 11 93  1  0  0  0
 12 13  2  0  0  0
 12 94  1  0  0  0
 13 14  1  0  0  0
 13 31  1  0  0  0
 14 15  2  0  0  0
 14 95  1  0  0  0
 15 96  1  0  0  0
 16 17  2  0  0  0
 16 21  1  0  0  0
 16 31  1  0  0  0
 17 18  1  0  0  0
 17 97  1  0  0  0
 18 19  2  0  0  0
 18 98  1  0  0  0
 19 20  1  0  0  0
 19 24  1  0  0  0
 20 21  2  0  0  0
 20 99  1  0  0  0
 21 23  1  0  0  0
 22 28  1  0  0  0
 22 32  2  0  0  0
 26 27  1  0  0  0
 28100  1  0  0  0
 28101  1  0  0  0
 29102  1  0  0  0
 29103  1  0  0  0
 33 34  1  0  0  0
 33 66  1  0  0  0
 33 70  2  0  0  0
 34 36  1  0  0  0
 34 59  1  0  0  0
 34104  1  0  0  0
 35 44  2  0  0  0
 35 45  1  0  0  0
 35 68  1  0  0  0
 36 56  1  0  0  0
 36105  1  0  0  0
 37 39  1  0  0  0
 37 47  1  0  0  0
 37 66  1  0  0  0
 37106  1  0  0  0
 38 43  2  0  0  0
 38 46  1  0  0  0
 38 47  1  0  0  0
 39 64  1  0  0  0
 39 67  2  0  0  0
 40 52  1  0  0  0
 40 53  2  0  0  0
 40 58  1  0  0  0
 41107  1  0  0  0
 41108  1  0  0  0
 41109  1  0  0  0
 41 48  1  0  0  0
 42 43  1  0  0  0
 42 66  1  0  0  0
 42110  1  0  0  0
 42111  1  0  0  0
 43 44  1  0  0  0
 44112  1  0  0  0
 45 46  2  0  0  0
 45113  1  0  0  0
 46114  1  0  0  0
 47115  1  0  0  0
 47116  1  0  0  0
 48 56  1  0  0  0
 48 65  1  0  0  0
 48117  1  0  0  0
 49 50  1  0  0  0
 49 53  1  0  0  0
 49 64  1  0  0  0
 49118  1  0  0  0
 50 51  1  0  0  0
 50119  1  0  0  0
 50120  1  0  0  0
 51 52  1  0  0  0
 51121  1  0  0  0
 51122  1  0  0  0
 52123  1  0  0  0
 52124  1  0  0  0
 53 54  1  0  0  0
 54 55  2  0  0  0
 54125  1  0  0  0
 55 57  1  0  0  0
 55126  1  0  0  0
 56 69  2  0  0  0
 57 58  2  0  0  0
 57127  1  0  0  0
 58128  1  0  0  0
 59 60  1  0  0  0
 59 61  1  0  0  0
 59 62  1  0  0  0
 60129  1  0  0  0
 60130  1  0  0  0
 60131  1  0  0  0
 61132  1  0  0  0
 61133  1  0  0  0
 61134  1  0  0  0
 62135  1  0  0  0
 62136  1  0  0  0
 62137  1  0  0  0
 63 65  1  0  0  0
 63138  1  0  0  0
 63139  1  0  0  0
 63140  1  0  0  0
 64141  1  0  0  0
 65142  1  0  0  0
 68 76  1  0  0  0
 71 72  2  0  0  0
 71 77  1  0  0  0
 71 78  1  0  0  0
 72 75  1  0  0  0
 72 83  1  0  0  0
 73 76  1  0  0  0
 73 78  2  0  0  0
 73 83  1  0  0  0
 74 79  1  0  0  0
 74143  1  0  0  0
 74144  1  0  0  0
 74145  1  0  0  0
 75 79  1  0  0  0
 75146  1  0  0  0
 75147  1  0  0  0
 76148  1  0  0  0
 76149  1  0  0  0
 77 80  1  0  0  0
 77 81  1  0  0  0
 77 82  1  0  0  0
M  ISO  4   1 100  68 101  76 101  79 100
M  END
> <chiral flag>
0

> <version>
0

> <s_m_source_file>
/data/baiqing/PycharmProjects/Reinvent-master-3.2/result/LINK_invent/BTK/process_docking_weight1_custom_sum_contain_oxygen_bond_distance_aromatic_linkinvent_7_9_3/rearranged_h_0052.sdf

> <i_m_source_file_index>
91

> <r_mmod_Potential_Energy-OPLS-2005>
1557.83776855469

> <r_mmod_Stretch_Energy-OPLS-2005>
591.7265625

> <r_mmod_Bend_Energy-OPLS-2005>
497.6181640625

> <r_mmod_Torsional_Energy-OPLS-2005>
252.326278686523

> <r_mmod_Improper_Torsional_Energy-OPLS-2005>
9.44600296020508

> <r_mmod_Van_der_Waal_Energy-OPLS-2005>
115.760284423828

> <r_mmod_Electrostatic_Energy-OPLS-2005>
-184.489120483398

> <r_mmod_Solvation_Energy-OPLS-2005>
-204.313522338867

> <b_mmod_Minimization_Converged-OPLS-2005>
0

> <r_mmod_RMS_Derivative-OPLS-2005>
5.61009502410889

$$$$
91
                    3D
 Structure written by MMmdl.
175184  0  0  1  0            999 V2000
  -30.6890  -14.7439   20.5334 C   0  0  0  0  0  0
  -30.4217  -12.4760   19.4887 C   0  0  0  0  0  0
  -29.5060  -12.5358   18.2471 C   0  0  0  0  0  0
  -28.0358  -12.3454   18.6582 C   0  0  0  0  0  0
  -27.6414  -13.2406   19.8616 C   0  0  2  0  0  0
  -28.6911  -13.1825   21.0028 C   0  0  0  0  0  0
  -25.2301  -13.8111   20.5535 C   0  0  0  0  0  0
  -24.1705  -13.0339   20.9209 C   0  0  0  0  0  0
  -24.6396  -11.6870   20.8800 C   0  0  0  0  0  0
  -23.9088  -10.4245   21.0432 C   0  0  0  0  0  0
  -24.3633   -9.4169   21.9208 C   0  0  0  0  0  0
  -23.6299   -8.2211   22.0764 C   0  0  0  0  0  0
  -22.4280   -8.0262   21.3545 C   0  0  0  0  0  0
  -21.9928   -9.0237   20.4645 C   0  0  0  0  0  0
  -22.7267  -10.2107   20.3067 C   0  0  0  0  0  0
  -21.6843   -6.0736   22.5289 C   0  0  0  0  0  0
  -21.4002   -6.5639   23.8221 C   0  0  0  0  0  0
  -21.3657   -5.6793   24.9183 C   0  0  0  0  0  0
  -21.6047   -4.3057   24.7233 C   0  0  0  0  0  0
  -21.8815   -3.8151   23.4349 C   0  0  0  0  0  0
  -21.9187   -4.6967   22.3407 C   0  0  0  0  0  0
  -22.7730  -13.5116   21.1873 C   0  0  0  0  0  0
  -22.1661   -4.2158   21.0983 F   0  0  0  0  0  0
  -21.5630   -3.4538   25.7741 F   0  0  0  0  0  0
  -29.9987  -13.5442   20.4352 N   0  0  0  0  0  0
  -26.2903  -12.9448   20.3338 N   0  0  0  0  0  0
  -25.9355  -11.6571   20.5865 N   0  0  0  0  0  0
  -22.0410  -12.8124   22.0460 N   0  0  0  0  0  0
  -25.3484  -15.1788   20.3600 N   0  0  0  0  0  0
  -31.8176  -14.8127   20.0382 O   0  0  0  0  0  0
  -21.6622   -6.8880   21.4251 O   0  0  0  0  0  0
  -22.3403  -14.5426   20.6734 O   0  0  0  0  0  0
  -24.6304  -31.8556   23.1998 C   0  0  0  0  0  0
  -25.9127  -32.4752   23.8346 C   0  0  1  0  0  0
  -27.2272  -27.2565   20.1236 C   0  0  0  0  0  0
  -25.5923  -33.8560   24.2268 N   0  0  0  0  0  0
  -23.4265  -30.4786   21.5429 C   0  0  2  0  0  0
  -24.8751  -28.9268   20.1094 C   0  0  0  0  0  0
  -22.7480  -29.4604   22.4911 C   0  0  0  0  0  0
  -18.0290  -28.1354   22.8480 C   0  0  0  0  0  0
  -24.1490  -36.7280   23.2638 C   0  0  0  0  0  0
  -25.9735  -30.7644   21.3834 C   0  0  0  0  0  0
  -26.0459  -29.3868   20.7235 C   0  0  0  0  0  0
  -27.2186  -28.5643   20.7224 C   0  0  0  0  0  0
  -26.0291  -26.8725   19.4731 C   0  0  0  0  0  0
  -24.8729  -27.6769   19.4767 C   0  0  0  0  0  0
  -23.6447  -29.8131   20.1592 C   0  0  0  0  0  0
  -25.4121  -36.3071   24.0318 C   0  0  1  0  0  0
  -20.5889  -28.3670   23.1264 C   0  0  2  0  0  0
  -20.6771  -26.9388   22.5397 C   0  0  0  0  0  0
  -19.5765  -26.6360   21.5181 C   0  0  0  0  0  0
  -18.1942  -26.7904   22.1594 C   0  0  0  0  0  0
  -19.1539  -28.8825   23.2871 C   0  0  0  0  0  0
  -18.9468  -30.1428   23.8885 C   0  0  0  0  0  0
  -17.6466  -30.6563   24.0546 C   0  0  0  0  0  0
  -25.9055  -34.9438   23.5093 C   0  0  0  0  0  0
  -16.5359  -29.9053   23.6331 C   0  0  0  0  0  0
  -16.7272  -28.6469   23.0356 C   0  0  0  0  0  0
  -26.4493  -31.6578   25.0734 C   0  0  0  0  0  0
  -25.3711  -31.3707   26.1450 C   0  0  0  0  0  0
  -27.0347  -30.2992   24.6249 C   0  0  0  0  0  0
  -27.6060  -32.4315   25.7485 C   0  0  0  0  0  0
  -27.5582  -37.1793   24.8464 C   0  0  0  0  0  0
  -21.4187  -29.3030   22.3653 N   0  0  0  0  0  0
  -26.4296  -37.3766   23.9402 N   0  0  0  0  0  0
  -24.6958  -31.0516   22.0973 N   0  0  0  0  0  0
  -23.4177  -28.8142   23.3010 O   0  0  0  0  0  0
  -28.3461  -26.3861   20.2175 O   0  0  0  0  0  0
  -26.5623  -34.8895   22.4668 O   0  0  0  0  0  0
  -23.5454  -32.1387   23.7288 O   0  0  0  0  0  0
  -27.6563  -17.6098   17.4691 C   0  0  0  0  0  0
  -26.6318  -19.5143   18.5411 C   0  0  0  0  0  0
  -26.3632  -17.1242   17.2100 C   0  0  0  0  0  0
  -29.6289  -20.5830   21.8458 C   0  0  0  0  0  0
  -27.8026  -18.8334   18.1516 C   0  0  0  0  0  0
  -25.3791  -18.9493   18.2419 C   0  0  0  0  0  0
  -29.3664  -20.8957   20.5324 C   0  0  0  0  0  0
  -29.6028  -18.5760   20.7851 C   0  0  0  0  0  0
  -24.0965  -19.6397   18.6521 C   0  0  0  0  0  0
  -30.1146  -16.0429   23.6960 C   0  0  0  0  0  0
  -27.9123  -16.7899   21.0338 C   0  0  0  0  0  0
  -29.1852  -19.3883   18.4672 C   0  0  0  0  0  0
  -29.0788  -22.2759   19.8077 C   0  0  0  0  0  0
  -28.8773  -23.6914   20.5798 C   0  0  0  0  0  0
  -30.9481  -16.2359   22.4190 C   0  0  0  0  0  0
  -28.3698  -24.9654   19.7081 C   0  0  0  0  0  0
  -29.3549  -17.0046   20.5741 C   0  0  2  0  0  0
  -25.2442  -17.7784   17.5860 N   0  0  0  0  0  0
  -29.3959  -19.6223   19.9077 N   0  0  0  0  0  0
  -29.7407  -19.2078   21.9630 N   0  3  0  0  0  0
  -30.1889  -15.8660   21.2095 N   0  0  0  0  0  0
  -31.4657  -12.5690   19.1859 H   0  0  0  0  0  0
  -30.3496  -11.4976   19.9675 H   0  0  0  0  0  0
  -29.7950  -11.7727   17.5234 H   0  0  0  0  0  0
  -29.6265  -13.4969   17.7448 H   0  0  0  0  0  0
  -27.8960  -11.2947   18.9144 H   0  0  0  0  0  0
  -27.3781  -12.5407   17.8103 H   0  0  0  0  0  0
  -27.6297  -14.2550   19.4665 H   0  0  0  0  0  0
  -28.7305  -12.1806   21.4333 H   0  0  0  0  0  0
  -28.4272  -13.8421   21.8290 H   0  0  0  0  0  0
  -25.2770   -9.5640   22.4792 H   0  0  0  0  0  0
  -23.9999   -7.4594   22.7483 H   0  0  0  0  0  0
  -21.0866   -8.8770   19.8942 H   0  0  0  0  0  0
  -22.3744  -10.9655   19.6182 H   0  0  0  0  0  0
  -21.1986   -7.6143   23.9730 H   0  0  0  0  0  0
  -21.1484   -6.0517   25.9085 H   0  0  0  0  0  0
  -22.0594   -2.7614   23.2847 H   0  0  0  0  0  0
  -22.4034  -11.9785   22.4832 H   0  0  0  0  0  0
  -21.1029  -13.1157   22.2683 H   0  0  0  0  0  0
  -24.5415  -15.7887   20.4270 H   0  0  0  0  0  0
  -26.1686  -15.6476   20.0038 H   0  0  0  0  0  0
  -26.7181  -32.5405   23.1082 H   0  0  0  0  0  0
  -25.0067  -33.9710   25.0411 H   0  0  0  0  0  0
  -22.7243  -31.3021   21.3973 H   0  0  0  0  0  0
  -23.3749  -35.9607   23.3300 H   0  0  0  0  0  0
  -24.3588  -36.8922   22.2053 H   0  0  0  0  0  0
  -23.7254  -37.6484   23.6672 H   0  0  0  0  0  0
  -26.1183  -31.5259   20.6155 H   0  0  0  0  0  0
  -26.8486  -30.8102   22.0202 H   0  0  0  0  0  0
  -28.1136  -28.9130   21.2180 H   0  0  0  0  0  0
  -25.9268  -25.9327   18.9576 H   0  0  0  0  0  0
  -23.9776  -27.3193   18.9871 H   0  0  0  0  0  0
  -23.7667  -30.5902   19.4035 H   0  0  0  0  0  0
  -22.7625  -29.2457   19.8554 H   0  0  0  0  0  0
  -25.1305  -36.1920   25.0803 H   0  0  0  0  0  0
  -20.9987  -28.3245   24.1383 H   0  0  0  0  0  0
  -20.5645  -26.2269   23.3596 H   0  0  0  0  0  0
  -21.6651  -26.7399   22.1222 H   0  0  0  0  0  0
  -19.6930  -25.6265   21.1233 H   0  0  0  0  0  0
  -19.6717  -27.3144   20.6693 H   0  0  0  0  0  0
  -17.4214  -26.6635   21.3996 H   0  0  0  0  0  0
  -18.0367  -26.0028   22.8975 H   0  0  0  0  0  0
  -19.7944  -30.7244   24.2252 H   0  0  0  0  0  0
  -17.5024  -31.6263   24.5121 H   0  0  0  0  0  0
  -15.5360  -30.2948   23.7672 H   0  0  0  0  0  0
  -15.8670  -28.0787   22.7070 H   0  0  0  0  0  0
  -24.5927  -30.6993   25.7794 H   0  0  0  0  0  0
  -24.8816  -32.2835   26.4844 H   0  0  0  0  0  0
  -25.8028  -30.8939   27.0254 H   0  0  0  0  0  0
  -26.2930  -29.6719   24.1279 H   0  0  0  0  0  0
  -27.4023  -29.7291   25.4795 H   0  0  0  0  0  0
  -27.8812  -30.4261   23.9495 H   0  0  0  0  0  0
  -27.2707  -33.3650   26.2017 H   0  0  0  0  0  0
  -28.3879  -32.6832   25.0298 H   0  0  0  0  0  0
  -28.0704  -31.8463   26.5434 H   0  0  0  0  0  0
  -28.2592  -38.0095   24.7532 H   0  0  0  0  0  0
  -28.1092  -36.2632   24.6278 H   0  0  0  0  0  0
  -27.2305  -37.1450   25.8868 H   0  0  0  0  0  0
  -20.9349  -29.8763   21.6882 H   0  0  0  0  0  0
  -26.0178  -38.2836   24.1409 H   0  0  0  0  0  0
  -28.5168  -17.0429   17.1416 H   0  0  0  0  0  0
  -26.6849  -20.4557   19.0687 H   0  0  0  0  0  0
  -26.2225  -16.1857   16.6942 H   0  0  0  0  0  0
  -29.7072  -21.2319   22.7073 H   0  0  0  0  0  0
  -24.2934  -20.4527   19.3516 H   0  0  0  0  0  0
  -23.4203  -18.9369   19.1392 H   0  0  0  0  0  0
  -23.5921  -20.0555   17.7794 H   0  0  0  0  0  0
  -30.7128  -16.2569   24.5832 H   0  0  0  0  0  0
  -29.7584  -15.0160   23.7853 H   0  0  0  0  0  0
  -29.2461  -16.6982   23.7280 H   0  0  0  0  0  0
  -27.1988  -17.2992   20.3882 H   0  0  0  0  0  0
  -27.7498  -17.1654   22.0439 H   0  0  0  0  0  0
  -27.6643  -15.7411   21.0701 H   0  0  0  0  0  0
  -29.3298  -20.3261   17.9319 H   0  0  0  0  0  0
  -29.9693  -18.7182   18.1146 H   0  0  0  0  0  0
  -28.1898  -22.1290   19.1952 H   0  0  0  0  0  0
  -29.8868  -22.4217   19.0900 H   0  0  0  0  0  0
  -29.8153  -23.9533   21.0696 H   0  0  0  0  0  0
  -28.1601  -23.5402   21.3869 H   0  0  0  0  0  0
  -31.8404  -15.6135   22.5291 H   0  0  0  0  0  0
  -31.3508  -17.2434   22.3501 H   0  0  0  0  0  0
  -27.4098  -24.6572   19.3120 H   0  0  0  0  0  0
  -29.0132  -25.0095   18.8296 H   0  0  0  0  0  0
  -29.4101  -16.8430   19.4989 H   0  0  0  0  0  0
  -29.8492  -18.7338   22.8501 H   0  0  0  0  0  0
  1 25  1  0  0  0
  1 30  2  0  0  0
  1 91  1  0  0  0
  2  3  1  0  0  0
  2 25  1  0  0  0
  2 92  1  0  0  0
  2 93  1  0  0  0
  3  4  1  0  0  0
  3 94  1  0  0  0
  3 95  1  0  0  0
  4  5  1  0  0  0
  4 96  1  0  0  0
  4 97  1  0  0  0
  5  6  1  0  0  0
  5 26  1  0  0  0
  5 98  1  0  0  0
  6 25  1  0  0  0
  6 99  1  0  0  0
  6100  1  0  0  0
  7  8  2  0  0  0
  7 26  1  0  0  0
  7 29  1  0  0  0
  8  9  1  0  0  0
  8 22  1  0  0  0
  9 10  1  0  0  0
  9 27  2  0  0  0
 10 11  2  0  0  0
 10 15  1  0  0  0
 11 12  1  0  0  0
 11101  1  0  0  0
 12 13  2  0  0  0
 12102  1  0  0  0
 13 14  1  0  0  0
 13 31  1  0  0  0
 14 15  2  0  0  0
 14103  1  0  0  0
 15104  1  0  0  0
 16 17  2  0  0  0
 16 21  1  0  0  0
 16 31  1  0  0  0
 17 18  1  0  0  0
 17105  1  0  0  0
 18 19  2  0  0  0
 18106  1  0  0  0
 19 20  1  0  0  0
 19 24  1  0  0  0
 20 21  2  0  0  0
 20107  1  0  0  0
 21 23  1  0  0  0
 22 28  1  0  0  0
 22 32  2  0  0  0
 26 27  1  0  0  0
 28108  1  0  0  0
 28109  1  0  0  0
 29110  1  0  0  0
 29111  1  0  0  0
 33 34  1  0  0  0
 33 66  1  0  0  0
 33 70  2  0  0  0
 34 36  1  0  0  0
 34 59  1  0  0  0
 34112  1  0  0  0
 35 44  2  0  0  0
 35 45  1  0  0  0
 35 68  1  0  0  0
 36 56  1  0  0  0
 36113  1  0  0  0
 37 39  1  0  0  0
 37 47  1  0  0  0
 37 66  1  0  0  0
 37114  1  0  0  0
 38 43  2  0  0  0
 38 46  1  0  0  0
 38 47  1  0  0  0
 39 64  1  0  0  0
 39 67  2  0  0  0
 40 52  1  0  0  0
 40 53  2  0  0  0
 40 58  1  0  0  0
 41115  1  0  0  0
 41116  1  0  0  0
 41117  1  0  0  0
 41 48  1  0  0  0
 42 43  1  0  0  0
 42 66  1  0  0  0
 42118  1  0  0  0
 42119  1  0  0  0
 43 44  1  0  0  0
 44120  1  0  0  0
 45 46  2  0  0  0
 45121  1  0  0  0
 46122  1  0  0  0
 47123  1  0  0  0
 47124  1  0  0  0
 48 56  1  0  0  0
 48 65  1  0  0  0
 48125  1  0  0  0
 49 50  1  0  0  0
 49 53  1  0  0  0
 49 64  1  0  0  0
 49126  1  0  0  0
 50 51  1  0  0  0
 50127  1  0  0  0
 50128  1  0  0  0
 51 52  1  0  0  0
 51129  1  0  0  0
 51130  1  0  0  0
 52131  1  0  0  0
 52132  1  0  0  0
 53 54  1  0  0  0
 54 55  2  0  0  0
 54133  1  0  0  0
 55 57  1  0  0  0
 55134  1  0  0  0
 56 69  2  0  0  0
 57 58  2  0  0  0
 57135  1  0  0  0
 58136  1  0  0  0
 59 60  1  0  0  0
 59 61  1  0  0  0
 59 62  1  0  0  0
 60137  1  0  0  0
 60138  1  0  0  0
 60139  1  0  0  0
 61140  1  0  0  0
 61141  1  0  0  0
 61142  1  0  0  0
 62143  1  0  0  0
 62144  1  0  0  0
 62145  1  0  0  0
 63 65  1  0  0  0
 63146  1  0  0  0
 63147  1  0  0  0
 63148  1  0  0  0
 64149  1  0  0  0
 65150  1  0  0  0
 68 86  1  0  0  0
 71 73  2  0  0  0
 71 75  1  0  0  0
 71151  1  0  0  0
 72 75  2  0  0  0
 72 76  1  0  0  0
 72152  1  0  0  0
 73 88  1  0  0  0
 73153  1  0  0  0
 74 77  2  0  0  0
 74 90  1  0  0  0
 74154  1  0  0  0
 75 82  1  0  0  0
 76 79  1  0  0  0
 76 88  2  0  0  0
 77 83  1  0  0  0
 77 89  1  0  0  0
 78 87  1  0  0  0
 78 89  1  0  0  0
 78 90  2  0  0  0
 79155  1  0  0  0
 79156  1  0  0  0
 79157  1  0  0  0
 80 85  1  0  0  0
 80158  1  0  0  0
 80159  1  0  0  0
 80160  1  0  0  0
 81161  1  0  0  0
 81162  1  0  0  0
 81163  1  0  0  0
 81 87  1  0  0  0
 82 89  1  0  0  0
 82164  1  0  0  0
 82165  1  0  0  0
 83 84  1  0  0  0
 83166  1  0  0  0
 83167  1  0  0  0
 84 86  1  0  0  0
 84168  1  0  0  0
 84169  1  0  0  0
 85 91  1  0  0  0
 85170  1  0  0  0
 85171  1  0  0  0
 86172  1  0  0  0
 86173  1  0  0  0
 87 91  1  0  0  0
 87174  1  0  0  0
 90175  1  0  0  0
M  CHG  1  90   1
M  ISO  4   1 100  68 101  86 101  91 100
M  END
> <chiral flag>
0

> <version>
0

> <s_m_source_file>
/data/baiqing/PycharmProjects/Reinvent-master-3.2/result/LINK_invent/BTK/process_docking_weight1_custom_sum_contain_oxygen_bond_distance_aromatic_linkinvent_7_9_3/rearranged_h_0052.sdf

> <i_m_source_file_index>
92

> <r_mmod_Potential_Energy-OPLS-2005>
152.76530456543

> <r_mmod_Stretch_Energy-OPLS-2005>
144.70832824707

> <r_mmod_Bend_Energy-OPLS-2005>
222.268661499023

> <r_mmod_Torsional_Energy-OPLS-2005>
308.070281982422

> <r_mmod_Improper_Torsional_Energy-OPLS-2005>
5.70685148239136

> <r_mmod_Van_der_Waal_Energy-OPLS-2005>
129.88037109375

> <r_mmod_Electrostatic_Energy-OPLS-2005>
-316.240081787109

> <r_mmod_Solvation_Energy-OPLS-2005>
-425.282775878906

> <b_mmod_Minimization_Converged-OPLS-2005>
0

> <r_mmod_RMS_Derivative-OPLS-2005>
1.72682428359985

$$$$
92
                    3D
 Structure written by MMmdl.
182190  0  0  1  0            999 V2000
  -29.6791  -16.7866   20.1521 C   0  0  0  0  0  0
  -30.3314  -13.9314   19.5387 C   0  0  0  0  0  0
  -29.6003  -13.0149   18.4483 C   0  0  0  0  0  0
  -28.2908  -12.3945   18.9470 C   0  0  0  0  0  0
  -27.5855  -13.4234   19.8477 C   0  0  2  0  0  0
  -28.5286  -14.1704   20.8637 C   0  0  0  0  0  0
  -25.2573  -13.7599   20.8087 C   0  0  0  0  0  0
  -24.1697  -12.9821   20.9684 C   0  0  0  0  0  0
  -24.6515  -11.6491   20.8336 C   0  0  0  0  0  0
  -23.9265  -10.3908   20.9935 C   0  0  0  0  0  0
  -24.3768   -9.3918   21.8884 C   0  0  0  0  0  0
  -23.6244   -8.2124   22.0703 C   0  0  0  0  0  0
  -22.4192   -8.0202   21.3556 C   0  0  0  0  0  0
  -21.9913   -9.0069   20.4516 C   0  0  0  0  0  0
  -22.7362  -10.1855   20.2749 C   0  0  0  0  0  0
  -21.6782   -6.0737   22.5370 C   0  0  0  0  0  0
  -21.3965   -6.5628   23.8326 C   0  0  0  0  0  0
  -21.3585   -5.6761   24.9266 C   0  0  0  0  0  0
  -21.6009   -4.3029   24.7303 C   0  0  0  0  0  0
  -21.8826   -3.8151   23.4431 C   0  0  0  0  0  0
  -21.9152   -4.6975   22.3482 C   0  0  0  0  0  0
  -22.7712  -13.4789   21.1975 C   0  0  0  0  0  0
  -22.1601   -4.2174   21.1050 F   0  0  0  0  0  0
  -21.5591   -3.4488   25.7797 F   0  0  0  0  0  0
  -29.5053  -15.1589   20.1807 N   0  0  0  0  0  0
  -26.3064  -12.9622   20.3989 N   0  0  0  0  0  0
  -25.9540  -11.6487   20.5009 N   0  0  0  0  0  0
  -21.9878  -12.7728   22.0033 N   0  0  0  0  0  0
  -25.4041  -15.1026   21.0167 N   0  0  0  0  0  0
  -30.9430  -16.7559   20.0477 O   0  0  0  0  0  0
  -21.6515   -6.8874   21.4341 O   0  0  0  0  0  0
  -22.3808  -14.5270   20.6637 O   0  0  0  0  0  0
  -24.7518  -31.7129   23.0914 C   0  0  0  0  0  0
  -25.9740  -32.4075   23.7734 C   0  0  1  0  0  0
  -27.3625  -26.0184   20.2904 C   0  0  0  0  0  0
  -25.5993  -33.7930   24.1528 N   0  0  0  0  0  0
  -23.6178  -30.2703   21.4606 C   0  0  2  0  0  0
  -25.1050  -28.4556   20.1543 C   0  0  0  0  0  0
  -22.8106  -29.3829   22.4527 C   0  0  0  0  0  0
  -18.0404  -28.1464   22.8418 C   0  0  0  0  0  0
  -24.1495  -36.6992   23.2670 C   0  0  0  0  0  0
  -26.2213  -30.2207   21.4674 C   0  0  0  0  0  0
  -26.3019  -28.7034   20.8351 C   0  0  0  0  0  0
  -27.3674  -27.5393   20.8496 C   0  0  0  0  0  0
  -26.1077  -26.1531   19.5512 C   0  0  0  0  0  0
  -25.0833  -27.2057   19.4897 C   0  0  0  0  0  0
  -23.9192  -29.4827   20.1362 C   0  0  0  0  0  0
  -25.4173  -36.2669   24.0224 C   0  0  1  0  0  0
  -20.6067  -28.3862   23.1006 C   0  0  2  0  0  0
  -20.6816  -26.9443   22.5426 C   0  0  0  0  0  0
  -19.5801  -26.6339   21.5241 C   0  0  0  0  0  0
  -18.1985  -26.7981   22.1615 C   0  0  0  0  0  0
  -19.1678  -28.9013   23.2667 C   0  0  0  0  0  0
  -18.9565  -30.1577   23.8743 C   0  0  0  0  0  0
  -17.6538  -30.6619   24.0537 C   0  0  0  0  0  0
  -25.9182  -34.9075   23.4781 C   0  0  0  0  0  0
  -16.5432  -29.9078   23.6356 C   0  0  0  0  0  0
  -16.7381  -28.6506   23.0376 C   0  0  0  0  0  0
  -26.4703  -31.6418   25.0646 C   0  0  0  0  0  0
  -25.3571  -31.3942   26.1115 C   0  0  0  0  0  0
  -27.0746  -30.2690   24.7066 C   0  0  0  0  0  0
  -27.6009  -32.4452   25.7489 C   0  0  0  0  0  0
  -27.5546  -37.1640   24.8460 C   0  0  0  0  0  0
  -21.4698  -29.2956   22.3269 N   0  0  0  0  0  0
  -26.4243  -37.3503   23.9400 N   0  0  0  0  0  0
  -24.8962  -30.7850   22.0584 N   0  0  0  0  0  0
  -23.4177  -28.7582   23.3232 O   0  0  0  0  0  0
  -28.3236  -24.5269   20.3405 O   0  0  0  0  0  0
  -26.5933  -34.8795   22.4484 O   0  0  0  0  0  0
  -23.6370  -32.0515   23.5383 O   0  0  0  0  0  0
  -28.9205  -18.9472   21.4822 C   0  0  0  0  0  0
  -29.2588  -20.2972   20.3452 C   0  0  0  0  0  0
  -28.4043  -18.0428   18.5055 C   0  0  0  0  0  0
  -27.4172  -17.0530   19.6114 C   0  0  0  0  0  0
  -28.2693  -17.8770   17.0107 C   0  0  0  0  0  0
  -22.7740  -19.5862   22.0584 C   0  0  0  0  0  0
  -22.2728  -20.3245   19.7787 C   0  0  0  0  0  0
  -25.8063  -19.0127   22.3913 C   0  0  0  0  0  0
  -22.9013  -15.4537   17.4042 C   0  0  0  0  0  0
  -25.9320  -16.9945   19.1459 C   0  0  0  0  0  0
  -28.3794  -22.3892   20.3164 C   0  0  0  0  0  0
  -27.1774  -19.2064   20.0416 C   0  0  0  0  0  0
  -22.9700  -17.9289   20.1631 C   0  0  0  0  0  0
  -25.1700  -15.9968   18.2485 C   0  0  0  0  0  0
  -23.1700  -17.5596   18.6609 C   0  0  0  0  0  0
  -24.6772  -19.9711   20.3115 C   0  0  0  0  0  0
  -23.2233  -19.4101   20.5870 C   0  0  0  0  0  0
  -27.8198  -17.5387   21.3172 N   0  0  0  0  0  0
  -29.2655  -19.3857   18.9854 N   0  0  0  0  0  0
  -25.9092  -19.3896   20.9481 N   0  3  1  0  0  0
  -23.6793  -16.1564   18.4516 N   0  3  1  0  0  0
  -31.1926  -14.3790   19.0448 H   0  0  0  0  0  0
  -30.7796  -13.3012   20.3121 H   0  0  0  0  0  0
  -30.2767  -12.2299   18.1048 H   0  0  0  0  0  0
  -29.3871  -13.6195   17.5679 H   0  0  0  0  0  0
  -28.5378  -11.5093   19.5342 H   0  0  0  0  0  0
  -27.6679  -12.0428   18.1239 H   0  0  0  0  0  0
  -27.3010  -14.2022   19.1436 H   0  0  0  0  0  0
  -29.0180  -13.4484   21.5225 H   0  0  0  0  0  0
  -27.9269  -14.7573   21.5537 H   0  0  0  0  0  0
  -25.2960   -9.5343   22.4381 H   0  0  0  0  0  0
  -23.9909   -7.4489   22.7414 H   0  0  0  0  0  0
  -21.0820   -8.8656   19.8821 H   0  0  0  0  0  0
  -22.3888  -10.9369   19.5802 H   0  0  0  0  0  0
  -21.1932   -7.6129   23.9908 H   0  0  0  0  0  0
  -21.1349   -6.0418   25.9201 H   0  0  0  0  0  0
  -22.0672   -2.7619   23.2942 H   0  0  0  0  0  0
  -22.3068  -11.9307   22.4476 H   0  0  0  0  0  0
  -21.0271  -13.0557   22.1425 H   0  0  0  0  0  0
  -24.7362  -15.4720   21.6801 H   0  0  0  0  0  0
  -26.3284  -15.4515   21.2595 H   0  0  0  0  0  0
  -26.7932  -32.4433   23.0516 H   0  0  0  0  0  0
  -24.9920  -33.8840   24.9546 H   0  0  0  0  0  0
  -22.9879  -31.1207   21.1951 H   0  0  0  0  0  0
  -23.3781  -35.9289   23.3224 H   0  0  0  0  0  0
  -24.3538  -36.8821   22.2109 H   0  0  0  0  0  0
  -23.7237  -37.6104   23.6888 H   0  0  0  0  0  0
  -26.4870  -30.8960   20.6524 H   0  0  0  0  0  0
  -27.0484  -30.3216   22.1572 H   0  0  0  0  0  0
  -28.2532  -27.7671   21.4246 H   0  0  0  0  0  0
  -25.8391  -25.2654   18.9938 H   0  0  0  0  0  0
  -24.2000  -26.9745   18.9108 H   0  0  0  0  0  0
  -24.1455  -30.2026   19.3488 H   0  0  0  0  0  0
  -23.0160  -28.9692   19.8005 H   0  0  0  0  0  0
  -25.1419  -36.1326   25.0705 H   0  0  0  0  0  0
  -21.0124  -28.3536   24.1149 H   0  0  0  0  0  0
  -20.5616  -26.2506   23.3760 H   0  0  0  0  0  0
  -21.6669  -26.7265   22.1294 H   0  0  0  0  0  0
  -19.6926  -25.6207   21.1374 H   0  0  0  0  0  0
  -19.6754  -27.3062   20.6706 H   0  0  0  0  0  0
  -17.4264  -26.6757   21.4007 H   0  0  0  0  0  0
  -18.0320  -26.0166   22.9041 H   0  0  0  0  0  0
  -19.8041  -30.7440   24.2033 H   0  0  0  0  0  0
  -17.5084  -31.6284   24.5178 H   0  0  0  0  0  0
  -15.5422  -30.2927   23.7780 H   0  0  0  0  0  0
  -15.8786  -28.0781   22.7157 H   0  0  0  0  0  0
  -24.5792  -30.7295   25.7351 H   0  0  0  0  0  0
  -24.8734  -32.3238   26.4127 H   0  0  0  0  0  0
  -25.7546  -30.9323   27.0165 H   0  0  0  0  0  0
  -26.3599  -29.6077   24.2177 H   0  0  0  0  0  0
  -27.4022  -29.7431   25.6045 H   0  0  0  0  0  0
  -27.9626  -30.3671   24.0823 H   0  0  0  0  0  0
  -27.2468  -33.3897   26.1630 H   0  0  0  0  0  0
  -28.4029  -32.6805   25.0478 H   0  0  0  0  0  0
  -28.0474  -31.8903   26.5753 H   0  0  0  0  0  0
  -28.2483  -38.0003   24.7511 H   0  0  0  0  0  0
  -28.1110  -36.2515   24.6275 H   0  0  0  0  0  0
  -27.2256  -37.1258   25.8857 H   0  0  0  0  0  0
  -21.0189  -29.8467   21.6088 H   0  0  0  0  0  0
  -26.0007  -38.2515   24.1427 H   0  0  0  0  0  0
  -28.9708  -19.2335   22.5225 H   0  0  0  0  0  0
  -28.0395  -16.8398   16.7732 H   0  0  0  0  0  0
  -29.1792  -18.1708   16.4886 H   0  0  0  0  0  0
  -27.4542  -18.4960   16.6443 H   0  0  0  0  0  0
  -21.6954  -19.4554   22.1606 H   0  0  0  0  0  0
  -23.0082  -20.5838   22.4332 H   0  0  0  0  0  0
  -23.2042  -18.8507   22.7346 H   0  0  0  0  0  0
  -21.2257  -20.0613   19.9358 H   0  0  0  0  0  0
  -22.4609  -20.2855   18.7059 H   0  0  0  0  0  0
  -22.3850  -21.3686   20.0854 H   0  0  0  0  0  0
  -26.7446  -19.0759   22.9342 H   0  0  0  0  0  0
  -25.3908  -18.0197   22.5517 H   0  0  0  0  0  0
  -25.1941  -19.7387   22.9203 H   0  0  0  0  0  0
  -23.2372  -14.4266   17.2683 H   0  0  0  0  0  0
  -22.9858  -15.9737   16.4490 H   0  0  0  0  0  0
  -21.8426  -15.4057   17.6653 H   0  0  0  0  0  0
  -25.8267  -17.8700   18.5232 H   0  0  0  0  0  0
  -25.3773  -17.2065   20.0337 H   0  0  0  0  0  0
  -27.7275  -22.2652   21.1795 H   0  0  0  0  0  0
  -27.7453  -22.2511   19.4415 H   0  0  0  0  0  0
  -27.1476  -20.1948   20.4890 H   0  0  0  0  0  0
  -26.8406  -19.5678   19.0550 H   0  0  0  0  0  0
  -23.5228  -17.2736   20.8342 H   0  0  0  0  0  0
  -21.9455  -17.6632   20.4221 H   0  0  0  0  0  0
  -25.4391  -14.9591   18.4081 H   0  0  0  0  0  0
  -25.4217  -16.2014   17.2077 H   0  0  0  0  0  0
  -23.8030  -18.2792   18.1435 H   0  0  0  0  0  0
  -22.2063  -17.6971   18.1610 H   0  0  0  0  0  0
  -24.6905  -21.0065   20.6619 H   0  0  0  0  0  0
  -24.8178  -20.0560   19.2374 H   0  0  0  0  0  0
  -26.2392  -20.3034   21.2260 H   0  0  0  0  0  0
  -23.4455  -15.6633   19.3124 H   0  0  0  0  0  0
  1 25  1  0  0  0
  1 30  2  0  0  0
  1 82  1  0  0  0
  2  3  1  0  0  0
  2 25  1  0  0  0
  2 92  1  0  0  0
  2 93  1  0  0  0
  3  4  1  0  0  0
  3 94  1  0  0  0
  3 95  1  0  0  0
  4  5  1  0  0  0
  4 96  1  0  0  0
  4 97  1  0  0  0
  5  6  1  0  0  0
  5 26  1  0  0  0
  5 98  1  0  0  0
  6 25  1  0  0  0
  6 99  1  0  0  0
  6100  1  0  0  0
  7  8  2  0  0  0
  7 26  1  0  0  0
  7 29  1  0  0  0
  8  9  1  0  0  0
  8 22  1  0  0  0
  9 10  1  0  0  0
  9 27  2  0  0  0
 10 11  2  0  0  0
 10 15  1  0  0  0
 11 12  1  0  0  0
 11101  1  0  0  0
 12 13  2  0  0  0
 12102  1  0  0  0
 13 14  1  0  0  0
 13 31  1  0  0  0
 14 15  2  0  0  0
 14103  1  0  0  0
 15104  1  0  0  0
 16 17  2  0  0  0
 16 21  1  0  0  0
 16 31  1  0  0  0
 17 18  1  0  0  0
 17105  1  0  0  0
 18 19  2  0  0  0
 18106  1  0  0  0
 19 20  1  0  0  0
 19 24  1  0  0  0
 20 21  2  0  0  0
 20107  1  0  0  0
 21 23  1  0  0  0
 22 28  1  0  0  0
 22 32  2  0  0  0
 26 27  1  0  0  0
 28108  1  0  0  0
 28109  1  0  0  0
 29110  1  0  0  0
 29111  1  0  0  0
 33 34  1  0  0  0
 33 66  1  0  0  0
 33 70  2  0  0  0
 34 36  1  0  0  0
 34 59  1  0  0  0
 34112  1  0  0  0
 35 44  2  0  0  0
 35 45  1  0  0  0
 35 68  1  0  0  0
 36 56  1  0  0  0
 36113  1  0  0  0
 37 39  1  0  0  0
 37 47  1  0  0  0
 37 66  1  0  0  0
 37114  1  0  0  0
 38 43  2  0  0  0
 38 46  1  0  0  0
 38 47  1  0  0  0
 39 64  1  0  0  0
 39 67  2  0  0  0
 40 52  1  0  0  0
 40 53  2  0  0  0
 40 58  1  0  0  0
 41115  1  0  0  0
 41116  1  0  0  0
 41117  1  0  0  0
 41 48  1  0  0  0
 42 43  1  0  0  0
 42 66  1  0  0  0
 42118  1  0  0  0
 42119  1  0  0  0
 43 44  1  0  0  0
 44120  1  0  0  0
 45 46  2  0  0  0
 45121  1  0  0  0
 46122  1  0  0  0
 47123  1  0  0  0
 47124  1  0  0  0
 48 56  1  0  0  0
 48 65  1  0  0  0
 48125  1  0  0  0
 49 50  1  0  0  0
 49 53  1  0  0  0
 49 64  1  0  0  0
 49126  1  0  0  0
 50 51  1  0  0  0
 50127  1  0  0  0
 50128  1  0  0  0
 51 52  1  0  0  0
 51129  1  0  0  0
 51130  1  0  0  0
 52131  1  0  0  0
 52132  1  0  0  0
 53 54  1  0  0  0
 54 55  2  0  0  0
 54133  1  0  0  0
 55 57  1  0  0  0
 55134  1  0  0  0
 56 69  2  0  0  0
 57 58  2  0  0  0
 57135  1  0  0  0
 58136  1  0  0  0
 59 60  1  0  0  0
 59 61  1  0  0  0
 59 62  1  0  0  0
 60137  1  0  0  0
 60138  1  0  0  0
 60139  1  0  0  0
 61140  1  0  0  0
 61141  1  0  0  0
 61142  1  0  0  0
 62143  1  0  0  0
 62144  1  0  0  0
 62145  1  0  0  0
 63 65  1  0  0  0
 63146  1  0  0  0
 63147  1  0  0  0
 63148  1  0  0  0
 64149  1  0  0  0
 65150  1  0  0  0
 68 81  1  0  0  0
 71 72  2  0  0  0
 71 88  1  0  0  0
 71151  1  0  0  0
 72 81  1  0  0  0
 72 89  1  0  0  0
 73 74  1  0  0  0
 73 75  1  0  0  0
 73 89  2  0  0  0
 74 80  1  0  0  0
 74 88  2  0  0  0
 75152  1  0  0  0
 75153  1  0  0  0
 75154  1  0  0  0
 76155  1  0  0  0
 76156  1  0  0  0
 76157  1  0  0  0
 76 87  1  0  0  0
 77 87  1  0  0  0
 77158  1  0  0  0
 77159  1  0  0  0
 77160  1  0  0  0
 78161  1  0  0  0
 78162  1  0  0  0
 78163  1  0  0  0
 78 90  1  0  0  0
 79164  1  0  0  0
 79165  1  0  0  0
 79166  1  0  0  0
 79 91  1  0  0  0
 80 84  1  0  0  0
 80167  1  0  0  0
 80168  1  0  0  0
 81169  1  0  0  0
 81170  1  0  0  0
 82 90  1  0  0  0
 82171  1  0  0  0
 82172  1  0  0  0
 83 85  1  0  0  0
 83 87  1  0  0  0
 83173  1  0  0  0
 83174  1  0  0  0
 84 91  1  0  0  0
 84175  1  0  0  0
 84176  1  0  0  0
 85 91  1  0  0  0
 85177  1  0  0  0
 85178  1  0  0  0
 86 87  1  0  0  0
 86 90  1  0  0  0
 86179  1  0  0  0
 86180  1  0  0  0
 90181  1  0  0  0
 91182  1  0  0  0
M  CHG  2  90   1  91   1
M  ISO  4   1 100  68 101  81 101  82 100
M  END
> <chiral flag>
0

> <version>
0

> <s_m_source_file>
/data/baiqing/PycharmProjects/Reinvent-master-3.2/result/LINK_invent/BTK/process_docking_weight1_custom_sum_contain_oxygen_bond_distance_aromatic_linkinvent_7_9_3/rearranged_h_0052.sdf

> <i_m_source_file_index>
93

> <r_mmod_Potential_Energy-OPLS-2005>
16071.23828125

> <r_mmod_Stretch_Energy-OPLS-2005>
9311.0751953125

> <r_mmod_Bend_Energy-OPLS-2005>
1311.33349609375

> <r_mmod_Torsional_Energy-OPLS-2005>
487.003601074219

> <r_mmod_Improper_Torsional_Energy-OPLS-2005>
44.1189155578613

> <r_mmod_Van_der_Waal_Energy-OPLS-2005>
2309.44897460938

> <r_mmod_Electrostatic_Energy-OPLS-2005>
102.127754211426

> <r_mmod_Solvation_Energy-OPLS-2005>
-902.77734375

> <b_mmod_Minimization_Converged-OPLS-2005>
0

> <r_mmod_RMS_Derivative-OPLS-2005>
14.7025747299194

$$$$
93
                    3D
 Structure written by MMmdl.
163171  0  0  1  0            999 V2000
  -30.6999  -14.5594   20.5939 C   0  0  0  0  0  0
  -30.4251  -12.3707   19.4420 C   0  0  0  0  0  0
  -29.4991  -12.5233   18.2167 C   0  0  0  0  0  0
  -28.0199  -12.3684   18.6219 C   0  0  0  0  0  0
  -27.6533  -13.2155   19.8693 C   0  0  2  0  0  0
  -28.6941  -13.0064   20.9858 C   0  0  0  0  0  0
  -25.2515  -13.8169   20.5637 C   0  0  0  0  0  0
  -24.1789  -13.0428   20.9152 C   0  0  0  0  0  0
  -24.6371  -11.6905   20.8732 C   0  0  0  0  0  0
  -23.9047  -10.4289   21.0409 C   0  0  0  0  0  0
  -24.3610   -9.4206   21.9185 C   0  0  0  0  0  0
  -23.6287   -8.2241   22.0762 C   0  0  0  0  0  0
  -22.4275   -8.0278   21.3548 C   0  0  0  0  0  0
  -21.9902   -9.0245   20.4649 C   0  0  0  0  0  0
  -22.7219  -10.2124   20.3058 C   0  0  0  0  0  0
  -21.6852   -6.0738   22.5281 C   0  0  0  0  0  0
  -21.4001   -6.5639   23.8216 C   0  0  0  0  0  0
  -21.3661   -5.6795   24.9180 C   0  0  0  0  0  0
  -21.6041   -4.3055   24.7230 C   0  0  0  0  0  0
  -21.8816   -3.8144   23.4350 C   0  0  0  0  0  0
  -21.9197   -4.6966   22.3411 C   0  0  0  0  0  0
  -22.7814  -13.5225   21.1834 C   0  0  0  0  0  0
  -22.1671   -4.2147   21.0990 F   0  0  0  0  0  0
  -21.5629   -3.4541   25.7744 F   0  0  0  0  0  0
  -30.0136  -13.3764   20.4473 N   0  0  0  0  0  0
  -26.2968  -12.9358   20.3342 N   0  0  0  0  0  0
  -25.9302  -11.6508   20.5769 N   0  0  0  0  0  0
  -22.0462  -12.8246   22.0414 N   0  0  0  0  0  0
  -25.4137  -15.1886   20.4013 N   0  0  0  0  0  0
  -31.8201  -14.6837   20.0837 O   0  0  0  0  0  0
  -21.6638   -6.8877   21.4242 O   0  0  0  0  0  0
  -22.3476  -14.5527   20.6679 O   0  0  0  0  0  0
  -24.6201  -31.8644   23.2042 C   0  0  0  0  0  0
  -25.9076  -32.4799   23.8362 C   0  0  1  0  0  0
  -27.2269  -27.3776   20.1122 C   0  0  0  0  0  0
  -25.5912  -33.8593   24.2301 N   0  0  0  0  0  0
  -23.4096  -30.4859   21.5468 C   0  0  2  0  0  0
  -24.8558  -28.9411   20.1148 C   0  0  0  0  0  0
  -22.7432  -29.4639   22.4966 C   0  0  0  0  0  0
  -18.0276  -28.1374   22.8488 C   0  0  0  0  0  0
  -24.1485  -36.7297   23.2636 C   0  0  0  0  0  0
  -25.9426  -30.8142   21.3625 C   0  0  0  0  0  0
  -26.0205  -29.4431   20.7107 C   0  0  0  0  0  0
  -27.2126  -28.6726   20.6963 C   0  0  0  0  0  0
  -26.0444  -26.9002   19.5119 C   0  0  0  0  0  0
  -24.8662  -27.6723   19.5094 C   0  0  0  0  0  0
  -23.6208  -29.8158   20.1626 C   0  0  0  0  0  0
  -25.4106  -36.3091   24.0335 C   0  0  1  0  0  0
  -20.5873  -28.3670   23.1302 C   0  0  2  0  0  0
  -20.6764  -26.9399   22.5415 C   0  0  0  0  0  0
  -19.5745  -26.6383   21.5208 C   0  0  0  0  0  0
  -18.1925  -26.7919   22.1621 C   0  0  0  0  0  0
  -19.1528  -28.8836   23.2893 C   0  0  0  0  0  0
  -18.9455  -30.1440   23.8908 C   0  0  0  0  0  0
  -17.6458  -30.6582   24.0564 C   0  0  0  0  0  0
  -25.9038  -34.9461   23.5115 C   0  0  0  0  0  0
  -16.5349  -29.9085   23.6324 C   0  0  0  0  0  0
  -16.7265  -28.6500   23.0346 C   0  0  0  0  0  0
  -26.4486  -31.6579   25.0699 C   0  0  0  0  0  0
  -25.3740  -31.3703   26.1442 C   0  0  0  0  0  0
  -27.0313  -30.3014   24.6085 C   0  0  0  0  0  0
  -27.6058  -32.4293   25.7473 C   0  0  0  0  0  0
  -27.5578  -37.1802   24.8470 C   0  0  0  0  0  0
  -21.4155  -29.3036   22.3708 N   0  0  0  0  0  0
  -26.4291  -37.3779   23.9413 N   0  0  0  0  0  0
  -24.6762  -31.0697   22.0966 N   0  0  0  0  0  0
  -23.4184  -28.8183   23.3025 O   0  0  0  0  0  0
  -28.3737  -26.5975   20.0963 O   0  0  0  0  0  0
  -26.5604  -34.8925   22.4679 O   0  0  0  0  0  0
  -23.5379  -32.1421   23.7408 O   0  0  0  0  0  0
  -28.2259  -17.8023   19.5410 C   0  0  0  0  0  0
  -27.5675  -18.9748   19.3000 C   0  0  0  0  0  0
  -29.3806  -19.4582   20.4957 C   0  0  0  0  0  0
  -29.4004  -18.0834   20.2905 C   0  0  0  0  0  0
  -28.2326  -16.0981   22.7946 C   0  0  0  0  0  0
  -26.3874  -21.5663   20.4324 C   0  0  0  0  0  0
  -30.4792  -17.0520   20.6882 C   0  0  0  0  0  0
  -28.3664  -24.0435   19.6674 C   0  0  0  0  0  0
  -28.6937  -22.6162   20.2783 C   0  0  0  0  0  0
  -29.6871  -15.6618   22.5431 C   0  0  0  0  0  0
  -28.2931  -25.2548   20.6620 C   0  0  0  0  0  0
  -27.7764  -21.4440   19.7758 C   0  0  1  0  0  0
  -28.2558  -20.0290   19.8832 N   0  0  0  0  0  0
  -30.0574  -15.6668   21.1120 N   0  0  0  0  0  0
  -31.4675  -12.4757   19.1365 H   0  0  0  0  0  0
  -30.3478  -11.3643   19.8571 H   0  0  0  0  0  0
  -29.7577  -11.7894   17.4527 H   0  0  0  0  0  0
  -29.6529  -13.5039   17.7626 H   0  0  0  0  0  0
  -27.8425  -11.3126   18.8290 H   0  0  0  0  0  0
  -27.3714  -12.6270   17.7846 H   0  0  0  0  0  0
  -27.6898  -14.2636   19.5719 H   0  0  0  0  0  0
  -28.7028  -11.9614   21.2990 H   0  0  0  0  0  0
  -28.4088  -13.5483   21.8777 H   0  0  0  0  0  0
  -25.2753   -9.5682   22.4763 H   0  0  0  0  0  0
  -23.9990   -7.4629   22.7484 H   0  0  0  0  0  0
  -21.0836   -8.8753   19.8956 H   0  0  0  0  0  0
  -22.3668  -10.9662   19.6172 H   0  0  0  0  0  0
  -21.1976   -7.6143   23.9715 H   0  0  0  0  0  0
  -21.1494   -6.0529   25.9087 H   0  0  0  0  0  0
  -22.0593   -2.7603   23.2850 H   0  0  0  0  0  0
  -22.4060  -11.9910   22.4826 H   0  0  0  0  0  0
  -21.1086  -13.1291   22.2611 H   0  0  0  0  0  0
  -24.6388  -15.8350   20.5002 H   0  0  0  0  0  0
  -26.2806  -15.6455   20.1507 H   0  0  0  0  0  0
  -26.7137  -32.5494   23.1110 H   0  0  0  0  0  0
  -25.0077  -33.9747   25.0458 H   0  0  0  0  0  0
  -22.7004  -31.3040   21.4045 H   0  0  0  0  0  0
  -23.3745  -35.9631   23.3307 H   0  0  0  0  0  0
  -24.3584  -36.8900   22.2049 H   0  0  0  0  0  0
  -23.7239  -37.6502   23.6647 H   0  0  0  0  0  0
  -26.0566  -31.5772   20.5913 H   0  0  0  0  0  0
  -26.8299  -30.8715   21.9818 H   0  0  0  0  0  0
  -28.1133  -29.0582   21.1529 H   0  0  0  0  0  0
  -26.0322  -25.9271   19.0428 H   0  0  0  0  0  0
  -23.9727  -27.2809   19.0428 H   0  0  0  0  0  0
  -23.7337  -30.5909   19.4036 H   0  0  0  0  0  0
  -22.7420  -29.2413   19.8637 H   0  0  0  0  0  0
  -25.1277  -36.1950   25.0827 H   0  0  0  0  0  0
  -20.9963  -28.3238   24.1422 H   0  0  0  0  0  0
  -20.5654  -26.2277   23.3607 H   0  0  0  0  0  0
  -21.6635  -26.7432   22.1215 H   0  0  0  0  0  0
  -19.6914  -25.6296   21.1229 H   0  0  0  0  0  0
  -19.6683  -27.3200   20.6742 H   0  0  0  0  0  0
  -17.4192  -26.6661   21.4028 H   0  0  0  0  0  0
  -18.0334  -26.0057   22.9013 H   0  0  0  0  0  0
  -19.7932  -30.7249   24.2287 H   0  0  0  0  0  0
  -17.5015  -31.6263   24.5160 H   0  0  0  0  0  0
  -15.5350  -30.2993   23.7638 H   0  0  0  0  0  0
  -15.8664  -28.0826   22.7054 H   0  0  0  0  0  0
  -24.5920  -30.7035   25.7789 H   0  0  0  0  0  0
  -24.8924  -32.2864   26.4872 H   0  0  0  0  0  0
  -25.8094  -30.8895   27.0210 H   0  0  0  0  0  0
  -26.2865  -29.6776   24.1125 H   0  0  0  0  0  0
  -27.4064  -29.7247   25.4551 H   0  0  0  0  0  0
  -27.8708  -30.4321   23.9250 H   0  0  0  0  0  0
  -27.2680  -33.3585   26.2073 H   0  0  0  0  0  0
  -28.3869  -32.6858   25.0303 H   0  0  0  0  0  0
  -28.0718  -31.8390   26.5372 H   0  0  0  0  0  0
  -28.2600  -38.0092   24.7500 H   0  0  0  0  0  0
  -28.1068  -36.2625   24.6312 H   0  0  0  0  0  0
  -27.2302  -37.1465   25.8875 H   0  0  0  0  0  0
  -20.9323  -29.8769   21.6935 H   0  0  0  0  0  0
  -26.0177  -38.2855   24.1411 H   0  0  0  0  0  0
  -27.9106  -16.8331   19.1805 H   0  0  0  0  0  0
  -26.6552  -19.1552   18.7469 H   0  0  0  0  0  0
  -30.0883  -20.0938   21.0121 H   0  0  0  0  0  0
  -27.9818  -15.9955   23.8507 H   0  0  0  0  0  0
  -27.5133  -15.5111   22.2273 H   0  0  0  0  0  0
  -28.0792  -17.1436   22.5302 H   0  0  0  0  0  0
  -25.9637  -22.5607   20.2925 H   0  0  0  0  0  0
  -26.4434  -21.3788   21.5052 H   0  0  0  0  0  0
  -25.6709  -20.8606   20.0134 H   0  0  0  0  0  0
  -31.1146  -17.5006   21.4524 H   0  0  0  0  0  0
  -31.1225  -16.9940   19.8090 H   0  0  0  0  0  0
  -27.4299  -24.0042   19.1130 H   0  0  0  0  0  0
  -29.1237  -24.2625   18.9137 H   0  0  0  0  0  0
  -28.6424  -22.6600   21.3669 H   0  0  0  0  0  0
  -29.7337  -22.3819   20.0499 H   0  0  0  0  0  0
  -29.8574  -14.6823   22.9921 H   0  0  0  0  0  0
  -30.3531  -16.3138   23.1093 H   0  0  0  0  0  0
  -29.1366  -25.1756   21.3483 H   0  0  0  0  0  0
  -27.4054  -25.1544   21.2887 H   0  0  0  0  0  0
  -27.6421  -21.6078   18.7052 H   0  0  0  0  0  0
  1 25  1  0  0  0
  1 30  2  0  0  0
  1 84  1  0  0  0
  2  3  1  0  0  0
  2 25  1  0  0  0
  2 85  1  0  0  0
  2 86  1  0  0  0
  3  4  1  0  0  0
  3 87  1  0  0  0
  3 88  1  0  0  0
  4  5  1  0  0  0
  4 89  1  0  0  0
  4 90  1  0  0  0
  5  6  1  0  0  0
  5 26  1  0  0  0
  5 91  1  0  0  0
  6 25  1  0  0  0
  6 92  1  0  0  0
  6 93  1  0  0  0
  7  8  2  0  0  0
  7 26  1  0  0  0
  7 29  1  0  0  0
  8  9  1  0  0  0
  8 22  1  0  0  0
  9 10  1  0  0  0
  9 27  2  0  0  0
 10 11  2  0  0  0
 10 15  1  0  0  0
 11 12  1  0  0  0
 11 94  1  0  0  0
 12 13  2  0  0  0
 12 95  1  0  0  0
 13 14  1  0  0  0
 13 31  1  0  0  0
 14 15  2  0  0  0
 14 96  1  0  0  0
 15 97  1  0  0  0
 16 17  2  0  0  0
 16 21  1  0  0  0
 16 31  1  0  0  0
 17 18  1  0  0  0
 17 98  1  0  0  0
 18 19  2  0  0  0
 18 99  1  0  0  0
 19 20  1  0  0  0
 19 24  1  0  0  0
 20 21  2  0  0  0
 20100  1  0  0  0
 21 23  1  0  0  0
 22 28  1  0  0  0
 22 32  2  0  0  0
 26 27  1  0  0  0
 28101  1  0  0  0
 28102  1  0  0  0
 29103  1  0  0  0
 29104  1  0  0  0
 33 34  1  0  0  0
 33 66  1  0  0  0
 33 70  2  0  0  0
 34 36  1  0  0  0
 34 59  1  0  0  0
 34105  1  0  0  0
 35 44  2  0  0  0
 35 45  1  0  0  0
 35 68  1  0  0  0
 36 56  1  0  0  0
 36106  1  0  0  0
 37 39  1  0  0  0
 37 47  1  0  0  0
 37 66  1  0  0  0
 37107  1  0  0  0
 38 43  2  0  0  0
 38 46  1  0  0  0
 38 47  1  0  0  0
 39 64  1  0  0  0
 39 67  2  0  0  0
 40 52  1  0  0  0
 40 53  2  0  0  0
 40 58  1  0  0  0
 41108  1  0  0  0
 41109  1  0  0  0
 41110  1  0  0  0
 41 48  1  0  0  0
 42 43  1  0  0  0
 42 66  1  0  0  0
 42111  1  0  0  0
 42112  1  0  0  0
 43 44  1  0  0  0
 44113  1  0  0  0
 45 46  2  0  0  0
 45114  1  0  0  0
 46115  1  0  0  0
 47116  1  0  0  0
 47117  1  0  0  0
 48 56  1  0  0  0
 48 65  1  0  0  0
 48118  1  0  0  0
 49 50  1  0  0  0
 49 53  1  0  0  0
 49 64  1  0  0  0
 49119  1  0  0  0
 50 51  1  0  0  0
 50120  1  0  0  0
 50121  1  0  0  0
 51 52  1  0  0  0
 51122  1  0  0  0
 51123  1  0  0  0
 52124  1  0  0  0
 52125  1  0  0  0
 53 54  1  0  0  0
 54 55  2  0  0  0
 54126  1  0  0  0
 55 57  1  0  0  0
 55127  1  0  0  0
 56 69  2  0  0  0
 57 58  2  0  0  0
 57128  1  0  0  0
 58129  1  0  0  0
 59 60  1  0  0  0
 59 61  1  0  0  0
 59 62  1  0  0  0
 60130  1  0  0  0
 60131  1  0  0  0
 60132  1  0  0  0
 61133  1  0  0  0
 61134  1  0  0  0
 61135  1  0  0  0
 62136  1  0  0  0
 62137  1  0  0  0
 62138  1  0  0  0
 63 65  1  0  0  0
 63139  1  0  0  0
 63140  1  0  0  0
 63141  1  0  0  0
 64142  1  0  0  0
 65143  1  0  0  0
 68 81  1  0  0  0
 71 72  2  0  0  0
 71 74  1  0  0  0
 71144  1  0  0  0
 72 83  1  0  0  0
 72145  1  0  0  0
 73 74  2  0  0  0
 73 83  1  0  0  0
 73146  1  0  0  0
 74 77  1  0  0  0
 75 80  1  0  0  0
 75147  1  0  0  0
 75148  1  0  0  0
 75149  1  0  0  0
 76150  1  0  0  0
 76151  1  0  0  0
 76152  1  0  0  0
 76 82  1  0  0  0
 77 84  1  0  0  0
 77153  1  0  0  0
 77154  1  0  0  0
 78 79  1  0  0  0
 78 81  1  0  0  0
 78155  1  0  0  0
 78156  1  0  0  0
 79 82  1  0  0  0
 79157  1  0  0  0
 79158  1  0  0  0
 80 84  1  0  0  0
 80159  1  0  0  0
 80160  1  0  0  0
 81161  1  0  0  0
 81162  1  0  0  0
 82 83  1  0  0  0
 82163  1  0  0  0
M  ISO  4   1 100  68 101  81 101  84 100
M  END
> <chiral flag>
0

> <version>
0

> <s_m_source_file>
/data/baiqing/PycharmProjects/Reinvent-master-3.2/result/LINK_invent/BTK/process_docking_weight1_custom_sum_contain_oxygen_bond_distance_aromatic_linkinvent_7_9_3/rearranged_h_0052.sdf

> <i_m_source_file_index>
94

> <r_mmod_Potential_Energy-OPLS-2005>
175.270385742188

> <r_mmod_Stretch_Energy-OPLS-2005>
64.180290222168

> <r_mmod_Bend_Energy-OPLS-2005>
139.36051940918

> <r_mmod_Torsional_Energy-OPLS-2005>
313.106842041016

> <r_mmod_Improper_Torsional_Energy-OPLS-2005>
8.19328308105469

> <r_mmod_Van_der_Waal_Energy-OPLS-2005>
123.017379760742

> <r_mmod_Electrostatic_Energy-OPLS-2005>
-310.577819824219

> <r_mmod_Solvation_Energy-OPLS-2005>
-185.402008056641

> <b_mmod_Minimization_Converged-OPLS-2005>
0

> <r_mmod_RMS_Derivative-OPLS-2005>
1.23902726173401

$$$$
94
                    3D
 Structure written by MMmdl.
166174  0  0  1  0            999 V2000
  -30.5351  -14.9912   20.4156 C   0  0  0  0  0  0
  -30.4516  -12.6309   19.4746 C   0  0  0  0  0  0
  -29.5192  -12.5334   18.2465 C   0  0  0  0  0  0
  -28.0545  -12.3166   18.6785 C   0  0  0  0  0  0
  -27.6309  -13.2504   19.8420 C   0  0  2  0  0  0
  -28.6840  -13.2896   20.9682 C   0  0  0  0  0  0
  -25.2475  -13.8223   20.5731 C   0  0  0  0  0  0
  -24.1801  -13.0442   20.9220 C   0  0  0  0  0  0
  -24.6402  -11.6923   20.8705 C   0  0  0  0  0  0
  -23.9092  -10.4311   21.0412 C   0  0  0  0  0  0
  -24.3640   -9.4236   21.9197 C   0  0  0  0  0  0
  -23.6310   -8.2260   22.0764 C   0  0  0  0  0  0
  -22.4293   -8.0293   21.3552 C   0  0  0  0  0  0
  -21.9929   -9.0278   20.4658 C   0  0  0  0  0  0
  -22.7252  -10.2170   20.3080 C   0  0  0  0  0  0
  -21.6876   -6.0735   22.5286 C   0  0  0  0  0  0
  -21.4013   -6.5639   23.8224 C   0  0  0  0  0  0
  -21.3668   -5.6779   24.9180 C   0  0  0  0  0  0
  -21.6049   -4.3052   24.7222 C   0  0  0  0  0  0
  -21.8824   -3.8141   23.4350 C   0  0  0  0  0  0
  -21.9207   -4.6958   22.3408 C   0  0  0  0  0  0
  -22.7833  -13.5249   21.1884 C   0  0  0  0  0  0
  -22.1695   -4.2153   21.0984 F   0  0  0  0  0  0
  -21.5624   -3.4526   25.7736 F   0  0  0  0  0  0
  -29.9454  -13.7266   20.3489 N   0  0  0  0  0  0
  -26.2904  -12.9450   20.3278 N   0  0  0  0  0  0
  -25.9349  -11.6579   20.5754 N   0  0  0  0  0  0
  -22.0449  -12.8235   22.0421 N   0  0  0  0  0  0
  -25.4066  -15.1946   20.4138 N   0  0  0  0  0  0
  -31.7518  -15.0550   20.2143 O   0  0  0  0  0  0
  -21.6664   -6.8869   21.4248 O   0  0  0  0  0  0
  -22.3552  -14.5579   20.6758 O   0  0  0  0  0  0
  -24.6462  -31.8414   23.1872 C   0  0  0  0  0  0
  -25.9227  -32.4683   23.8274 C   0  0  1  0  0  0
  -27.2218  -27.0984   20.1608 C   0  0  0  0  0  0
  -25.5948  -33.8494   24.2195 N   0  0  0  0  0  0
  -23.4538  -30.4606   21.5328 C   0  0  2  0  0  0
  -24.9052  -28.8865   20.1079 C   0  0  0  0  0  0
  -22.7595  -29.4534   22.4851 C   0  0  0  0  0  0
  -18.0303  -28.1401   22.8477 C   0  0  0  0  0  0
  -24.1493  -36.7252   23.2640 C   0  0  0  0  0  0
  -26.0111  -30.7007   21.3970 C   0  0  0  0  0  0
  -26.0796  -29.3081   20.7421 C   0  0  0  0  0  0
  -27.2320  -28.4288   20.7602 C   0  0  0  0  0  0
  -26.0297  -26.8094   19.4521 C   0  0  0  0  0  0
  -24.8969  -27.6523   19.4463 C   0  0  0  0  0  0
  -23.6824  -29.7907   20.1521 C   0  0  0  0  0  0
  -25.4129  -36.3039   24.0316 C   0  0  1  0  0  0
  -20.5920  -28.3731   23.1221 C   0  0  2  0  0  0
  -20.6787  -26.9430   22.5406 C   0  0  0  0  0  0
  -19.5767  -26.6385   21.5213 C   0  0  0  0  0  0
  -18.1944  -26.7935   22.1627 C   0  0  0  0  0  0
  -19.1559  -28.8890   23.2837 C   0  0  0  0  0  0
  -18.9479  -30.1471   23.8874 C   0  0  0  0  0  0
  -17.6477  -30.6597   24.0553 C   0  0  0  0  0  0
  -25.9075  -34.9399   23.5065 C   0  0  0  0  0  0
  -16.5369  -29.9091   23.6332 C   0  0  0  0  0  0
  -16.7284  -28.6511   23.0359 C   0  0  0  0  0  0
  -26.4534  -31.6548   25.0720 C   0  0  0  0  0  0
  -25.3702  -31.3746   26.1402 C   0  0  0  0  0  0
  -27.0395  -30.2935   24.6321 C   0  0  0  0  0  0
  -27.6067  -32.4306   25.7491 C   0  0  0  0  0  0
  -27.5585  -37.1787   24.8471 C   0  0  0  0  0  0
  -21.4285  -29.3045   22.3597 N   0  0  0  0  0  0
  -26.4303  -37.3744   23.9410 N   0  0  0  0  0  0
  -24.7234  -31.0247   22.0928 N   0  0  0  0  0  0
  -23.4209  -28.8080   23.3024 O   0  0  0  0  0  0
  -28.2428  -26.0685   20.2933 O   0  0  0  0  0  0
  -26.5686  -34.8902   22.4660 O   0  0  0  0  0  0
  -23.5558  -32.1312   23.7061 O   0  0  0  0  0  0
  -28.9005  -21.8428   19.6442 C   0  0  0  0  0  0
  -28.8270  -22.6451   21.6474 C   0  0  0  0  0  0
  -28.6308  -23.1171   20.3669 C   0  0  0  0  0  0
  -29.1939  -20.6758   20.4109 C   0  0  0  0  0  0
  -31.8233  -20.6468   22.8789 C   0  0  0  0  0  0
  -30.6470  -20.0626   25.0398 C   0  0  0  0  0  0
  -30.4320  -19.1122   18.8051 C   0  0  0  0  0  0
  -28.0650  -18.6386   19.3361 C   0  0  0  0  0  0
  -28.0274  -24.5866   19.8141 C   0  0  0  0  0  0
  -29.2593  -20.5529   22.9715 C   0  0  0  0  0  0
  -29.9450  -17.7143   20.8554 C   0  0  0  0  0  0
  -30.5663  -20.8684   23.7335 C   0  0  0  0  0  0
  -29.4077  -19.0685   19.9540 C   0  0  0  0  0  0
  -29.1253  -21.2508   21.6984 N   0  0  0  0  0  0
  -29.7335  -16.1707   20.5058 N   0  0  0  0  0  0
  -31.4699  -12.8279   19.1372 H   0  0  0  0  0  0
  -30.4868  -11.6873   20.0210 H   0  0  0  0  0  0
  -29.8411  -11.7216   17.5910 H   0  0  0  0  0  0
  -29.5960  -13.4468   17.6526 H   0  0  0  0  0  0
  -27.9569  -11.2742   18.9853 H   0  0  0  0  0  0
  -27.3851  -12.4461   17.8284 H   0  0  0  0  0  0
  -27.5889  -14.2508   19.4116 H   0  0  0  0  0  0
  -28.7900  -12.3135   21.4493 H   0  0  0  0  0  0
  -28.3801  -13.9891   21.7503 H   0  0  0  0  0  0
  -25.2786   -9.5708   22.4783 H   0  0  0  0  0  0
  -24.0017   -7.4659   22.7482 H   0  0  0  0  0  0
  -21.0873   -8.8799   19.8972 H   0  0  0  0  0  0
  -22.3695  -10.9715   19.6197 H   0  0  0  0  0  0
  -21.1995   -7.6141   23.9717 H   0  0  0  0  0  0
  -21.1484   -6.0516   25.9083 H   0  0  0  0  0  0
  -22.0588   -2.7602   23.2847 H   0  0  0  0  0  0
  -22.4078  -11.9941   22.4845 H   0  0  0  0  0  0
  -21.1060  -13.1272   22.2628 H   0  0  0  0  0  0
  -24.6204  -15.8278   20.5162 H   0  0  0  0  0  0
  -26.2379  -15.6495   20.0609 H   0  0  0  0  0  0
  -26.7283  -32.5287   23.0980 H   0  0  0  0  0  0
  -25.0025  -33.9621   25.0295 H   0  0  0  0  0  0
  -22.7545  -31.2850   21.3777 H   0  0  0  0  0  0
  -23.3766  -35.9576   23.3298 H   0  0  0  0  0  0
  -24.3559  -36.8894   22.2053 H   0  0  0  0  0  0
  -23.7238  -37.6442   23.6676 H   0  0  0  0  0  0
  -26.1755  -31.4478   20.6209 H   0  0  0  0  0  0
  -26.8773  -30.7482   22.0428 H   0  0  0  0  0  0
  -28.1148  -28.7428   21.3004 H   0  0  0  0  0  0
  -25.9224  -25.8870   18.9045 H   0  0  0  0  0  0
  -24.0091  -27.3289   18.9181 H   0  0  0  0  0  0
  -23.8209  -30.5656   19.3981 H   0  0  0  0  0  0
  -22.7969  -29.2343   19.8412 H   0  0  0  0  0  0
  -25.1315  -36.1866   25.0809 H   0  0  0  0  0  0
  -20.9998  -28.3326   24.1350 H   0  0  0  0  0  0
  -20.5664  -26.2361   23.3641 H   0  0  0  0  0  0
  -21.6654  -26.7431   22.1212 H   0  0  0  0  0  0
  -19.6930  -25.6287   21.1262 H   0  0  0  0  0  0
  -19.6687  -27.3182   20.6729 H   0  0  0  0  0  0
  -17.4209  -26.6661   21.4032 H   0  0  0  0  0  0
  -18.0344  -26.0085   22.9035 H   0  0  0  0  0  0
  -19.7948  -30.7286   24.2241 H   0  0  0  0  0  0
  -17.5028  -31.6269   24.5162 H   0  0  0  0  0  0
  -15.5363  -30.2985   23.7672 H   0  0  0  0  0  0
  -15.8685  -28.0813   22.7101 H   0  0  0  0  0  0
  -24.5899  -30.7080   25.7714 H   0  0  0  0  0  0
  -24.8867  -32.2925   26.4750 H   0  0  0  0  0  0
  -25.7961  -30.8964   27.0232 H   0  0  0  0  0  0
  -26.3027  -29.6654   24.1308 H   0  0  0  0  0  0
  -27.3972  -29.7230   25.4902 H   0  0  0  0  0  0
  -27.8946  -30.4162   23.9676 H   0  0  0  0  0  0
  -27.2683  -33.3630   26.2019 H   0  0  0  0  0  0
  -28.3893  -32.6828   25.0323 H   0  0  0  0  0  0
  -28.0720  -31.8465   26.5441 H   0  0  0  0  0  0
  -28.2605  -38.0076   24.7505 H   0  0  0  0  0  0
  -28.1078  -36.2610   24.6319 H   0  0  0  0  0  0
  -27.2299  -37.1456   25.8871 H   0  0  0  0  0  0
  -20.9519  -29.8755   21.6759 H   0  0  0  0  0  0
  -26.0172  -38.2823   24.1386 H   0  0  0  0  0  0
  -28.8087  -21.7663   18.5701 H   0  0  0  0  0  0
  -28.7105  -23.1816   22.5798 H   0  0  0  0  0  0
  -31.8572  -21.3344   22.0321 H   0  0  0  0  0  0
  -31.8571  -19.6303   22.4878 H   0  0  0  0  0  0
  -32.7301  -20.8076   23.4650 H   0  0  0  0  0  0
  -31.5557  -20.2966   25.5967 H   0  0  0  0  0  0
  -30.6460  -18.9881   24.8480 H   0  0  0  0  0  0
  -29.7995  -20.2878   25.6882 H   0  0  0  0  0  0
  -31.4024  -19.4473   19.1743 H   0  0  0  0  0  0
  -30.5733  -18.1342   18.3486 H   0  0  0  0  0  0
  -30.1325  -19.7989   18.0136 H   0  0  0  0  0  0
  -27.7690  -19.3004   18.5214 H   0  0  0  0  0  0
  -27.2650  -18.6581   20.0772 H   0  0  0  0  0  0
  -28.1140  -17.6330   18.9175 H   0  0  0  0  0  0
  -26.9609  -24.3924   19.8798 H   0  0  0  0  0  0
  -28.2508  -24.6097   18.7477 H   0  0  0  0  0  0
  -28.4028  -20.8149   23.5925 H   0  0  0  0  0  0
  -29.1640  -19.4881   22.8143 H   0  0  0  0  0  0
  -30.9985  -17.8520   21.1076 H   0  0  0  0  0  0
  -29.4235  -17.7484   21.8070 H   0  0  0  0  0  0
  -30.5435  -21.9249   24.0076 H   0  0  0  0  0  0
  -28.7563  -15.9277   20.5156 H   0  0  0  0  0  0
  1 25  1  0  0  0
  1 30  2  0  0  0
  1 85  1  0  0  0
  2  3  1  0  0  0
  2 25  1  0  0  0
  2 86  1  0  0  0
  2 87  1  0  0  0
  3  4  1  0  0  0
  3 88  1  0  0  0
  3 89  1  0  0  0
  4  5  1  0  0  0
  4 90  1  0  0  0
  4 91  1  0  0  0
  5  6  1  0  0  0
  5 26  1  0  0  0
  5 92  1  0  0  0
  6 25  1  0  0  0
  6 93  1  0  0  0
  6 94  1  0  0  0
  7  8  2  0  0  0
  7 26  1  0  0  0
  7 29  1  0  0  0
  8  9  1  0  0  0
  8 22  1  0  0  0
  9 10  1  0  0  0
  9 27  2  0  0  0
 10 11  2  0  0  0
 10 15  1  0  0  0
 11 12  1  0  0  0
 11 95  1  0  0  0
 12 13  2  0  0  0
 12 96  1  0  0  0
 13 14  1  0  0  0
 13 31  1  0  0  0
 14 15  2  0  0  0
 14 97  1  0  0  0
 15 98  1  0  0  0
 16 17  2  0  0  0
 16 21  1  0  0  0
 16 31  1  0  0  0
 17 18  1  0  0  0
 17 99  1  0  0  0
 18 19  2  0  0  0
 18100  1  0  0  0
 19 20  1  0  0  0
 19 24  1  0  0  0
 20 21  2  0  0  0
 20101  1  0  0  0
 21 23  1  0  0  0
 22 28  1  0  0  0
 22 32  2  0  0  0
 26 27  1  0  0  0
 28102  1  0  0  0
 28103  1  0  0  0
 29104  1  0  0  0
 29105  1  0  0  0
 33 34  1  0  0  0
 33 66  1  0  0  0
 33 70  2  0  0  0
 34 36  1  0  0  0
 34 59  1  0  0  0
 34106  1  0  0  0
 35 44  2  0  0  0
 35 45  1  0  0  0
 35 68  1  0  0  0
 36 56  1  0  0  0
 36107  1  0  0  0
 37 39  1  0  0  0
 37 47  1  0  0  0
 37 66  1  0  0  0
 37108  1  0  0  0
 38 43  2  0  0  0
 38 46  1  0  0  0
 38 47  1  0  0  0
 39 64  1  0  0  0
 39 67  2  0  0  0
 40 52  1  0  0  0
 40 53  2  0  0  0
 40 58  1  0  0  0
 41109  1  0  0  0
 41110  1  0  0  0
 41111  1  0  0  0
 41 48  1  0  0  0
 42 43  1  0  0  0
 42 66  1  0  0  0
 42112  1  0  0  0
 42113  1  0  0  0
 43 44  1  0  0  0
 44114  1  0  0  0
 45 46  2  0  0  0
 45115  1  0  0  0
 46116  1  0  0  0
 47117  1  0  0  0
 47118  1  0  0  0
 48 56  1  0  0  0
 48 65  1  0  0  0
 48119  1  0  0  0
 49 50  1  0  0  0
 49 53  1  0  0  0
 49 64  1  0  0  0
 49120  1  0  0  0
 50 51  1  0  0  0
 50121  1  0  0  0
 50122  1  0  0  0
 51 52  1  0  0  0
 51123  1  0  0  0
 51124  1  0  0  0
 52125  1  0  0  0
 52126  1  0  0  0
 53 54  1  0  0  0
 54 55  2  0  0  0
 54127  1  0  0  0
 55 57  1  0  0  0
 55128  1  0  0  0
 56 69  2  0  0  0
 57 58  2  0  0  0
 57129  1  0  0  0
 58130  1  0  0  0
 59 60  1  0  0  0
 59 61  1  0  0  0
 59 62  1  0  0  0
 60131  1  0  0  0
 60132  1  0  0  0
 60133  1  0  0  0
 61134  1  0  0  0
 61135  1  0  0  0
 61136  1  0  0  0
 62137  1  0  0  0
 62138  1  0  0  0
 62139  1  0  0  0
 63 65  1  0  0  0
 63140  1  0  0  0
 63141  1  0  0  0
 63142  1  0  0  0
 64143  1  0  0  0
 65144  1  0  0  0
 68 79  1  0  0  0
 71 73  1  0  0  0
 71 74  2  0  0  0
 71145  1  0  0  0
 72 73  2  0  0  0
 72 84  1  0  0  0
 72146  1  0  0  0
 73 79  1  0  0  0
 74 83  1  0  0  0
 74 84  1  0  0  0
 75147  1  0  0  0
 75148  1  0  0  0
 75149  1  0  0  0
 75 82  1  0  0  0
 76 82  1  0  0  0
 76150  1  0  0  0
 76151  1  0  0  0
 76152  1  0  0  0
 77153  1  0  0  0
 77154  1  0  0  0
 77155  1  0  0  0
 77 83  1  0  0  0
 78 83  1  0  0  0
 78156  1  0  0  0
 78157  1  0  0  0
 78158  1  0  0  0
 79159  1  0  0  0
 79160  1  0  0  0
 80 82  1  0  0  0
 80 84  1  0  0  0
 80161  1  0  0  0
 80162  1  0  0  0
 81 83  1  0  0  0
 81 85  1  0  0  0
 81163  1  0  0  0
 81164  1  0  0  0
 82165  1  0  0  0
 85166  1  0  0  0
M  ISO  4   1 100  68 101  79 101  85 100
M  END
> <chiral flag>
0

> <version>
0

> <s_m_source_file>
/data/baiqing/PycharmProjects/Reinvent-master-3.2/result/LINK_invent/BTK/process_docking_weight1_custom_sum_contain_oxygen_bond_distance_aromatic_linkinvent_7_9_3/rearranged_h_0052.sdf

> <i_m_source_file_index>
95

> <r_mmod_Potential_Energy-OPLS-2005>
617.501892089844

> <r_mmod_Stretch_Energy-OPLS-2005>
300.863128662109

> <r_mmod_Bend_Energy-OPLS-2005>
325.871612548828

> <r_mmod_Torsional_Energy-OPLS-2005>
259.113494873047

> <r_mmod_Improper_Torsional_Energy-OPLS-2005>
6.70306873321533

> <r_mmod_Van_der_Waal_Energy-OPLS-2005>
109.101196289062

> <r_mmod_Electrostatic_Energy-OPLS-2005>
-410.179382324219

> <r_mmod_Solvation_Energy-OPLS-2005>
-207.424255371094

> <b_mmod_Minimization_Converged-OPLS-2005>
0

> <r_mmod_RMS_Derivative-OPLS-2005>
4.76618337631226

$$$$
95
                    3D
 Structure written by MMmdl.
166174  0  0  1  0            999 V2000
  -30.7680  -14.3997   20.6904 C   0  0  0  0  0  0
  -30.4174  -12.3059   19.4125 C   0  0  0  0  0  0
  -29.4900  -12.5236   18.2009 C   0  0  0  0  0  0
  -28.0123  -12.3712   18.6092 C   0  0  0  0  0  0
  -27.6657  -13.1939   19.8768 C   0  0  2  0  0  0
  -28.7033  -12.9296   20.9918 C   0  0  0  0  0  0
  -25.2610  -13.8138   20.5653 C   0  0  0  0  0  0
  -24.1847  -13.0434   20.9159 C   0  0  0  0  0  0
  -24.6383  -11.6897   20.8723 C   0  0  0  0  0  0
  -23.9039  -10.4295   21.0401 C   0  0  0  0  0  0
  -24.3606   -9.4214   21.9179 C   0  0  0  0  0  0
  -23.6284   -8.2246   22.0755 C   0  0  0  0  0  0
  -22.4264   -8.0282   21.3543 C   0  0  0  0  0  0
  -21.9897   -9.0250   20.4643 C   0  0  0  0  0  0
  -22.7216  -10.2129   20.3050 C   0  0  0  0  0  0
  -21.6851   -6.0735   22.5285 C   0  0  0  0  0  0
  -21.4012   -6.5637   23.8216 C   0  0  0  0  0  0
  -21.3657   -5.6792   24.9179 C   0  0  0  0  0  0
  -21.6043   -4.3056   24.7228 C   0  0  0  0  0  0
  -21.8820   -3.8145   23.4350 C   0  0  0  0  0  0
  -21.9190   -4.6964   22.3409 C   0  0  0  0  0  0
  -22.7875  -13.5252   21.1825 C   0  0  0  0  0  0
  -22.1661   -4.2153   21.0984 F   0  0  0  0  0  0
  -21.5629   -3.4539   25.7737 F   0  0  0  0  0  0
  -30.0392  -13.2635   20.4700 N   0  0  0  0  0  0
  -26.3034  -12.9282   20.3346 N   0  0  0  0  0  0
  -25.9306  -11.6455   20.5753 N   0  0  0  0  0  0
  -22.0500  -12.8256   22.0381 N   0  0  0  0  0  0
  -25.4348  -15.1849   20.4026 N   0  0  0  0  0  0
  -31.7917  -14.6119   20.0269 O   0  0  0  0  0  0
  -21.6636   -6.8874   21.4243 O   0  0  0  0  0  0
  -22.3573  -14.5567   20.6678 O   0  0  0  0  0  0
  -24.6108  -31.8684   23.2091 C   0  0  0  0  0  0
  -25.9012  -32.4816   23.8380 C   0  0  1  0  0  0
  -27.2410  -27.4652   20.0902 C   0  0  0  0  0  0
  -25.5880  -33.8612   24.2320 N   0  0  0  0  0  0
  -23.3950  -30.4921   21.5483 C   0  0  2  0  0  0
  -24.8422  -28.9541   20.1167 C   0  0  0  0  0  0
  -22.7391  -29.4659   22.4998 C   0  0  0  0  0  0
  -18.0265  -28.1370   22.8476 C   0  0  0  0  0  0
  -24.1491  -36.7323   23.2643 C   0  0  0  0  0  0
  -25.9195  -30.8454   21.3537 C   0  0  0  0  0  0
  -25.9980  -29.4803   20.7043 C   0  0  0  0  0  0
  -27.1988  -28.7420   20.6850 C   0  0  0  0  0  0
  -26.0667  -26.9365   19.5106 C   0  0  0  0  0  0
  -24.8688  -27.6804   19.5202 C   0  0  0  0  0  0
  -23.6009  -29.8168   20.1645 C   0  0  0  0  0  0
  -25.4104  -36.3113   24.0348 C   0  0  1  0  0  0
  -20.5859  -28.3641   23.1338 C   0  0  2  0  0  0
  -20.6750  -26.9379   22.5428 C   0  0  0  0  0  0
  -19.5735  -26.6379   21.5215 C   0  0  0  0  0  0
  -18.1909  -26.7913   22.1619 C   0  0  0  0  0  0
  -19.1515  -28.8819   23.2894 C   0  0  0  0  0  0
  -18.9454  -30.1430   23.8894 C   0  0  0  0  0  0
  -17.6460  -30.6575   24.0562 C   0  0  0  0  0  0
  -25.9036  -34.9474   23.5136 C   0  0  0  0  0  0
  -16.5344  -29.9082   23.6330 C   0  0  0  0  0  0
  -16.7256  -28.6508   23.0326 C   0  0  0  0  0  0
  -26.4454  -31.6585   25.0694 C   0  0  0  0  0  0
  -25.3734  -31.3689   26.1461 C   0  0  0  0  0  0
  -27.0280  -30.3038   24.6025 C   0  0  0  0  0  0
  -27.6031  -32.4306   25.7451 C   0  0  0  0  0  0
  -27.5576  -37.1806   24.8461 C   0  0  0  0  0  0
  -21.4123  -29.3015   22.3744 N   0  0  0  0  0  0
  -26.4292  -37.3795   23.9414 N   0  0  0  0  0  0
  -24.6595  -31.0830   22.0958 N   0  0  0  0  0  0
  -23.4192  -28.8202   23.3017 O   0  0  0  0  0  0
  -28.4508  -26.8146   20.0773 O   0  0  0  0  0  0
  -26.5609  -34.8926   22.4706 O   0  0  0  0  0  0
  -23.5315  -32.1403   23.7526 O   0  0  0  0  0  0
  -30.4131  -22.8044   21.6420 C   0  0  0  0  0  0
  -30.7517  -21.5492   19.9118 C   0  0  0  0  0  0
  -30.2128  -23.5431   20.4995 C   0  0  0  0  0  0
  -30.4542  -20.5145   23.5213 C   0  0  0  0  0  0
  -29.0184  -16.1469   21.4229 C   0  0  0  0  0  0
  -30.4237  -14.9055   23.1901 C   0  0  0  0  0  0
  -29.9333  -25.0148   20.3899 C   0  0  0  0  0  0
  -30.9331  -19.0005   21.4963 C   0  0  0  0  0  0
  -31.3634  -17.8045   22.3859 C   0  0  0  0  0  0
  -28.4894  -25.3933   20.0170 C   0  0  0  0  0  0
  -31.1442  -20.3975   22.1429 C   0  0  1  0  0  0
  -30.3876  -15.4912   21.7540 C   0  0  0  0  0  0
  -30.4240  -22.7303   19.3895 N   0  0  0  0  0  0
  -30.7464  -21.5051   21.2568 N   0  0  0  0  0  0
  -31.4655  -16.5236   21.6413 N   0  3  0  0  0  0
  -31.4613  -12.3941   19.1073 H   0  0  0  0  0  0
  -30.3176  -11.2849   19.7848 H   0  0  0  0  0  0
  -29.7333  -11.8130   17.4100 H   0  0  0  0  0  0
  -29.6572  -13.5179   17.7838 H   0  0  0  0  0  0
  -27.8238  -11.3128   18.7931 H   0  0  0  0  0  0
  -27.3610  -12.6568   17.7826 H   0  0  0  0  0  0
  -27.7223  -14.2454   19.5976 H   0  0  0  0  0  0
  -28.6835  -11.8746   21.2716 H   0  0  0  0  0  0
  -28.4236  -13.4478   21.9016 H   0  0  0  0  0  0
  -25.2753   -9.5701   22.4744 H   0  0  0  0  0  0
  -24.0000   -7.4646   22.7482 H   0  0  0  0  0  0
  -21.0826   -8.8755   19.8953 H   0  0  0  0  0  0
  -22.3668  -10.9664   19.6155 H   0  0  0  0  0  0
  -21.2001   -7.6147   23.9723 H   0  0  0  0  0  0
  -21.1477   -6.0519   25.9082 H   0  0  0  0  0  0
  -22.0597   -2.7608   23.2849 H   0  0  0  0  0  0
  -22.4092  -11.9908   22.4782 H   0  0  0  0  0  0
  -21.1121  -13.1296   22.2565 H   0  0  0  0  0  0
  -24.6682  -15.8408   20.5058 H   0  0  0  0  0  0
  -26.2843  -15.6208   20.0688 H   0  0  0  0  0  0
  -26.7071  -32.5552   23.1140 H   0  0  0  0  0  0
  -24.9999  -33.9762   25.0442 H   0  0  0  0  0  0
  -22.6832  -31.3074   21.4078 H   0  0  0  0  0  0
  -23.3742  -35.9667   23.3314 H   0  0  0  0  0  0
  -24.3588  -36.8933   22.2054 H   0  0  0  0  0  0
  -23.7250  -37.6537   23.6649 H   0  0  0  0  0  0
  -26.0277  -31.6134   20.5867 H   0  0  0  0  0  0
  -26.8086  -30.9029   21.9679 H   0  0  0  0  0  0
  -28.0981  -29.1476   21.1251 H   0  0  0  0  0  0
  -26.0685  -25.9667   19.0358 H   0  0  0  0  0  0
  -23.9769  -27.2695   19.0679 H   0  0  0  0  0  0
  -23.7012  -30.5881   19.4006 H   0  0  0  0  0  0
  -22.7260  -29.2321   19.8718 H   0  0  0  0  0  0
  -25.1274  -36.1983   25.0840 H   0  0  0  0  0  0
  -20.9935  -28.3199   24.1466 H   0  0  0  0  0  0
  -20.5666  -26.2226   23.3605 H   0  0  0  0  0  0
  -21.6617  -26.7428   22.1209 H   0  0  0  0  0  0
  -19.6899  -25.6300   21.1216 H   0  0  0  0  0  0
  -19.6685  -27.3214   20.6773 H   0  0  0  0  0  0
  -17.4180  -26.6669   21.4018 H   0  0  0  0  0  0
  -18.0296  -26.0060   22.9017 H   0  0  0  0  0  0
  -19.7935  -30.7240   24.2253 H   0  0  0  0  0  0
  -17.5023  -31.6257   24.5161 H   0  0  0  0  0  0
  -15.5341  -30.2979   23.7665 H   0  0  0  0  0  0
  -15.8658  -28.0845   22.7007 H   0  0  0  0  0  0
  -24.5890  -30.7056   25.7805 H   0  0  0  0  0  0
  -24.8940  -32.2851   26.4929 H   0  0  0  0  0  0
  -25.8098  -30.8840   27.0204 H   0  0  0  0  0  0
  -26.2803  -29.6799   24.1110 H   0  0  0  0  0  0
  -27.4127  -29.7274   25.4450 H   0  0  0  0  0  0
  -27.8604  -30.4382   23.9110 H   0  0  0  0  0  0
  -27.2639  -33.3592   26.2060 H   0  0  0  0  0  0
  -28.3814  -32.6888   25.0253 H   0  0  0  0  0  0
  -28.0720  -31.8404   26.5343 H   0  0  0  0  0  0
  -28.2585  -38.0100   24.7511 H   0  0  0  0  0  0
  -28.1077  -36.2644   24.6285 H   0  0  0  0  0  0
  -27.2309  -37.1457   25.8863 H   0  0  0  0  0  0
  -20.9278  -29.8766   21.6987 H   0  0  0  0  0  0
  -26.0193  -38.2882   24.1409 H   0  0  0  0  0  0
  -30.3715  -23.1178   22.6763 H   0  0  0  0  0  0
  -31.0227  -20.7092   19.2883 H   0  0  0  0  0  0
  -30.7671  -19.7296   24.2078 H   0  0  0  0  0  0
  -29.3692  -20.4666   23.4277 H   0  0  0  0  0  0
  -30.7084  -21.4473   24.0248 H   0  0  0  0  0  0
  -28.1690  -15.4945   21.5942 H   0  0  0  0  0  0
  -28.9690  -16.4777   20.3850 H   0  0  0  0  0  0
  -28.8192  -17.0128   22.0524 H   0  0  0  0  0  0
  -29.9624  -15.5826   23.9092 H   0  0  0  0  0  0
  -31.4460  -14.7220   23.5245 H   0  0  0  0  0  0
  -29.9053  -13.9555   23.2918 H   0  0  0  0  0  0
  -30.6128  -25.4631   19.6645 H   0  0  0  0  0  0
  -30.1731  -25.4913   21.3416 H   0  0  0  0  0  0
  -29.8897  -18.8950   21.2000 H   0  0  0  0  0  0
  -31.5182  -18.9550   20.5773 H   0  0  0  0  0  0
  -30.7104  -17.6938   23.2509 H   0  0  0  0  0  0
  -32.3553  -18.0121   22.7882 H   0  0  0  0  0  0
  -27.7840  -24.9584   20.7268 H   0  0  0  0  0  0
  -28.2396  -25.0369   19.0165 H   0  0  0  0  0  0
  -32.2164  -20.5189   22.3061 H   0  0  0  0  0  0
  -32.3099  -16.0621   21.9423 H   0  0  0  0  0  0
  -31.6172  -16.6839   20.6569 H   0  0  0  0  0  0
  1 25  1  0  0  0
  1 30  2  0  0  0
  1 82  1  0  0  0
  2  3  1  0  0  0
  2 25  1  0  0  0
  2 86  1  0  0  0
  2 87  1  0  0  0
  3  4  1  0  0  0
  3 88  1  0  0  0
  3 89  1  0  0  0
  4  5  1  0  0  0
  4 90  1  0  0  0
  4 91  1  0  0  0
  5  6  1  0  0  0
  5 26  1  0  0  0
  5 92  1  0  0  0
  6 25  1  0  0  0
  6 93  1  0  0  0
  6 94  1  0  0  0
  7  8  2  0  0  0
  7 26  1  0  0  0
  7 29  1  0  0  0
  8  9  1  0  0  0
  8 22  1  0  0  0
  9 10  1  0  0  0
  9 27  2  0  0  0
 10 11  2  0  0  0
 10 15  1  0  0  0
 11 12  1  0  0  0
 11 95  1  0  0  0
 12 13  2  0  0  0
 12 96  1  0  0  0
 13 14  1  0  0  0
 13 31  1  0  0  0
 14 15  2  0  0  0
 14 97  1  0  0  0
 15 98  1  0  0  0
 16 17  2  0  0  0
 16 21  1  0  0  0
 16 31  1  0  0  0
 17 18  1  0  0  0
 17 99  1  0  0  0
 18 19  2  0  0  0
 18100  1  0  0  0
 19 20  1  0  0  0
 19 24  1  0  0  0
 20 21  2  0  0  0
 20101  1  0  0  0
 21 23  1  0  0  0
 22 28  1  0  0  0
 22 32  2  0  0  0
 26 27  1  0  0  0
 28102  1  0  0  0
 28103  1  0  0  0
 29104  1  0  0  0
 29105  1  0  0  0
 33 34  1  0  0  0
 33 66  1  0  0  0
 33 70  2  0  0  0
 34 36  1  0  0  0
 34 59  1  0  0  0
 34106  1  0  0  0
 35 44  2  0  0  0
 35 45  1  0  0  0
 35 68  1  0  0  0
 36 56  1  0  0  0
 36107  1  0  0  0
 37 39  1  0  0  0
 37 47  1  0  0  0
 37 66  1  0  0  0
 37108  1  0  0  0
 38 43  2  0  0  0
 38 46  1  0  0  0
 38 47  1  0  0  0
 39 64  1  0  0  0
 39 67  2  0  0  0
 40 52  1  0  0  0
 40 53  2  0  0  0
 40 58  1  0  0  0
 41109  1  0  0  0
 41110  1  0  0  0
 41111  1  0  0  0
 41 48  1  0  0  0
 42 43  1  0  0  0
 42 66  1  0  0  0
 42112  1  0  0  0
 42113  1  0  0  0
 43 44  1  0  0  0
 44114  1  0  0  0
 45 46  2  0  0  0
 45115  1  0  0  0
 46116  1  0  0  0
 47117  1  0  0  0
 47118  1  0  0  0
 48 56  1  0  0  0
 48 65  1  0  0  0
 48119  1  0  0  0
 49 50  1  0  0  0
 49 53  1  0  0  0
 49 64  1  0  0  0
 49120  1  0  0  0
 50 51  1  0  0  0
 50121  1  0  0  0
 50122  1  0  0  0
 51 52  1  0  0  0
 51123  1  0  0  0
 51124  1  0  0  0
 52125  1  0  0  0
 52126  1  0  0  0
 53 54  1  0  0  0
 54 55  2  0  0  0
 54127  1  0  0  0
 55 57  1  0  0  0
 55128  1  0  0  0
 56 69  2  0  0  0
 57 58  2  0  0  0
 57129  1  0  0  0
 58130  1  0  0  0
 59 60  1  0  0  0
 59 61  1  0  0  0
 59 62  1  0  0  0
 60131  1  0  0  0
 60132  1  0  0  0
 60133  1  0  0  0
 61134  1  0  0  0
 61135  1  0  0  0
 61136  1  0  0  0
 62137  1  0  0  0
 62138  1  0  0  0
 62139  1  0  0  0
 63 65  1  0  0  0
 63140  1  0  0  0
 63141  1  0  0  0
 63142  1  0  0  0
 64143  1  0  0  0
 65144  1  0  0  0
 68 80  1  0  0  0
 71 73  2  0  0  0
 71 84  1  0  0  0
 71145  1  0  0  0
 72 83  2  0  0  0
 72 84  1  0  0  0
 72146  1  0  0  0
 73 77  1  0  0  0
 73 83  1  0  0  0
 74147  1  0  0  0
 74148  1  0  0  0
 74149  1  0  0  0
 74 81  1  0  0  0
 75150  1  0  0  0
 75151  1  0  0  0
 75152  1  0  0  0
 75 82  1  0  0  0
 76 82  1  0  0  0
 76153  1  0  0  0
 76154  1  0  0  0
 76155  1  0  0  0
 77 80  1  0  0  0
 77156  1  0  0  0
 77157  1  0  0  0
 78 79  1  0  0  0
 78 81  1  0  0  0
 78158  1  0  0  0
 78159  1  0  0  0
 79 85  1  0  0  0
 79160  1  0  0  0
 79161  1  0  0  0
 80162  1  0  0  0
 80163  1  0  0  0
 81 84  1  0  0  0
 81164  1  0  0  0
 82 85  1  0  0  0
 85165  1  0  0  0
 85166  1  0  0  0
M  CHG  1  85   1
M  ISO  4   1 100  68 101  80 101  82 100
M  END
> <chiral flag>
0

> <version>
0

> <s_m_source_file>
/data/baiqing/PycharmProjects/Reinvent-master-3.2/result/LINK_invent/BTK/process_docking_weight1_custom_sum_contain_oxygen_bond_distance_aromatic_linkinvent_7_9_3/rearranged_h_0052.sdf

> <i_m_source_file_index>
96

> <r_mmod_Potential_Energy-OPLS-2005>
-172.804016113281

> <r_mmod_Stretch_Energy-OPLS-2005>
39.5859298706055

> <r_mmod_Bend_Energy-OPLS-2005>
126.722160339355

> <r_mmod_Torsional_Energy-OPLS-2005>
221.922409057617

> <r_mmod_Improper_Torsional_Energy-OPLS-2005>
2.53735089302063

> <r_mmod_Van_der_Waal_Energy-OPLS-2005>
146.73828125

> <r_mmod_Electrostatic_Energy-OPLS-2005>
-270.220336914062

> <r_mmod_Solvation_Energy-OPLS-2005>
-449.129791259766

> <b_mmod_Minimization_Converged-OPLS-2005>
0

> <r_mmod_RMS_Derivative-OPLS-2005>
1.91405606269836

$$$$
96
                    3D
 Structure written by MMmdl.
165173  0  0  1  0            999 V2000
  -30.7384  -14.3897   20.5760 C   0  0  0  0  0  0
  -30.4205  -12.2442   19.4397 C   0  0  0  0  0  0
  -29.5112  -12.4980   18.2197 C   0  0  0  0  0  0
  -28.0225  -12.3952   18.6119 C   0  0  0  0  0  0
  -27.6724  -13.2114   19.8860 C   0  0  2  0  0  0
  -28.7071  -12.9619   21.0116 C   0  0  0  0  0  0
  -25.2615  -13.8210   20.5639 C   0  0  0  0  0  0
  -24.1861  -13.0480   20.9097 C   0  0  0  0  0  0
  -24.6430  -11.6952   20.8696 C   0  0  0  0  0  0
  -23.9107  -10.4333   21.0367 C   0  0  0  0  0  0
  -24.3661   -9.4250   21.9157 C   0  0  0  0  0  0
  -23.6333   -8.2283   22.0755 C   0  0  0  0  0  0
  -22.4311   -8.0318   21.3540 C   0  0  0  0  0  0
  -21.9948   -9.0303   20.4643 C   0  0  0  0  0  0
  -22.7277  -10.2171   20.3024 C   0  0  0  0  0  0
  -21.6895   -6.0757   22.5274 C   0  0  0  0  0  0
  -21.4038   -6.5657   23.8206 C   0  0  0  0  0  0
  -21.3639   -5.6797   24.9159 C   0  0  0  0  0  0
  -21.6041   -4.3062   24.7201 C   0  0  0  0  0  0
  -21.8832   -3.8151   23.4324 C   0  0  0  0  0  0
  -21.9205   -4.6981   22.3384 C   0  0  0  0  0  0
  -22.7868  -13.5274   21.1759 C   0  0  0  0  0  0
  -22.1667   -4.2177   21.0963 F   0  0  0  0  0  0
  -21.5614   -3.4538   25.7695 F   0  0  0  0  0  0
  -30.0541  -13.2235   20.4733 N   0  0  0  0  0  0
  -26.3082  -12.9381   20.3378 N   0  0  0  0  0  0
  -25.9363  -11.6542   20.5744 N   0  0  0  0  0  0
  -22.0514  -12.8265   22.0313 N   0  0  0  0  0  0
  -25.4291  -15.1923   20.4012 N   0  0  0  0  0  0
  -31.8639  -14.5710   20.1055 O   0  0  0  0  0  0
  -21.6675   -6.8898   21.4238 O   0  0  0  0  0  0
  -22.3518  -14.5565   20.6591 O   0  0  0  0  0  0
  -24.6160  -31.8725   23.2158 C   0  0  0  0  0  0
  -25.9075  -32.4871   23.8413 C   0  0  1  0  0  0
  -27.2429  -27.4485   20.0920 C   0  0  0  0  0  0
  -25.5971  -33.8664   24.2362 N   0  0  0  0  0  0
  -23.4025  -30.4963   21.5563 C   0  0  2  0  0  0
  -24.8496  -28.9647   20.1289 C   0  0  0  0  0  0
  -22.7411  -29.4659   22.4989 C   0  0  0  0  0  0
  -18.0267  -28.1351   22.8509 C   0  0  0  0  0  0
  -24.1480  -36.7276   23.2627 C   0  0  0  0  0  0
  -25.9335  -30.8397   21.3694 C   0  0  0  0  0  0
  -26.0117  -29.4737   20.7211 C   0  0  0  0  0  0
  -27.2131  -28.7263   20.6940 C   0  0  0  0  0  0
  -26.0577  -26.9611   19.4967 C   0  0  0  0  0  0
  -24.8629  -27.7018   19.5229 C   0  0  0  0  0  0
  -23.6153  -29.8364   20.1679 C   0  0  0  0  0  0
  -25.4107  -36.3131   24.0343 C   0  0  1  0  0  0
  -20.5878  -28.3651   23.1321 C   0  0  2  0  0  0
  -20.6745  -26.9383   22.5413 C   0  0  0  0  0  0
  -19.5712  -26.6369   21.5209 C   0  0  0  0  0  0
  -18.1895  -26.7918   22.1633 C   0  0  0  0  0  0
  -19.1517  -28.8820   23.2916 C   0  0  0  0  0  0
  -18.9449  -30.1423   23.8933 C   0  0  0  0  0  0
  -17.6447  -30.6578   24.0563 C   0  0  0  0  0  0
  -25.9035  -34.9511   23.5138 C   0  0  0  0  0  0
  -16.5336  -29.9079   23.6317 C   0  0  0  0  0  0
  -16.7256  -28.6479   23.0377 C   0  0  0  0  0  0
  -26.4509  -31.6637   25.0723 C   0  0  0  0  0  0
  -25.3735  -31.3750   26.1428 C   0  0  0  0  0  0
  -27.0310  -30.3075   24.6071 C   0  0  0  0  0  0
  -27.6091  -32.4333   25.7472 C   0  0  0  0  0  0
  -27.5576  -37.1783   24.8470 C   0  0  0  0  0  0
  -21.4146  -29.3040   22.3741 N   0  0  0  0  0  0
  -26.4288  -37.3813   23.9429 N   0  0  0  0  0  0
  -24.6698  -31.0845   22.1055 N   0  0  0  0  0  0
  -23.4188  -28.8174   23.3014 O   0  0  0  0  0  0
  -28.4449  -26.7779   19.9727 O   0  0  0  0  0  0
  -26.5522  -34.8968   22.4649 O   0  0  0  0  0  0
  -23.5356  -32.1464   23.7562 O   0  0  0  0  0  0
  -28.2416  -22.1661   18.8515 C   0  0  0  0  0  0
  -29.5648  -22.5532   20.5286 C   0  0  0  0  0  0
  -29.1188  -21.1171   18.9851 C   0  0  0  0  0  0
  -26.5967  -24.0422   20.9933 C   0  0  0  0  0  0
  -31.5948  -19.8076   17.5984 C   0  0  0  0  0  0
  -29.1816  -19.8603   18.1567 C   0  0  0  0  0  0
  -29.6084  -16.8329   18.9592 C   0  0  0  0  0  0
  -30.2000  -16.7700   20.3914 C   0  0  0  0  0  0
  -30.3887  -17.7060   17.9572 C   0  0  0  0  0  0
  -28.6442  -25.5161   20.6282 C   0  0  0  0  0  0
  -27.8037  -24.3319   20.0818 C   0  0  1  0  0  0
  -29.9682  -21.3683   20.0665 N   0  0  0  0  0  0
  -28.5432  -23.0934   19.8428 N   0  0  0  0  0  0
  -29.9928  -15.4337   20.9559 N   0  0  0  0  0  0
  -30.4738  -19.1474   18.3129 N   0  3  1  0  0  0
  -31.4706  -12.3138   19.1483 H   0  0  0  0  0  0
  -30.2875  -11.2299   19.8163 H   0  0  0  0  0  0
  -29.7418  -11.7818   17.4322 H   0  0  0  0  0  0
  -29.7209  -13.4836   17.8017 H   0  0  0  0  0  0
  -27.7911  -11.3409   18.7661 H   0  0  0  0  0  0
  -27.4008  -12.7197   17.7750 H   0  0  0  0  0  0
  -27.7305  -14.2665   19.6162 H   0  0  0  0  0  0
  -28.6431  -11.9299   21.3584 H   0  0  0  0  0  0
  -28.4790  -13.5766   21.8846 H   0  0  0  0  0  0
  -25.2827   -9.5746   22.4693 H   0  0  0  0  0  0
  -24.0057   -7.4702   22.7511 H   0  0  0  0  0  0
  -21.0858   -8.8841   19.8979 H   0  0  0  0  0  0
  -22.3755  -10.9707   19.6108 H   0  0  0  0  0  0
  -21.2057   -7.6171   23.9721 H   0  0  0  0  0  0
  -21.1426   -6.0511   25.9063 H   0  0  0  0  0  0
  -22.0621   -2.7620   23.2806 H   0  0  0  0  0  0
  -22.4160  -11.9947   22.4719 H   0  0  0  0  0  0
  -21.1134  -13.1277   22.2518 H   0  0  0  0  0  0
  -24.6585  -15.8423   20.5018 H   0  0  0  0  0  0
  -26.2823  -15.6407   20.0949 H   0  0  0  0  0  0
  -26.7141  -32.5572   23.1176 H   0  0  0  0  0  0
  -25.0372  -33.9848   25.0677 H   0  0  0  0  0  0
  -22.6912  -31.3135   21.4181 H   0  0  0  0  0  0
  -23.3787  -35.9550   23.3320 H   0  0  0  0  0  0
  -24.3577  -36.8847   22.2026 H   0  0  0  0  0  0
  -23.7160  -37.6476   23.6598 H   0  0  0  0  0  0
  -26.0526  -31.6093   20.6059 H   0  0  0  0  0  0
  -26.8180  -30.8879   21.9941 H   0  0  0  0  0  0
  -28.1224  -29.1383   21.1115 H   0  0  0  0  0  0
  -26.0211  -26.0229   18.9758 H   0  0  0  0  0  0
  -23.9728  -27.3077   19.0570 H   0  0  0  0  0  0
  -23.7416  -30.6163   19.4122 H   0  0  0  0  0  0
  -22.7389  -29.2657   19.8581 H   0  0  0  0  0  0
  -25.1274  -36.2006   25.0823 H   0  0  0  0  0  0
  -20.9953  -28.3183   24.1458 H   0  0  0  0  0  0
  -20.5633  -26.2246   23.3585 H   0  0  0  0  0  0
  -21.6607  -26.7406   22.1209 H   0  0  0  0  0  0
  -19.6862  -25.6274   21.1242 H   0  0  0  0  0  0
  -19.6676  -27.3172   20.6720 H   0  0  0  0  0  0
  -17.4177  -26.6711   21.4020 H   0  0  0  0  0  0
  -18.0295  -26.0024   22.8986 H   0  0  0  0  0  0
  -19.7899  -30.7221   24.2346 H   0  0  0  0  0  0
  -17.4989  -31.6278   24.5123 H   0  0  0  0  0  0
  -15.5332  -30.2999   23.7599 H   0  0  0  0  0  0
  -15.8649  -28.0783   22.7123 H   0  0  0  0  0  0
  -24.5959  -30.7061   25.7739 H   0  0  0  0  0  0
  -24.8868  -32.2914   26.4777 H   0  0  0  0  0  0
  -25.8046  -30.8989   27.0239 H   0  0  0  0  0  0
  -26.2837  -29.6880   24.1109 H   0  0  0  0  0  0
  -27.4091  -29.7289   25.4510 H   0  0  0  0  0  0
  -27.8698  -30.4420   23.9229 H   0  0  0  0  0  0
  -27.2756  -33.3668   26.2019 H   0  0  0  0  0  0
  -28.3926  -32.6824   25.0295 H   0  0  0  0  0  0
  -28.0736  -31.8461   26.5416 H   0  0  0  0  0  0
  -28.2601  -38.0074   24.7564 H   0  0  0  0  0  0
  -28.1082  -36.2624   24.6272 H   0  0  0  0  0  0
  -27.2312  -37.1393   25.8876 H   0  0  0  0  0  0
  -20.9289  -29.8845   21.7053 H   0  0  0  0  0  0
  -26.0215  -38.2902   24.1444 H   0  0  0  0  0  0
  -27.4329  -22.3144   18.1451 H   0  0  0  0  0  0
  -30.0195  -23.0312   21.3864 H   0  0  0  0  0  0
  -25.9206  -23.3130   20.5437 H   0  0  0  0  0  0
  -26.0203  -24.9447   21.2009 H   0  0  0  0  0  0
  -26.9254  -23.6483   21.9549 H   0  0  0  0  0  0
  -31.6292  -20.8804   17.7894 H   0  0  0  0  0  0
  -31.5221  -19.6563   16.5198 H   0  0  0  0  0  0
  -32.5495  -19.3931   17.9272 H   0  0  0  0  0  0
  -28.9942  -20.0681   17.1020 H   0  0  0  0  0  0
  -28.3619  -19.2207   18.4769 H   0  0  0  0  0  0
  -28.5537  -17.1023   19.0054 H   0  0  0  0  0  0
  -29.6047  -15.8370   18.5172 H   0  0  0  0  0  0
  -29.7229  -17.5173   21.0286 H   0  0  0  0  0  0
  -31.2647  -17.0122   20.3927 H   0  0  0  0  0  0
  -29.9292  -17.6142   16.9700 H   0  0  0  0  0  0
  -31.3899  -17.2853   17.8513 H   0  0  0  0  0  0
  -29.7062  -25.3074   20.4944 H   0  0  0  0  0  0
  -28.5132  -25.6221   21.7062 H   0  0  0  0  0  0
  -27.4658  -24.6105   19.0872 H   0  0  0  0  0  0
  -29.0981  -15.2291   21.3747 H   0  0  0  0  0  0
  -30.6903  -19.2373   19.2947 H   0  0  0  0  0  0
  1 25  1  0  0  0
  1 30  2  0  0  0
  1 84  1  0  0  0
  2  3  1  0  0  0
  2 25  1  0  0  0
  2 86  1  0  0  0
  2 87  1  0  0  0
  3  4  1  0  0  0
  3 88  1  0  0  0
  3 89  1  0  0  0
  4  5  1  0  0  0
  4 90  1  0  0  0
  4 91  1  0  0  0
  5  6  1  0  0  0
  5 26  1  0  0  0
  5 92  1  0  0  0
  6 25  1  0  0  0
  6 93  1  0  0  0
  6 94  1  0  0  0
  7  8  2  0  0  0
  7 26  1  0  0  0
  7 29  1  0  0  0
  8  9  1  0  0  0
  8 22  1  0  0  0
  9 10  1  0  0  0
  9 27  2  0  0  0
 10 11  2  0  0  0
 10 15  1  0  0  0
 11 12  1  0  0  0
 11 95  1  0  0  0
 12 13  2  0  0  0
 12 96  1  0  0  0
 13 14  1  0  0  0
 13 31  1  0  0  0
 14 15  2  0  0  0
 14 97  1  0  0  0
 15 98  1  0  0  0
 16 17  2  0  0  0
 16 21  1  0  0  0
 16 31  1  0  0  0
 17 18  1  0  0  0
 17 99  1  0  0  0
 18 19  2  0  0  0
 18100  1  0  0  0
 19 20  1  0  0  0
 19 24  1  0  0  0
 20 21  2  0  0  0
 20101  1  0  0  0
 21 23  1  0  0  0
 22 28  1  0  0  0
 22 32  2  0  0  0
 26 27  1  0  0  0
 28102  1  0  0  0
 28103  1  0  0  0
 29104  1  0  0  0
 29105  1  0  0  0
 33 34  1  0  0  0
 33 66  1  0  0  0
 33 70  2  0  0  0
 34 36  1  0  0  0
 34 59  1  0  0  0
 34106  1  0  0  0
 35 44  2  0  0  0
 35 45  1  0  0  0
 35 68  1  0  0  0
 36 56  1  0  0  0
 36107  1  0  0  0
 37 39  1  0  0  0
 37 47  1  0  0  0
 37 66  1  0  0  0
 37108  1  0  0  0
 38 43  2  0  0  0
 38 46  1  0  0  0
 38 47  1  0  0  0
 39 64  1  0  0  0
 39 67  2  0  0  0
 40 52  1  0  0  0
 40 53  2  0  0  0
 40 58  1  0  0  0
 41109  1  0  0  0
 41110  1  0  0  0
 41111  1  0  0  0
 41 48  1  0  0  0
 42 43  1  0  0  0
 42 66  1  0  0  0
 42112  1  0  0  0
 42113  1  0  0  0
 43 44  1  0  0  0
 44114  1  0  0  0
 45 46  2  0  0  0
 45115  1  0  0  0
 46116  1  0  0  0
 47117  1  0  0  0
 47118  1  0  0  0
 48 56  1  0  0  0
 48 65  1  0  0  0
 48119  1  0  0  0
 49 50  1  0  0  0
 49 53  1  0  0  0
 49 64  1  0  0  0
 49120  1  0  0  0
 50 51  1  0  0  0
 50121  1  0  0  0
 50122  1  0  0  0
 51 52  1  0  0  0
 51123  1  0  0  0
 51124  1  0  0  0
 52125  1  0  0  0
 52126  1  0  0  0
 53 54  1  0  0  0
 54 55  2  0  0  0
 54127  1  0  0  0
 55 57  1  0  0  0
 55128  1  0  0  0
 56 69  2  0  0  0
 57 58  2  0  0  0
 57129  1  0  0  0
 58130  1  0  0  0
 59 60  1  0  0  0
 59 61  1  0  0  0
 59 62  1  0  0  0
 60131  1  0  0  0
 60132  1  0  0  0
 60133  1  0  0  0
 61134  1  0  0  0
 61135  1  0  0  0
 61136  1  0  0  0
 62137  1  0  0  0
 62138  1  0  0  0
 62139  1  0  0  0
 63 65  1  0  0  0
 63140  1  0  0  0
 63141  1  0  0  0
 63142  1  0  0  0
 64143  1  0  0  0
 65144  1  0  0  0
 68 80  1  0  0  0
 71 73  2  0  0  0
 71 83  1  0  0  0
 71145  1  0  0  0
 72 82  2  0  0  0
 72 83  1  0  0  0
 72146  1  0  0  0
 73 76  1  0  0  0
 73 82  1  0  0  0
 74147  1  0  0  0
 74148  1  0  0  0
 74149  1  0  0  0
 74 81  1  0  0  0
 75150  1  0  0  0
 75151  1  0  0  0
 75152  1  0  0  0
 75 85  1  0  0  0
 76 85  1  0  0  0
 76153  1  0  0  0
 76154  1  0  0  0
 77 78  1  0  0  0
 77 79  1  0  0  0
 77155  1  0  0  0
 77156  1  0  0  0
 78 84  1  0  0  0
 78157  1  0  0  0
 78158  1  0  0  0
 79 85  1  0  0  0
 79159  1  0  0  0
 79160  1  0  0  0
 80 81  1  0  0  0
 80161  1  0  0  0
 80162  1  0  0  0
 81 83  1  0  0  0
 81163  1  0  0  0
 84164  1  0  0  0
 85165  1  0  0  0
M  CHG  1  85   1
M  ISO  4   1 100  68 101  80 101  84 100
M  END
> <chiral flag>
0

> <version>
0

> <s_m_source_file>
/data/baiqing/PycharmProjects/Reinvent-master-3.2/result/LINK_invent/BTK/process_docking_weight1_custom_sum_contain_oxygen_bond_distance_aromatic_linkinvent_7_9_3/rearranged_h_0052.sdf

> <i_m_source_file_index>
97

> <r_mmod_Potential_Energy-OPLS-2005>
-168.235916137695

> <r_mmod_Stretch_Energy-OPLS-2005>
34.5233154296875

> <r_mmod_Bend_Energy-OPLS-2005>
115.243850708008

> <r_mmod_Torsional_Energy-OPLS-2005>
274.886779785156

> <r_mmod_Improper_Torsional_Energy-OPLS-2005>
9.08551597595215

> <r_mmod_Van_der_Waal_Energy-OPLS-2005>
136.117095947266

> <r_mmod_Electrostatic_Energy-OPLS-2005>
-314.242828369141

> <r_mmod_Solvation_Energy-OPLS-2005>
-434.561401367188

> <b_mmod_Minimization_Converged-OPLS-2005>
0

> <r_mmod_RMS_Derivative-OPLS-2005>
4.97936201095581

$$$$
