0
                    3D
 Structure written by MMmdl.
181189  0  0  1  0            999 V2000
  -30.6222  -14.6742   20.5018 C   0  0  0  0  0  0
  -30.4282  -12.4117   19.4805 C   0  0  0  0  0  0
  -29.5118  -12.5088   18.2405 C   0  0  0  0  0  0
  -28.0345  -12.3398   18.6445 C   0  0  0  0  0  0
  -27.6458  -13.2229   19.8587 C   0  0  2  0  0  0
  -28.6813  -13.1200   20.9969 C   0  0  0  0  0  0
  -25.2474  -13.8095   20.5497 C   0  0  0  0  0  0
  -24.1780  -13.0396   20.9152 C   0  0  0  0  0  0
  -24.6388  -11.6884   20.8784 C   0  0  0  0  0  0
  -23.9050  -10.4280   21.0448 C   0  0  0  0  0  0
  -24.3605   -9.4192   21.9213 C   0  0  0  0  0  0
  -23.6295   -8.2218   22.0753 C   0  0  0  0  0  0
  -22.4273   -8.0270   21.3541 C   0  0  0  0  0  0
  -21.9908   -9.0242   20.4646 C   0  0  0  0  0  0
  -22.7233  -10.2129   20.3083 C   0  0  0  0  0  0
  -21.6833   -6.0737   22.5280 C   0  0  0  0  0  0
  -21.4005   -6.5640   23.8216 C   0  0  0  0  0  0
  -21.3660   -5.6790   24.9175 C   0  0  0  0  0  0
  -21.6047   -4.3048   24.7221 C   0  0  0  0  0  0
  -21.8821   -3.8144   23.4336 C   0  0  0  0  0  0
  -21.9178   -4.6966   22.3399 C   0  0  0  0  0  0
  -22.7824  -13.5203   21.1852 C   0  0  0  0  0  0
  -22.1644   -4.2160   21.0974 F   0  0  0  0  0  0
  -21.5638   -3.4528   25.7726 F   0  0  0  0  0  0
  -29.9987  -13.4534   20.4401 N   0  0  0  0  0  0
  -26.2950  -12.9331   20.3300 N   0  0  0  0  0  0
  -25.9326  -11.6488   20.5819 N   0  0  0  0  0  0
  -22.0497  -12.8204   22.0447 N   0  0  0  0  0  0
  -25.4088  -15.1734   20.3533 N   0  0  0  0  0  0
  -31.7824  -14.8065   20.1028 O   0  0  0  0  0  0
  -21.6613   -6.8882   21.4245 O   0  0  0  0  0  0
  -22.3503  -14.5516   20.6720 O   0  0  0  0  0  0
  -24.6261  -31.8585   23.2004 C   0  0  0  0  0  0
  -25.9106  -32.4770   23.8344 C   0  0  1  0  0  0
  -27.2291  -27.3163   20.1365 C   0  0  0  0  0  0
  -25.5923  -33.8570   24.2273 N   0  0  0  0  0  0
  -23.4209  -30.4790   21.5418 C   0  0  2  0  0  0
  -24.8701  -28.9256   20.1157 C   0  0  0  0  0  0
  -22.7473  -29.4620   22.4936 C   0  0  0  0  0  0
  -18.0286  -28.1381   22.8491 C   0  0  0  0  0  0
  -24.1490  -36.7291   23.2641 C   0  0  0  0  0  0
  -25.9600  -30.7917   21.3687 C   0  0  0  0  0  0
  -26.0372  -29.4152   20.7171 C   0  0  0  0  0  0
  -27.2234  -28.6240   20.7111 C   0  0  0  0  0  0
  -26.0434  -26.8687   19.5209 C   0  0  0  0  0  0
  -24.8749  -27.6585   19.5062 C   0  0  0  0  0  0
  -23.6370  -29.8062   20.1597 C   0  0  0  0  0  0
  -25.4114  -36.3077   24.0333 C   0  0  1  0  0  0
  -20.5885  -28.3686   23.1289 C   0  0  2  0  0  0
  -20.6772  -26.9408   22.5414 C   0  0  0  0  0  0
  -19.5749  -26.6382   21.5216 C   0  0  0  0  0  0
  -18.1930  -26.7927   22.1627 C   0  0  0  0  0  0
  -19.1537  -28.8850   23.2885 C   0  0  0  0  0  0
  -18.9459  -30.1455   23.8895 C   0  0  0  0  0  0
  -17.6457  -30.6583   24.0561 C   0  0  0  0  0  0
  -25.9052  -34.9444   23.5102 C   0  0  0  0  0  0
  -16.5350  -29.9079   23.6328 C   0  0  0  0  0  0
  -16.7275  -28.6498   23.0350 C   0  0  0  0  0  0
  -26.4493  -31.6576   25.0710 C   0  0  0  0  0  0
  -25.3737  -31.3698   26.1444 C   0  0  0  0  0  0
  -27.0327  -30.3002   24.6149 C   0  0  0  0  0  0
  -27.6059  -32.4304   25.7479 C   0  0  0  0  0  0
  -27.5581  -37.1796   24.8463 C   0  0  0  0  0  0
  -21.4186  -29.3037   22.3680 N   0  0  0  0  0  0
  -26.4287  -37.3773   23.9414 N   0  0  0  0  0  0
  -24.6876  -31.0603   22.0944 N   0  0  0  0  0  0
  -23.4196  -28.8171   23.3028 O   0  0  0  0  0  0
  -28.3528  -26.4826   20.1225 O   0  0  0  0  0  0
  -26.5617  -34.8915   22.4668 O   0  0  0  0  0  0
  -23.5425  -32.1372   23.7340 O   0  0  0  0  0  0
  -28.4313  -16.4461   23.4651 C   0  0  0  0  0  0
  -27.6545  -15.5735   24.1772 C   0  0  0  0  0  0
  -26.2978  -15.8643   23.8281 C   0  0  0  0  0  0
  -26.3082  -16.9289   22.9649 C   0  0  0  0  0  0
  -25.0560  -15.1700   24.3332 C   0  0  0  0  0  0
  -25.1623  -17.7028   22.3809 C   0  0  0  0  0  0
  -26.9413  -15.5514   27.2127 C   0  0  0  0  0  0
  -29.4931  -13.9077   24.7272 C   0  0  0  0  0  0
  -28.2663  -15.0787   26.5974 C   0  0  0  0  0  0
  -29.0437  -22.5347   20.9185 C   0  0  0  0  0  0
  -29.0075  -21.0349   20.3422 C   0  0  0  0  0  0
  -28.5648  -23.7954   20.0464 C   0  0  0  0  0  0
  -29.9374  -19.9441   21.0664 C   0  0  0  0  0  0
  -28.0353  -18.3259   21.7656 C   0  0  0  0  0  0
  -30.0946  -17.2301   20.4434 C   0  0  0  0  0  0
  -28.2794  -25.1737   20.8137 C   0  0  0  0  0  0
  -28.1523  -14.5238   25.1612 C   0  0  1  0  0  0
  -29.5348  -18.4116   21.3824 C   0  0  1  0  0  0
  -27.6253  -17.2503   22.6760 N   0  0  0  0  0  0
  -29.8536  -15.7751   20.8080 N   0  0  0  0  0  0
  -31.4732  -12.5228   19.1869 H   0  0  0  0  0  0
  -30.3517  -11.4254   19.9407 H   0  0  0  0  0  0
  -29.7879  -11.7505   17.5068 H   0  0  0  0  0  0
  -29.6517  -13.4740   17.7517 H   0  0  0  0  0  0
  -27.8793  -11.2887   18.8896 H   0  0  0  0  0  0
  -27.3811  -12.5541   17.7979 H   0  0  0  0  0  0
  -27.6529  -14.2530   19.5015 H   0  0  0  0  0  0
  -28.6919  -12.1173   21.4254 H   0  0  0  0  0  0
  -28.4047  -13.7967   21.8051 H   0  0  0  0  0  0
  -25.2752   -9.5665   22.4785 H   0  0  0  0  0  0
  -24.0019   -7.4592   22.7446 H   0  0  0  0  0  0
  -21.0846   -8.8754   19.8940 H   0  0  0  0  0  0
  -22.3696  -10.9670   19.6195 H   0  0  0  0  0  0
  -21.1997   -7.6147   23.9715 H   0  0  0  0  0  0
  -21.1485   -6.0523   25.9077 H   0  0  0  0  0  0
  -22.0600   -2.7605   23.2828 H   0  0  0  0  0  0
  -22.4135  -11.9862   22.4804 H   0  0  0  0  0  0
  -21.1130  -13.1237   22.2690 H   0  0  0  0  0  0
  -24.6655  -15.8282   20.5592 H   0  0  0  0  0  0
  -26.3017  -15.6186   20.1963 H   0  0  0  0  0  0
  -26.7181  -32.5440   23.1105 H   0  0  0  0  0  0
  -25.0074  -33.9714   25.0420 H   0  0  0  0  0  0
  -22.7150  -31.2987   21.3938 H   0  0  0  0  0  0
  -23.3754  -35.9622   23.3287 H   0  0  0  0  0  0
  -24.3594  -36.8924   22.2060 H   0  0  0  0  0  0
  -23.7239  -37.6489   23.6669 H   0  0  0  0  0  0
  -26.0876  -31.5533   20.5983 H   0  0  0  0  0  0
  -26.8423  -30.8451   21.9950 H   0  0  0  0  0  0
  -28.1252  -29.0004   21.1732 H   0  0  0  0  0  0
  -26.0216  -25.8947   19.0528 H   0  0  0  0  0  0
  -23.9816  -27.2777   19.0298 H   0  0  0  0  0  0
  -23.7551  -30.5780   19.3981 H   0  0  0  0  0  0
  -22.7581  -29.2320   19.8613 H   0  0  0  0  0  0
  -25.1296  -36.1925   25.0826 H   0  0  0  0  0  0
  -20.9984  -28.3256   24.1408 H   0  0  0  0  0  0
  -20.5670  -26.2294   23.3611 H   0  0  0  0  0  0
  -21.6636  -26.7438   22.1203 H   0  0  0  0  0  0
  -19.6907  -25.6294   21.1239 H   0  0  0  0  0  0
  -19.6691  -27.3193   20.6745 H   0  0  0  0  0  0
  -17.4204  -26.6684   21.4023 H   0  0  0  0  0  0
  -18.0326  -26.0065   22.9018 H   0  0  0  0  0  0
  -19.7935  -30.7272   24.2257 H   0  0  0  0  0  0
  -17.5013  -31.6263   24.5159 H   0  0  0  0  0  0
  -15.5348  -30.2978   23.7651 H   0  0  0  0  0  0
  -15.8676  -28.0816   22.7057 H   0  0  0  0  0  0
  -24.5923  -30.7036   25.7773 H   0  0  0  0  0  0
  -24.8916  -32.2851   26.4885 H   0  0  0  0  0  0
  -25.8079  -30.8870   27.0208 H   0  0  0  0  0  0
  -26.2884  -29.6757   24.1194 H   0  0  0  0  0  0
  -27.4047  -29.7257   25.4642 H   0  0  0  0  0  0
  -27.8746  -30.4288   23.9345 H   0  0  0  0  0  0
  -27.2681  -33.3610   26.2049 H   0  0  0  0  0  0
  -28.3872  -32.6849   25.0305 H   0  0  0  0  0  0
  -28.0723  -31.8428   26.5396 H   0  0  0  0  0  0
  -28.2580  -38.0110   24.7527 H   0  0  0  0  0  0
  -28.1090  -36.2640   24.6258 H   0  0  0  0  0  0
  -27.2305  -37.1409   25.8865 H   0  0  0  0  0  0
  -20.9363  -29.8756   21.6889 H   0  0  0  0  0  0
  -26.0165  -38.2847   24.1419 H   0  0  0  0  0  0
  -29.5066  -16.5486   23.4609 H   0  0  0  0  0  0
  -24.5253  -15.8119   25.0363 H   0  0  0  0  0  0
  -25.2867  -14.2313   24.8336 H   0  0  0  0  0  0
  -24.3868  -14.9454   23.5028 H   0  0  0  0  0  0
  -24.2064  -17.2321   22.6089 H   0  0  0  0  0  0
  -25.2336  -17.7815   21.2968 H   0  0  0  0  0  0
  -25.1338  -18.7143   22.7870 H   0  0  0  0  0  0
  -27.0847  -15.8668   28.2463 H   0  0  0  0  0  0
  -26.1975  -14.7543   27.2108 H   0  0  0  0  0  0
  -26.5289  -16.4003   26.6672 H   0  0  0  0  0  0
  -29.4218  -13.4393   23.7483 H   0  0  0  0  0  0
  -29.8080  -13.1319   25.4257 H   0  0  0  0  0  0
  -30.2888  -14.6518   24.6867 H   0  0  0  0  0  0
  -28.6808  -14.3048   27.2448 H   0  0  0  0  0  0
  -28.9818  -15.9016   26.6143 H   0  0  0  0  0  0
  -30.0665  -22.7455   21.2327 H   0  0  0  0  0  0
  -28.4659  -22.5334   21.8436 H   0  0  0  0  0  0
  -29.2929  -21.0610   19.2896 H   0  0  0  0  0  0
  -27.9702  -20.7010   20.3403 H   0  0  0  0  0  0
  -27.6646  -23.5263   19.4928 H   0  0  0  0  0  0
  -29.3261  -23.9782   19.2877 H   0  0  0  0  0  0
  -30.1349  -20.3790   22.0471 H   0  0  0  0  0  0
  -30.9167  -19.9528   20.5866 H   0  0  0  0  0  0
  -27.4455  -18.2579   20.8518 H   0  0  0  0  0  0
  -27.7404  -19.2570   22.2511 H   0  0  0  0  0  0
  -31.1696  -17.3729   20.3290 H   0  0  0  0  0  0
  -29.6807  -17.3706   19.4445 H   0  0  0  0  0  0
  -29.0183  -25.2473   21.6124 H   0  0  0  0  0  0
  -27.3250  -25.0848   21.3354 H   0  0  0  0  0  0
  -27.4290  -13.7085   25.1678 H   0  0  0  0  0  0
  -30.0824  -18.2497   22.3096 H   0  0  0  0  0  0
  -28.9355  -15.5692   21.1770 H   0  0  0  0  0  0
  1 25  1  0  0  0
  1 30  2  0  0  0
  1 90  1  0  0  0
  2  3  1  0  0  0
  2 25  1  0  0  0
  2 91  1  0  0  0
  2 92  1  0  0  0
  3  4  1  0  0  0
  3 93  1  0  0  0
  3 94  1  0  0  0
  4  5  1  0  0  0
  4 95  1  0  0  0
  4 96  1  0  0  0
  5  6  1  0  0  0
  5 26  1  0  0  0
  5 97  1  0  0  0
  6 25  1  0  0  0
  6 98  1  0  0  0
  6 99  1  0  0  0
  7  8  2  0  0  0
  7 26  1  0  0  0
  7 29  1  0  0  0
  8  9  1  0  0  0
  8 22  1  0  0  0
  9 10  1  0  0  0
  9 27  2  0  0  0
 10 11  2  0  0  0
 10 15  1  0  0  0
 11 12  1  0  0  0
 11100  1  0  0  0
 12 13  2  0  0  0
 12101  1  0  0  0
 13 14  1  0  0  0
 13 31  1  0  0  0
 14 15  2  0  0  0
 14102  1  0  0  0
 15103  1  0  0  0
 16 17  2  0  0  0
 16 21  1  0  0  0
 16 31  1  0  0  0
 17 18  1  0  0  0
 17104  1  0  0  0
 18 19  2  0  0  0
 18105  1  0  0  0
 19 20  1  0  0  0
 19 24  1  0  0  0
 20 21  2  0  0  0
 20106  1  0  0  0
 21 23  1  0  0  0
 22 28  1  0  0  0
 22 32  2  0  0  0
 26 27  1  0  0  0
 28107  1  0  0  0
 28108  1  0  0  0
 29109  1  0  0  0
 29110  1  0  0  0
 33 34  1  0  0  0
 33 66  1  0  0  0
 33 70  2  0  0  0
 34 36  1  0  0  0
 34 59  1  0  0  0
 34111  1  0  0  0
 35 44  2  0  0  0
 35 45  1  0  0  0
 35 68  1  0  0  0
 36 56  1  0  0  0
 36112  1  0  0  0
 37 39  1  0  0  0
 37 47  1  0  0  0
 37 66  1  0  0  0
 37113  1  0  0  0
 38 43  2  0  0  0
 38 46  1  0  0  0
 38 47  1  0  0  0
 39 64  1  0  0  0
 39 67  2  0  0  0
 40 52  1  0  0  0
 40 53  2  0  0  0
 40 58  1  0  0  0
 41114  1  0  0  0
 41115  1  0  0  0
 41116  1  0  0  0
 41 48  1  0  0  0
 42 43  1  0  0  0
 42 66  1  0  0  0
 42117  1  0  0  0
 42118  1  0  0  0
 43 44  1  0  0  0
 44119  1  0  0  0
 45 46  2  0  0  0
 45120  1  0  0  0
 46121  1  0  0  0
 47122  1  0  0  0
 47123  1  0  0  0
 48 56  1  0  0  0
 48 65  1  0  0  0
 48124  1  0  0  0
 49 50  1  0  0  0
 49 53  1  0  0  0
 49 64  1  0  0  0
 49125  1  0  0  0
 50 51  1  0  0  0
 50126  1  0  0  0
 50127  1  0  0  0
 51 52  1  0  0  0
 51128  1  0  0  0
 51129  1  0  0  0
 52130  1  0  0  0
 52131  1  0  0  0
 53 54  1  0  0  0
 54 55  2  0  0  0
 54132  1  0  0  0
 55 57  1  0  0  0
 55133  1  0  0  0
 56 69  2  0  0  0
 57 58  2  0  0  0
 57134  1  0  0  0
 58135  1  0  0  0
 59 60  1  0  0  0
 59 61  1  0  0  0
 59 62  1  0  0  0
 60136  1  0  0  0
 60137  1  0  0  0
 60138  1  0  0  0
 61139  1  0  0  0
 61140  1  0  0  0
 61141  1  0  0  0
 62142  1  0  0  0
 62143  1  0  0  0
 62144  1  0  0  0
 63 65  1  0  0  0
 63145  1  0  0  0
 63146  1  0  0  0
 63147  1  0  0  0
 64148  1  0  0  0
 65149  1  0  0  0
 68 86  1  0  0  0
 71 72  2  0  0  0
 71 89  1  0  0  0
 71150  1  0  0  0
 72 73  1  0  0  0
 72 87  1  0  0  0
 73 74  2  0  0  0
 73 75  1  0  0  0
 74 76  1  0  0  0
 74 89  1  0  0  0
 75151  1  0  0  0
 75152  1  0  0  0
 75153  1  0  0  0
 76154  1  0  0  0
 76155  1  0  0  0
 76156  1  0  0  0
 77 79  1  0  0  0
 77157  1  0  0  0
 77158  1  0  0  0
 77159  1  0  0  0
 78160  1  0  0  0
 78161  1  0  0  0
 78162  1  0  0  0
 78 87  1  0  0  0
 79 87  1  0  0  0
 79163  1  0  0  0
 79164  1  0  0  0
 80 81  1  0  0  0
 80 82  1  0  0  0
 80165  1  0  0  0
 80166  1  0  0  0
 81 83  1  0  0  0
 81167  1  0  0  0
 81168  1  0  0  0
 82 86  1  0  0  0
 82169  1  0  0  0
 82170  1  0  0  0
 83171  1  0  0  0
 83172  1  0  0  0
 83 88  1  0  0  0
 84 88  1  0  0  0
 84 89  1  0  0  0
 84173  1  0  0  0
 84174  1  0  0  0
 85 88  1  0  0  0
 85 90  1  0  0  0
 85175  1  0  0  0
 85176  1  0  0  0
 86177  1  0  0  0
 86178  1  0  0  0
 87179  1  0  0  0
 88180  1  0  0  0
 90181  1  0  0  0
M  ISO  4   1 100  68 101  86 101  90 100
M  END
> <chiral flag>
0

> <version>
0

> <s_m_source_file>
/data/baiqing/PycharmProjects/Reinvent-master-3.2/result/LINK_invent/BTK/process_docking_weight1_custom_sum_contain_oxygen_bond_distance_aromatic_linkinvent_7_9_3/rearranged_h_0093.sdf

> <i_m_source_file_index>
1

> <r_mmod_Potential_Energy-OPLS-2005>
104.48526763916

> <r_mmod_Stretch_Energy-OPLS-2005>
98.7664947509766

> <r_mmod_Bend_Energy-OPLS-2005>
179.767227172852

> <r_mmod_Torsional_Energy-OPLS-2005>
274.673187255859

> <r_mmod_Improper_Torsional_Energy-OPLS-2005>
6.01378297805786

> <r_mmod_Van_der_Waal_Energy-OPLS-2005>
89.8920211791992

> <r_mmod_Electrostatic_Energy-OPLS-2005>
-418.675598144531

> <r_mmod_Solvation_Energy-OPLS-2005>
-179.996765136719

> <b_mmod_Minimization_Converged-OPLS-2005>
0

> <r_mmod_RMS_Derivative-OPLS-2005>
1.04020071029663

$$$$
1
                    3D
 Structure written by MMmdl.
159167  0  0  1  0            999 V2000
  -30.7137  -14.4601   20.5125 C   0  0  0  0  0  0
  -30.4079  -12.2878   19.4207 C   0  0  0  0  0  0
  -29.4848  -12.4839   18.2023 C   0  0  0  0  0  0
  -28.0088  -12.3507   18.6220 C   0  0  0  0  0  0
  -27.6541  -13.2005   19.8727 C   0  0  2  0  0  0
  -28.7024  -13.0153   20.9915 C   0  0  0  0  0  0
  -25.2568  -13.8134   20.5722 C   0  0  0  0  0  0
  -24.1800  -13.0426   20.9173 C   0  0  0  0  0  0
  -24.6334  -11.6882   20.8707 C   0  0  0  0  0  0
  -23.9000  -10.4288   21.0390 C   0  0  0  0  0  0
  -24.3575   -9.4220   21.9172 C   0  0  0  0  0  0
  -23.6272   -8.2243   22.0744 C   0  0  0  0  0  0
  -22.4254   -8.0257   21.3538 C   0  0  0  0  0  0
  -21.9879   -9.0230   20.4645 C   0  0  0  0  0  0
  -22.7180  -10.2117   20.3051 C   0  0  0  0  0  0
  -21.6848   -6.0703   22.5266 C   0  0  0  0  0  0
  -21.4022   -6.5618   23.8202 C   0  0  0  0  0  0
  -21.3655   -5.6773   24.9169 C   0  0  0  0  0  0
  -21.6061   -4.3038   24.7227 C   0  0  0  0  0  0
  -21.8813   -3.8119   23.4351 C   0  0  0  0  0  0
  -21.9205   -4.6931   22.3404 C   0  0  0  0  0  0
  -22.7837  -13.5245   21.1881 C   0  0  0  0  0  0
  -22.1660   -4.2112   21.0981 F   0  0  0  0  0  0
  -21.5639   -3.4531   25.7748 F   0  0  0  0  0  0
  -30.0243  -13.2948   20.4147 N   0  0  0  0  0  0
  -26.2985  -12.9296   20.3428 N   0  0  0  0  0  0
  -25.9273  -11.6469   20.5785 N   0  0  0  0  0  0
  -22.0492  -12.8225   22.0408 N   0  0  0  0  0  0
  -25.4377  -15.1855   20.4106 N   0  0  0  0  0  0
  -31.8959  -14.5765   20.1855 O   0  0  0  0  0  0
  -21.6643   -6.8837   21.4222 O   0  0  0  0  0  0
  -22.3529  -14.5559   20.6725 O   0  0  0  0  0  0
  -24.6136  -31.8677   23.2100 C   0  0  0  0  0  0
  -25.9024  -32.4816   23.8403 C   0  0  1  0  0  0
  -27.2340  -27.4367   20.1139 C   0  0  0  0  0  0
  -25.5907  -33.8615   24.2335 N   0  0  0  0  0  0
  -23.4050  -30.4864   21.5472 C   0  0  2  0  0  0
  -24.8549  -28.9540   20.1154 C   0  0  0  0  0  0
  -22.7411  -29.4619   22.4985 C   0  0  0  0  0  0
  -18.0283  -28.1379   22.8475 C   0  0  0  0  0  0
  -24.1497  -36.7317   23.2634 C   0  0  0  0  0  0
  -25.9322  -30.8384   21.3611 C   0  0  0  0  0  0
  -26.0127  -29.4710   20.7124 C   0  0  0  0  0  0
  -27.2088  -28.7174   20.7093 C   0  0  0  0  0  0
  -26.0655  -26.9365   19.5024 C   0  0  0  0  0  0
  -24.8730  -27.6838   19.5090 C   0  0  0  0  0  0
  -23.6156  -29.8170   20.1639 C   0  0  0  0  0  0
  -25.4113  -36.3086   24.0326 C   0  0  1  0  0  0
  -20.5858  -28.3642   23.1349 C   0  0  2  0  0  0
  -20.6769  -26.9373   22.5479 C   0  0  0  0  0  0
  -19.5806  -26.6385   21.5211 C   0  0  0  0  0  0
  -18.1939  -26.7952   22.1557 C   0  0  0  0  0  0
  -19.1526  -28.8817   23.2915 C   0  0  0  0  0  0
  -18.9479  -30.1429   23.8913 C   0  0  0  0  0  0
  -17.6487  -30.6601   24.0547 C   0  0  0  0  0  0
  -25.9035  -34.9450   23.5110 C   0  0  0  0  0  0
  -16.5378  -29.9096   23.6323 C   0  0  0  0  0  0
  -16.7272  -28.6517   23.0352 C   0  0  0  0  0  0
  -26.4479  -31.6587   25.0712 C   0  0  0  0  0  0
  -25.3788  -31.3684   26.1490 C   0  0  0  0  0  0
  -27.0307  -30.3037   24.6066 C   0  0  0  0  0  0
  -27.6030  -32.4310   25.7505 C   0  0  0  0  0  0
  -27.5575  -37.1809   24.8461 C   0  0  0  0  0  0
  -21.4139  -29.3002   22.3748 N   0  0  0  0  0  0
  -26.4291  -37.3772   23.9397 N   0  0  0  0  0  0
  -24.6680  -31.0776   22.1003 N   0  0  0  0  0  0
  -23.4156  -28.8147   23.3032 O   0  0  0  0  0  0
  -28.3632  -26.6514   20.1769 O   0  0  0  0  0  0
  -26.5596  -34.8910   22.4675 O   0  0  0  0  0  0
  -23.5330  -32.1421   23.7492 O   0  0  0  0  0  0
  -29.6847  -20.8339   21.6527 C   0  0  0  0  0  0
  -29.1121  -19.9725   20.7626 C   0  0  0  0  0  0
  -29.0529  -22.0845   21.3824 C   0  0  0  0  0  0
  -29.4466  -18.5833   20.5646 C   0  0  0  0  0  0
  -29.4153  -17.8232   19.4427 C   0  0  0  0  0  0
  -29.0461  -18.3754   18.0742 C   0  0  0  0  0  0
  -28.1675  -23.5368   23.2383 C   0  0  0  0  0  0
  -29.7687  -16.3323   19.3555 C   0  0  0  0  0  0
  -29.4296  -24.6490   21.2420 C   0  0  0  0  0  0
  -28.1516  -25.4796   20.9825 C   0  0  0  0  0  0
  -29.2361  -23.3871   22.1391 C   0  0  2  0  0  0
  -28.1498  -21.9613   20.4172 N   0  0  0  0  0  0
  -29.9607  -15.5689   20.6033 N   0  0  0  0  0  0
  -28.2161  -20.6294   19.9805 O   0  0  0  0  0  0
  -31.4550  -12.3658   19.1234 H   0  0  0  0  0  0
  -30.2842  -11.2848   19.8317 H   0  0  0  0  0  0
  -29.7235  -11.7480   17.4325 H   0  0  0  0  0  0
  -29.6569  -13.4627   17.7493 H   0  0  0  0  0  0
  -27.8249  -11.2944   18.8331 H   0  0  0  0  0  0
  -27.3536  -12.6174   17.7957 H   0  0  0  0  0  0
  -27.6786  -14.2430   19.5654 H   0  0  0  0  0  0
  -28.6747  -11.9940   21.3714 H   0  0  0  0  0  0
  -28.4887  -13.6608   21.8446 H   0  0  0  0  0  0
  -25.2708   -9.5712   22.4761 H   0  0  0  0  0  0
  -23.9982   -7.4636   22.7462 H   0  0  0  0  0  0
  -21.0814   -8.8738   19.8945 H   0  0  0  0  0  0
  -22.3625  -10.9660   19.6161 H   0  0  0  0  0  0
  -21.1991   -7.6126   23.9686 H   0  0  0  0  0  0
  -21.1499   -6.0518   25.9075 H   0  0  0  0  0  0
  -22.0598   -2.7586   23.2872 H   0  0  0  0  0  0
  -22.4080  -11.9877   22.4802 H   0  0  0  0  0  0
  -21.1107  -13.1260   22.2616 H   0  0  0  0  0  0
  -24.6884  -15.8590   20.5309 H   0  0  0  0  0  0
  -26.3167  -15.6134   20.1491 H   0  0  0  0  0  0
  -26.7078  -32.5551   23.1160 H   0  0  0  0  0  0
  -25.0032  -33.9779   25.0465 H   0  0  0  0  0  0
  -22.6932  -31.3005   21.4041 H   0  0  0  0  0  0
  -23.3729  -35.9681   23.3311 H   0  0  0  0  0  0
  -24.3573  -36.8942   22.2042 H   0  0  0  0  0  0
  -23.7297  -37.6543   23.6660 H   0  0  0  0  0  0
  -26.0344  -31.6043   20.5896 H   0  0  0  0  0  0
  -26.8217  -30.8961   21.9800 H   0  0  0  0  0  0
  -28.0993  -29.0966   21.1872 H   0  0  0  0  0  0
  -26.0755  -25.9599   19.0410 H   0  0  0  0  0  0
  -23.9827  -27.2770   19.0525 H   0  0  0  0  0  0
  -23.7283  -30.5894   19.4039 H   0  0  0  0  0  0
  -22.7456  -29.2302   19.8641 H   0  0  0  0  0  0
  -25.1287  -36.1924   25.0814 H   0  0  0  0  0  0
  -20.9917  -28.3256   24.1499 H   0  0  0  0  0  0
  -21.6671  -26.7360   22.1362 H   0  0  0  0  0  0
  -20.5572  -26.2271   23.3670 H   0  0  0  0  0  0
  -19.6963  -25.6308   21.1240 H   0  0  0  0  0  0
  -19.6833  -27.3183   20.6750 H   0  0  0  0  0  0
  -17.4265  -26.6729   21.3900 H   0  0  0  0  0  0
  -18.0293  -26.0072   22.8925 H   0  0  0  0  0  0
  -19.7955  -30.7234   24.2278 H   0  0  0  0  0  0
  -17.5061  -31.6273   24.5171 H   0  0  0  0  0  0
  -15.5391  -30.3008   23.7652 H   0  0  0  0  0  0
  -15.8683  -28.0815   22.7107 H   0  0  0  0  0  0
  -24.5928  -30.7053   25.7875 H   0  0  0  0  0  0
  -24.9026  -32.2839   26.4991 H   0  0  0  0  0  0
  -25.8182  -30.8836   27.0212 H   0  0  0  0  0  0
  -26.2844  -29.6807   24.1135 H   0  0  0  0  0  0
  -27.4109  -29.7236   25.4478 H   0  0  0  0  0  0
  -27.8642  -30.4352   23.9171 H   0  0  0  0  0  0
  -27.2595  -33.3557   26.2142 H   0  0  0  0  0  0
  -28.3831  -32.6967   25.0366 H   0  0  0  0  0  0
  -28.0714  -31.8422   26.5405 H   0  0  0  0  0  0
  -28.2581  -38.0114   24.7473 H   0  0  0  0  0  0
  -28.1075  -36.2629   24.6308 H   0  0  0  0  0  0
  -27.2282  -37.1490   25.8865 H   0  0  0  0  0  0
  -20.9313  -29.8731   21.6951 H   0  0  0  0  0  0
  -26.0165  -38.2840   24.1419 H   0  0  0  0  0  0
  -30.4336  -20.6195   22.4012 H   0  0  0  0  0  0
  -29.7506  -18.0942   21.4766 H   0  0  0  0  0  0
  -29.8193  -18.1140   17.3496 H   0  0  0  0  0  0
  -28.9530  -19.4583   18.0424 H   0  0  0  0  0  0
  -28.1066  -17.9464   17.7295 H   0  0  0  0  0  0
  -28.1964  -22.6876   23.9233 H   0  0  0  0  0  0
  -27.1607  -23.5771   22.8244 H   0  0  0  0  0  0
  -28.3227  -24.4440   23.8241 H   0  0  0  0  0  0
  -30.6720  -16.2708   18.7392 H   0  0  0  0  0  0
  -28.9873  -15.8395   18.7772 H   0  0  0  0  0  0
  -30.1360  -25.3069   21.7494 H   0  0  0  0  0  0
  -29.9174  -24.3712   20.3085 H   0  0  0  0  0  0
  -27.7530  -25.8174   21.9403 H   0  0  0  0  0  0
  -27.3892  -24.8333   20.5439 H   0  0  0  0  0  0
  -30.1822  -23.2828   22.6699 H   0  0  0  0  0  0
  -30.2705  -16.1592   21.3619 H   0  0  0  0  0  0
  1 25  1  0  0  0
  1 30  2  0  0  0
  1 83  1  0  0  0
  2  3  1  0  0  0
  2 25  1  0  0  0
  2 85  1  0  0  0
  2 86  1  0  0  0
  3  4  1  0  0  0
  3 87  1  0  0  0
  3 88  1  0  0  0
  4  5  1  0  0  0
  4 89  1  0  0  0
  4 90  1  0  0  0
  5  6  1  0  0  0
  5 26  1  0  0  0
  5 91  1  0  0  0
  6 25  1  0  0  0
  6 92  1  0  0  0
  6 93  1  0  0  0
  7  8  2  0  0  0
  7 26  1  0  0  0
  7 29  1  0  0  0
  8  9  1  0  0  0
  8 22  1  0  0  0
  9 10  1  0  0  0
  9 27  2  0  0  0
 10 11  2  0  0  0
 10 15  1  0  0  0
 11 12  1  0  0  0
 11 94  1  0  0  0
 12 13  2  0  0  0
 12 95  1  0  0  0
 13 14  1  0  0  0
 13 31  1  0  0  0
 14 15  2  0  0  0
 14 96  1  0  0  0
 15 97  1  0  0  0
 16 17  2  0  0  0
 16 21  1  0  0  0
 16 31  1  0  0  0
 17 18  1  0  0  0
 17 98  1  0  0  0
 18 19  2  0  0  0
 18 99  1  0  0  0
 19 20  1  0  0  0
 19 24  1  0  0  0
 20 21  2  0  0  0
 20100  1  0  0  0
 21 23  1  0  0  0
 22 28  1  0  0  0
 22 32  2  0  0  0
 26 27  1  0  0  0
 28101  1  0  0  0
 28102  1  0  0  0
 29103  1  0  0  0
 29104  1  0  0  0
 33 34  1  0  0  0
 33 66  1  0  0  0
 33 70  2  0  0  0
 34 36  1  0  0  0
 34 59  1  0  0  0
 34105  1  0  0  0
 35 44  2  0  0  0
 35 45  1  0  0  0
 35 68  1  0  0  0
 36 56  1  0  0  0
 36106  1  0  0  0
 37 39  1  0  0  0
 37 47  1  0  0  0
 37 66  1  0  0  0
 37107  1  0  0  0
 38 43  2  0  0  0
 38 46  1  0  0  0
 38 47  1  0  0  0
 39 64  1  0  0  0
 39 67  2  0  0  0
 40 52  1  0  0  0
 40 53  2  0  0  0
 40 58  1  0  0  0
 41108  1  0  0  0
 41109  1  0  0  0
 41110  1  0  0  0
 41 48  1  0  0  0
 42 43  1  0  0  0
 42 66  1  0  0  0
 42111  1  0  0  0
 42112  1  0  0  0
 43 44  1  0  0  0
 44113  1  0  0  0
 45 46  2  0  0  0
 45114  1  0  0  0
 46115  1  0  0  0
 47116  1  0  0  0
 47117  1  0  0  0
 48 56  1  0  0  0
 48 65  1  0  0  0
 48118  1  0  0  0
 49 50  1  0  0  0
 49 53  1  0  0  0
 49 64  1  0  0  0
 49119  1  0  0  0
 50 51  1  0  0  0
 50120  1  0  0  0
 50121  1  0  0  0
 51 52  1  0  0  0
 51122  1  0  0  0
 51123  1  0  0  0
 52124  1  0  0  0
 52125  1  0  0  0
 53 54  1  0  0  0
 54 55  2  0  0  0
 54126  1  0  0  0
 55 57  1  0  0  0
 55127  1  0  0  0
 56 69  2  0  0  0
 57 58  2  0  0  0
 57128  1  0  0  0
 58129  1  0  0  0
 59 60  1  0  0  0
 59 61  1  0  0  0
 59 62  1  0  0  0
 60130  1  0  0  0
 60131  1  0  0  0
 60132  1  0  0  0
 61133  1  0  0  0
 61134  1  0  0  0
 61135  1  0  0  0
 62136  1  0  0  0
 62137  1  0  0  0
 62138  1  0  0  0
 63 65  1  0  0  0
 63139  1  0  0  0
 63140  1  0  0  0
 63141  1  0  0  0
 64142  1  0  0  0
 65143  1  0  0  0
 68 80  1  0  0  0
 71 72  2  0  0  0
 71 73  1  0  0  0
 71144  1  0  0  0
 72 74  1  0  0  0
 72 84  1  0  0  0
 73 81  1  0  0  0
 73 82  2  0  0  0
 74 75  2  0  0  0
 74145  1  0  0  0
 75 76  1  0  0  0
 75 78  1  0  0  0
 76146  1  0  0  0
 76147  1  0  0  0
 76148  1  0  0  0
 77149  1  0  0  0
 77150  1  0  0  0
 77151  1  0  0  0
 77 81  1  0  0  0
 78 83  1  0  0  0
 78152  1  0  0  0
 78153  1  0  0  0
 79 80  1  0  0  0
 79 81  1  0  0  0
 79154  1  0  0  0
 79155  1  0  0  0
 80156  1  0  0  0
 80157  1  0  0  0
 81158  1  0  0  0
 82 84  1  0  0  0
 83159  1  0  0  0
M  ISO  4   1 100  68 101  80 101  83 100
M  END
> <chiral flag>
0

> <version>
0

> <s_m_source_file>
/data/baiqing/PycharmProjects/Reinvent-master-3.2/result/LINK_invent/BTK/process_docking_weight1_custom_sum_contain_oxygen_bond_distance_aromatic_linkinvent_7_9_3/rearranged_h_0093.sdf

> <i_m_source_file_index>
2

> <r_mmod_Potential_Energy-OPLS-2005>
-48.4667510986328

> <r_mmod_Stretch_Energy-OPLS-2005>
34.8912811279297

> <r_mmod_Bend_Energy-OPLS-2005>
117.687461853027

> <r_mmod_Torsional_Energy-OPLS-2005>
299.475280761719

> <r_mmod_Improper_Torsional_Energy-OPLS-2005>
15.8078699111938

> <r_mmod_Van_der_Waal_Energy-OPLS-2005>
131.130340576172

> <r_mmod_Electrostatic_Energy-OPLS-2005>
-449.882904052734

> <r_mmod_Solvation_Energy-OPLS-2005>
-217.482299804688

> <b_mmod_Minimization_Converged-OPLS-2005>
0

> <r_mmod_RMS_Derivative-OPLS-2005>
4.52212476730347

$$$$
2
                    3D
 Structure written by MMmdl.
161169  0  0  1  0            999 V2000
  -30.6892  -14.4468   20.5061 C   0  0  0  0  0  0
  -30.4196  -12.2691   19.4251 C   0  0  0  0  0  0
  -29.4964  -12.4881   18.2070 C   0  0  0  0  0  0
  -28.0152  -12.3619   18.6193 C   0  0  0  0  0  0
  -27.6650  -13.1979   19.8786 C   0  0  2  0  0  0
  -28.7094  -12.9838   21.0023 C   0  0  0  0  0  0
  -25.2634  -13.8145   20.5729 C   0  0  0  0  0  0
  -24.1873  -13.0441   20.9218 C   0  0  0  0  0  0
  -24.6405  -11.6895   20.8753 C   0  0  0  0  0  0
  -23.9075  -10.4280   21.0419 C   0  0  0  0  0  0
  -24.3624   -9.4200   21.9196 C   0  0  0  0  0  0
  -23.6301   -8.2238   22.0756 C   0  0  0  0  0  0
  -22.4276   -8.0283   21.3555 C   0  0  0  0  0  0
  -21.9920   -9.0259   20.4652 C   0  0  0  0  0  0
  -22.7250  -10.2138   20.3074 C   0  0  0  0  0  0
  -21.6865   -6.0740   22.5276 C   0  0  0  0  0  0
  -21.4006   -6.5642   23.8209 C   0  0  0  0  0  0
  -21.3659   -5.6798   24.9171 C   0  0  0  0  0  0
  -21.6052   -4.3063   24.7221 C   0  0  0  0  0  0
  -21.8816   -3.8157   23.4340 C   0  0  0  0  0  0
  -21.9198   -4.6968   22.3398 C   0  0  0  0  0  0
  -22.7898  -13.5242   21.1860 C   0  0  0  0  0  0
  -22.1670   -4.2164   21.0978 F   0  0  0  0  0  0
  -21.5630   -3.4535   25.7733 F   0  0  0  0  0  0
  -30.0422  -13.2574   20.4447 N   0  0  0  0  0  0
  -26.3050  -12.9284   20.3415 N   0  0  0  0  0  0
  -25.9326  -11.6449   20.5780 N   0  0  0  0  0  0
  -22.0524  -12.8248   22.0407 N   0  0  0  0  0  0
  -25.4396  -15.1864   20.4141 N   0  0  0  0  0  0
  -31.8430  -14.6304   20.1028 O   0  0  0  0  0  0
  -21.6639   -6.8887   21.4248 O   0  0  0  0  0  0
  -22.3600  -14.5556   20.6706 O   0  0  0  0  0  0
  -24.6122  -31.8695   23.2110 C   0  0  0  0  0  0
  -25.9001  -32.4845   23.8425 C   0  0  1  0  0  0
  -27.2452  -27.4600   20.0935 C   0  0  0  0  0  0
  -25.5858  -33.8652   24.2337 N   0  0  0  0  0  0
  -23.4023  -30.4887   21.5496 C   0  0  2  0  0  0
  -24.8528  -28.9561   20.1151 C   0  0  0  0  0  0
  -22.7397  -29.4652   22.4992 C   0  0  0  0  0  0
  -18.0261  -28.1380   22.8473 C   0  0  0  0  0  0
  -24.1480  -36.7329   23.2645 C   0  0  0  0  0  0
  -25.9279  -30.8428   21.3597 C   0  0  0  0  0  0
  -26.0087  -29.4759   20.7126 C   0  0  0  0  0  0
  -27.2101  -28.7325   20.7046 C   0  0  0  0  0  0
  -26.0790  -26.9474   19.4929 C   0  0  0  0  0  0
  -24.8806  -27.6892   19.5043 C   0  0  0  0  0  0
  -23.6115  -29.8175   20.1648 C   0  0  0  0  0  0
  -25.4102  -36.3135   24.0344 C   0  0  1  0  0  0
  -20.5853  -28.3671   23.1316 C   0  0  2  0  0  0
  -20.6750  -26.9408   22.5416 C   0  0  0  0  0  0
  -19.5733  -26.6390   21.5208 C   0  0  0  0  0  0
  -18.1906  -26.7923   22.1617 C   0  0  0  0  0  0
  -19.1513  -28.8843   23.2887 C   0  0  0  0  0  0
  -18.9452  -30.1443   23.8907 C   0  0  0  0  0  0
  -17.6461  -30.6587   24.0569 C   0  0  0  0  0  0
  -25.9020  -34.9500   23.5144 C   0  0  0  0  0  0
  -16.5345  -29.9095   23.6326 C   0  0  0  0  0  0
  -16.7257  -28.6514   23.0338 C   0  0  0  0  0  0
  -26.4427  -31.6630   25.0751 C   0  0  0  0  0  0
  -25.3697  -31.3737   26.1498 C   0  0  0  0  0  0
  -27.0265  -30.3093   24.6103 C   0  0  0  0  0  0
  -27.6019  -32.4356   25.7485 C   0  0  0  0  0  0
  -27.5578  -37.1816   24.8469 C   0  0  0  0  0  0
  -21.4124  -29.3037   22.3730 N   0  0  0  0  0  0
  -26.4303  -37.3811   23.9400 N   0  0  0  0  0  0
  -24.6658  -31.0810   22.1004 N   0  0  0  0  0  0
  -23.4153  -28.8190   23.3044 O   0  0  0  0  0  0
  -28.3914  -26.7075   20.0835 O   0  0  0  0  0  0
  -26.5604  -34.8954   22.4718 O   0  0  0  0  0  0
  -23.5316  -32.1455   23.7506 O   0  0  0  0  0  0
  -29.3185  -18.8786   20.0664 C   0  0  0  0  0  0
  -30.2093  -17.8448   20.0692 C   0  0  0  0  0  0
  -31.3779  -19.6832   20.3783 C   0  0  0  0  0  0
  -32.5546  -20.5923   20.5429 C   0  0  0  0  0  0
  -27.1512  -22.9202   21.5967 C   0  0  0  0  0  0
  -29.5877  -22.1502   21.5230 C   0  0  0  0  0  0
  -29.5638  -21.4061   20.1703 C   0  0  0  0  0  0
  -28.9324  -24.5144   20.6740 C   0  0  0  0  0  0
  -28.6276  -23.3564   21.6569 C   0  0  1  0  0  0
  -30.0757  -20.0181   20.2333 N   0  0  0  0  0  0
  -31.4561  -18.3475   20.2731 N   0  3  0  0  0  0
  -29.9567  -16.5216   19.6969 N   0  0  0  0  0  0
  -29.8787  -15.5054   20.6683 N   0  0  0  0  0  0
  -28.3149  -25.7438   21.1584 N   0  0  0  0  0  0
  -31.4660  -12.3499   19.1277 H   0  0  0  0  0  0
  -30.3027  -11.2580   19.8172 H   0  0  0  0  0  0
  -29.7265  -11.7631   17.4259 H   0  0  0  0  0  0
  -29.6806  -13.4728   17.7764 H   0  0  0  0  0  0
  -27.8168  -11.3045   18.8100 H   0  0  0  0  0  0
  -27.3693  -12.6495   17.7888 H   0  0  0  0  0  0
  -27.7053  -14.2427   19.5735 H   0  0  0  0  0  0
  -28.6719  -11.9585   21.3740 H   0  0  0  0  0  0
  -28.4950  -13.6169   21.8647 H   0  0  0  0  0  0
  -25.2750   -9.5667   22.4793 H   0  0  0  0  0  0
  -24.0010   -7.4612   22.7452 H   0  0  0  0  0  0
  -21.0867   -8.8785   19.8942 H   0  0  0  0  0  0
  -22.3712  -10.9698   19.6200 H   0  0  0  0  0  0
  -21.1986   -7.6146   23.9729 H   0  0  0  0  0  0
  -21.1494   -6.0515   25.9087 H   0  0  0  0  0  0
  -22.0599   -2.7620   23.2833 H   0  0  0  0  0  0
  -22.4099  -11.9882   22.4784 H   0  0  0  0  0  0
  -21.1139  -13.1280   22.2603 H   0  0  0  0  0  0
  -24.6692  -15.8382   20.5152 H   0  0  0  0  0  0
  -26.2849  -15.6261   20.0721 H   0  0  0  0  0  0
  -26.7074  -32.5553   23.1202 H   0  0  0  0  0  0
  -25.0014  -33.9831   25.0485 H   0  0  0  0  0  0
  -22.6926  -31.3062   21.4063 H   0  0  0  0  0  0
  -23.3749  -35.9654   23.3341 H   0  0  0  0  0  0
  -24.3588  -36.8924   22.2058 H   0  0  0  0  0  0
  -23.7229  -37.6550   23.6633 H   0  0  0  0  0  0
  -26.0313  -31.6043   20.5848 H   0  0  0  0  0  0
  -26.8203  -30.9088   21.9689 H   0  0  0  0  0  0
  -28.1038  -29.1275   21.1684 H   0  0  0  0  0  0
  -26.1055  -25.9714   19.0292 H   0  0  0  0  0  0
  -23.9955  -27.2789   19.0395 H   0  0  0  0  0  0
  -23.7140  -30.5910   19.4026 H   0  0  0  0  0  0
  -22.7381  -29.2296   19.8738 H   0  0  0  0  0  0
  -25.1274  -36.2033   25.0844 H   0  0  0  0  0  0
  -20.9950  -28.3234   24.1441 H   0  0  0  0  0  0
  -20.5654  -26.2281   23.3607 H   0  0  0  0  0  0
  -21.6618  -26.7447   22.1210 H   0  0  0  0  0  0
  -19.6909  -25.6306   21.1233 H   0  0  0  0  0  0
  -19.6673  -27.3202   20.6744 H   0  0  0  0  0  0
  -17.4177  -26.6671   21.4018 H   0  0  0  0  0  0
  -18.0299  -26.0062   22.9018 H   0  0  0  0  0  0
  -19.7936  -30.7239   24.2280 H   0  0  0  0  0  0
  -17.5030  -31.6272   24.5171 H   0  0  0  0  0  0
  -15.5348  -30.3013   23.7666 H   0  0  0  0  0  0
  -15.8643  -28.0860   22.7041 H   0  0  0  0  0  0
  -24.5846  -30.7106   25.7833 H   0  0  0  0  0  0
  -24.8886  -32.2894   26.4964 H   0  0  0  0  0  0
  -25.8034  -30.8893   27.0255 H   0  0  0  0  0  0
  -26.2818  -29.6869   24.1120 H   0  0  0  0  0  0
  -27.4046  -29.7310   25.4544 H   0  0  0  0  0  0
  -27.8631  -30.4474   23.9245 H   0  0  0  0  0  0
  -27.2654  -33.3663   26.2080 H   0  0  0  0  0  0
  -28.3780  -32.6931   25.0255 H   0  0  0  0  0  0
  -28.0729  -31.8476   26.5378 H   0  0  0  0  0  0
  -28.2611  -38.0099   24.7517 H   0  0  0  0  0  0
  -28.1059  -36.2637   24.6287 H   0  0  0  0  0  0
  -27.2302  -37.1478   25.8878 H   0  0  0  0  0  0
  -20.9293  -29.8800   21.6985 H   0  0  0  0  0  0
  -26.0205  -38.2904   24.1398 H   0  0  0  0  0  0
  -28.2541  -18.8923   19.8880 H   0  0  0  0  0  0
  -32.3627  -21.3059   21.3399 H   0  0  0  0  0  0
  -32.7271  -21.1073   19.5983 H   0  0  0  0  0  0
  -33.4278  -19.9942   20.8006 H   0  0  0  0  0  0
  -26.9750  -22.0348   22.2089 H   0  0  0  0  0  0
  -26.8322  -22.6937   20.5790 H   0  0  0  0  0  0
  -26.4974  -23.7097   21.9682 H   0  0  0  0  0  0
  -30.5973  -22.5030   21.7258 H   0  0  0  0  0  0
  -29.3590  -21.4453   22.3238 H   0  0  0  0  0  0
  -30.1343  -21.9471   19.4134 H   0  0  0  0  0  0
  -28.5412  -21.3447   19.7997 H   0  0  0  0  0  0
  -28.5594  -24.2713   19.6778 H   0  0  0  0  0  0
  -30.0087  -24.6757   20.5923 H   0  0  0  0  0  0
  -28.8035  -23.7267   22.6683 H   0  0  0  0  0  0
  -32.3124  -17.8097   20.3060 H   0  0  0  0  0  0
  -30.5963  -16.2399   18.9589 H   0  0  0  0  0  0
  -28.9431  -15.3167   20.9994 H   0  0  0  0  0  0
  -28.8697  -26.1311   21.9181 H   0  0  0  0  0  0
  1 25  1  0  0  0
  1 30  2  0  0  0
  1 83  1  0  0  0
  2  3  1  0  0  0
  2 25  1  0  0  0
  2 85  1  0  0  0
  2 86  1  0  0  0
  3  4  1  0  0  0
  3 87  1  0  0  0
  3 88  1  0  0  0
  4  5  1  0  0  0
  4 89  1  0  0  0
  4 90  1  0  0  0
  5  6  1  0  0  0
  5 26  1  0  0  0
  5 91  1  0  0  0
  6 25  1  0  0  0
  6 92  1  0  0  0
  6 93  1  0  0  0
  7  8  2  0  0  0
  7 26  1  0  0  0
  7 29  1  0  0  0
  8  9  1  0  0  0
  8 22  1  0  0  0
  9 10  1  0  0  0
  9 27  2  0  0  0
 10 11  2  0  0  0
 10 15  1  0  0  0
 11 12  1  0  0  0
 11 94  1  0  0  0
 12 13  2  0  0  0
 12 95  1  0  0  0
 13 14  1  0  0  0
 13 31  1  0  0  0
 14 15  2  0  0  0
 14 96  1  0  0  0
 15 97  1  0  0  0
 16 17  2  0  0  0
 16 21  1  0  0  0
 16 31  1  0  0  0
 17 18  1  0  0  0
 17 98  1  0  0  0
 18 19  2  0  0  0
 18 99  1  0  0  0
 19 20  1  0  0  0
 19 24  1  0  0  0
 20 21  2  0  0  0
 20100  1  0  0  0
 21 23  1  0  0  0
 22 28  1  0  0  0
 22 32  2  0  0  0
 26 27  1  0  0  0
 28101  1  0  0  0
 28102  1  0  0  0
 29103  1  0  0  0
 29104  1  0  0  0
 33 34  1  0  0  0
 33 66  1  0  0  0
 33 70  2  0  0  0
 34 36  1  0  0  0
 34 59  1  0  0  0
 34105  1  0  0  0
 35 44  2  0  0  0
 35 45  1  0  0  0
 35 68  1  0  0  0
 36 56  1  0  0  0
 36106  1  0  0  0
 37 39  1  0  0  0
 37 47  1  0  0  0
 37 66  1  0  0  0
 37107  1  0  0  0
 38 43  2  0  0  0
 38 46  1  0  0  0
 38 47  1  0  0  0
 39 64  1  0  0  0
 39 67  2  0  0  0
 40 52  1  0  0  0
 40 53  2  0  0  0
 40 58  1  0  0  0
 41108  1  0  0  0
 41109  1  0  0  0
 41110  1  0  0  0
 41 48  1  0  0  0
 42 43  1  0  0  0
 42 66  1  0  0  0
 42111  1  0  0  0
 42112  1  0  0  0
 43 44  1  0  0  0
 44113  1  0  0  0
 45 46  2  0  0  0
 45114  1  0  0  0
 46115  1  0  0  0
 47116  1  0  0  0
 47117  1  0  0  0
 48 56  1  0  0  0
 48 65  1  0  0  0
 48118  1  0  0  0
 49 50  1  0  0  0
 49 53  1  0  0  0
 49 64  1  0  0  0
 49119  1  0  0  0
 50 51  1  0  0  0
 50120  1  0  0  0
 50121  1  0  0  0
 51 52  1  0  0  0
 51122  1  0  0  0
 51123  1  0  0  0
 52124  1  0  0  0
 52125  1  0  0  0
 53 54  1  0  0  0
 54 55  2  0  0  0
 54126  1  0  0  0
 55 57  1  0  0  0
 55127  1  0  0  0
 56 69  2  0  0  0
 57 58  2  0  0  0
 57128  1  0  0  0
 58129  1  0  0  0
 59 60  1  0  0  0
 59 61  1  0  0  0
 59 62  1  0  0  0
 60130  1  0  0  0
 60131  1  0  0  0
 60132  1  0  0  0
 61133  1  0  0  0
 61134  1  0  0  0
 61135  1  0  0  0
 62136  1  0  0  0
 62137  1  0  0  0
 62138  1  0  0  0
 63 65  1  0  0  0
 63139  1  0  0  0
 63140  1  0  0  0
 63141  1  0  0  0
 64142  1  0  0  0
 65143  1  0  0  0
 68 84  1  0  0  0
 71 72  2  0  0  0
 71 80  1  0  0  0
 71144  1  0  0  0
 72 81  1  0  0  0
 72 82  1  0  0  0
 73 74  1  0  0  0
 73 80  1  0  0  0
 73 81  2  0  0  0
 74145  1  0  0  0
 74146  1  0  0  0
 74147  1  0  0  0
 75148  1  0  0  0
 75149  1  0  0  0
 75150  1  0  0  0
 75 79  1  0  0  0
 76 77  1  0  0  0
 76 79  1  0  0  0
 76151  1  0  0  0
 76152  1  0  0  0
 77 80  1  0  0  0
 77153  1  0  0  0
 77154  1  0  0  0
 78 79  1  0  0  0
 78 84  1  0  0  0
 78155  1  0  0  0
 78156  1  0  0  0
 79157  1  0  0  0
 81158  1  0  0  0
 82 83  1  0  0  0
 82159  1  0  0  0
 83160  1  0  0  0
 84161  1  0  0  0
M  CHG  1  81   1
M  ISO  4   1 100  68 101  83 100  84 101
M  END
> <chiral flag>
0

> <version>
0

> <s_m_source_file>
/data/baiqing/PycharmProjects/Reinvent-master-3.2/result/LINK_invent/BTK/process_docking_weight1_custom_sum_contain_oxygen_bond_distance_aromatic_linkinvent_7_9_3/rearranged_h_0093.sdf

> <i_m_source_file_index>
3

> <r_mmod_Potential_Energy-OPLS-2005>
-138.212387084961

> <r_mmod_Stretch_Energy-OPLS-2005>
33.1154136657715

> <r_mmod_Bend_Energy-OPLS-2005>
100.673583984375

> <r_mmod_Torsional_Energy-OPLS-2005>
281.495819091797

> <r_mmod_Improper_Torsional_Energy-OPLS-2005>
20.7670707702637

> <r_mmod_Van_der_Waal_Energy-OPLS-2005>
121.539810180664

> <r_mmod_Electrostatic_Energy-OPLS-2005>
-282.104370117188

> <r_mmod_Solvation_Energy-OPLS-2005>
-425.802612304688

> <b_mmod_Minimization_Converged-OPLS-2005>
0

> <r_mmod_RMS_Derivative-OPLS-2005>
2.86097121238708

$$$$
3
                    3D
 Structure written by MMmdl.
155163  0  0  1  0            999 V2000
  -30.5357  -14.9690   20.4388 C   0  0  0  0  0  0
  -30.4440  -12.5968   19.5375 C   0  0  0  0  0  0
  -29.5444  -12.5447   18.2807 C   0  0  0  0  0  0
  -28.0696  -12.3342   18.6771 C   0  0  0  0  0  0
  -27.6362  -13.2558   19.8486 C   0  0  2  0  0  0
  -28.6665  -13.2868   20.9977 C   0  0  0  0  0  0
  -25.2449  -13.8231   20.5632 C   0  0  0  0  0  0
  -24.1773  -13.0440   20.9164 C   0  0  0  0  0  0
  -24.6423  -11.6930   20.8732 C   0  0  0  0  0  0
  -23.9104  -10.4291   21.0408 C   0  0  0  0  0  0
  -24.3652   -9.4209   21.9183 C   0  0  0  0  0  0
  -23.6326   -8.2247   22.0768 C   0  0  0  0  0  0
  -22.4309   -8.0297   21.3545 C   0  0  0  0  0  0
  -21.9928   -9.0275   20.4652 C   0  0  0  0  0  0
  -22.7273  -10.2148   20.3057 C   0  0  0  0  0  0
  -21.6860   -6.0748   22.5276 C   0  0  0  0  0  0
  -21.4023   -6.5638   23.8213 C   0  0  0  0  0  0
  -21.3664   -5.6792   24.9159 C   0  0  0  0  0  0
  -21.6046   -4.3051   24.7213 C   0  0  0  0  0  0
  -21.8813   -3.8154   23.4328 C   0  0  0  0  0  0
  -21.9173   -4.6966   22.3397 C   0  0  0  0  0  0
  -22.7776  -13.5196   21.1809 C   0  0  0  0  0  0
  -22.1644   -4.2157   21.0977 F   0  0  0  0  0  0
  -21.5635   -3.4536   25.7720 F   0  0  0  0  0  0
  -29.9498  -13.6991   20.4173 N   0  0  0  0  0  0
  -26.2909  -12.9479   20.3227 N   0  0  0  0  0  0
  -25.9358  -11.6607   20.5741 N   0  0  0  0  0  0
  -22.0408  -12.8249   22.0399 N   0  0  0  0  0  0
  -25.4072  -15.1968   20.4022 N   0  0  0  0  0  0
  -31.7190  -15.0354   20.0917 O   0  0  0  0  0  0
  -21.6651   -6.8910   21.4248 O   0  0  0  0  0  0
  -22.3463  -14.5484   20.6619 O   0  0  0  0  0  0
  -24.6444  -31.8410   23.1858 C   0  0  0  0  0  0
  -25.9212  -32.4658   23.8270 C   0  0  1  0  0  0
  -27.2181  -27.1080   20.1819 C   0  0  0  0  0  0
  -25.5965  -33.8474   24.2178 N   0  0  0  0  0  0
  -23.4490  -30.4586   21.5308 C   0  0  2  0  0  0
  -24.9022  -28.8807   20.1111 C   0  0  0  0  0  0
  -22.7561  -29.4533   22.4841 C   0  0  0  0  0  0
  -18.0296  -28.1386   22.8458 C   0  0  0  0  0  0
  -24.1504  -36.7265   23.2641 C   0  0  0  0  0  0
  -26.0056  -30.7113   21.3866 C   0  0  0  0  0  0
  -26.0781  -29.3176   20.7347 C   0  0  0  0  0  0
  -27.2361  -28.4484   20.7503 C   0  0  0  0  0  0
  -26.0209  -26.7822   19.5087 C   0  0  0  0  0  0
  -24.8894  -27.6277   19.4796 C   0  0  0  0  0  0
  -23.6789  -29.7859   20.1503 C   0  0  0  0  0  0
  -25.4121  -36.3014   24.0307 C   0  0  1  0  0  0
  -20.5907  -28.3729   23.1206 C   0  0  2  0  0  0
  -20.6792  -26.9417   22.5413 C   0  0  0  0  0  0
  -19.5782  -26.6365   21.5208 C   0  0  0  0  0  0
  -18.1946  -26.7920   22.1599 C   0  0  0  0  0  0
  -19.1549  -28.8872   23.2817 C   0  0  0  0  0  0
  -18.9476  -30.1467   23.8841 C   0  0  0  0  0  0
  -17.6478  -30.6584   24.0557 C   0  0  0  0  0  0
  -25.9080  -34.9378   23.5049 C   0  0  0  0  0  0
  -16.5369  -29.9082   23.6323 C   0  0  0  0  0  0
  -16.7281  -28.6498   23.0336 C   0  0  0  0  0  0
  -26.4534  -31.6523   25.0714 C   0  0  0  0  0  0
  -25.3748  -31.3729   26.1431 C   0  0  0  0  0  0
  -27.0395  -30.2910   24.6315 C   0  0  0  0  0  0
  -27.6045  -32.4291   25.7505 C   0  0  0  0  0  0
  -27.5571  -37.1768   24.8436 C   0  0  0  0  0  0
  -21.4253  -29.3052   22.3578 N   0  0  0  0  0  0
  -26.4272  -37.3729   23.9399 N   0  0  0  0  0  0
  -24.7195  -31.0241   22.0912 N   0  0  0  0  0  0
  -23.4182  -28.8085   23.3006 O   0  0  0  0  0  0
  -28.2704  -26.1146   20.2334 O   0  0  0  0  0  0
  -26.5672  -34.8876   22.4633 O   0  0  0  0  0  0
  -23.5547  -32.1328   23.7033 O   0  0  0  0  0  0
  -29.3679  -20.4230   20.1973 C   0  0  0  0  0  0
  -29.3637  -19.0814   20.8470 C   0  0  0  0  0  0
  -28.8082  -19.1301   22.1514 C   0  0  0  0  0  0
  -28.8466  -21.6824   20.7889 C   0  0  0  0  0  0
  -28.3259  -20.3647   22.6811 C   0  0  0  0  0  0
  -26.4003  -19.8066   24.2885 C   0  0  0  0  0  0
  -30.0433  -17.6788   20.2608 C   0  0  0  0  0  0
  -29.0377  -23.2557   20.2722 C   0  0  0  0  0  0
  -27.7874  -20.4412   24.1060 C   0  0  0  0  0  0
  -27.9968  -24.5844   20.4947 C   0  0  0  0  0  0
  -28.3390  -21.5674   22.0354 N   0  0  0  0  0  0
  -29.7720  -16.1576   20.6419 N   0  0  0  0  0  0
  -28.7785  -17.7009   23.1340 Cl  0  0  0  0  0  0
  -31.4855  -12.7383   19.2452 H   0  0  0  0  0  0
  -30.4231  -11.6439   20.0716 H   0  0  0  0  0  0
  -29.8755  -11.7499   17.6098 H   0  0  0  0  0  0
  -29.6450  -13.4768   17.7243 H   0  0  0  0  0  0
  -27.9523  -11.2899   18.9700 H   0  0  0  0  0  0
  -27.4213  -12.4880   17.8143 H   0  0  0  0  0  0
  -27.6040  -14.2602   19.4276 H   0  0  0  0  0  0
  -28.7425  -12.3158   21.4923 H   0  0  0  0  0  0
  -28.3571  -13.9957   21.7666 H   0  0  0  0  0  0
  -25.2792   -9.5696   22.4746 H   0  0  0  0  0  0
  -24.0010   -7.4657   22.7515 H   0  0  0  0  0  0
  -21.0829   -8.8832   19.8985 H   0  0  0  0  0  0
  -22.3740  -10.9696   19.6177 H   0  0  0  0  0  0
  -21.2055   -7.6157   23.9716 H   0  0  0  0  0  0
  -21.1486   -6.0518   25.9066 H   0  0  0  0  0  0
  -22.0591   -2.7612   23.2810 H   0  0  0  0  0  0
  -22.4025  -11.9970   22.4907 H   0  0  0  0  0  0
  -21.1033  -13.1342   22.2568 H   0  0  0  0  0  0
  -24.6309  -15.8403   20.5087 H   0  0  0  0  0  0
  -26.2454  -15.6425   20.0572 H   0  0  0  0  0  0
  -26.7286  -32.5254   23.1005 H   0  0  0  0  0  0
  -25.0077  -33.9581   25.0308 H   0  0  0  0  0  0
  -22.7549  -31.2873   21.3737 H   0  0  0  0  0  0
  -23.3747  -35.9612   23.3263 H   0  0  0  0  0  0
  -24.3615  -36.8949   22.2068 H   0  0  0  0  0  0
  -23.7288  -37.6451   23.6729 H   0  0  0  0  0  0
  -26.1562  -31.4644   20.6112 H   0  0  0  0  0  0
  -26.8747  -30.7682   22.0317 H   0  0  0  0  0  0
  -28.1304  -28.7815   21.2587 H   0  0  0  0  0  0
  -25.9350  -25.8325   19.0051 H   0  0  0  0  0  0
  -23.9944  -27.2898   18.9755 H   0  0  0  0  0  0
  -23.8190  -30.5613   19.3971 H   0  0  0  0  0  0
  -22.7945  -29.2323   19.8323 H   0  0  0  0  0  0
  -25.1303  -36.1834   25.0799 H   0  0  0  0  0  0
  -20.9988  -28.3350   24.1333 H   0  0  0  0  0  0
  -20.5667  -26.2349   23.3649 H   0  0  0  0  0  0
  -21.6662  -26.7420   22.1230 H   0  0  0  0  0  0
  -19.6959  -25.6266   21.1257 H   0  0  0  0  0  0
  -19.6720  -27.3158   20.6720 H   0  0  0  0  0  0
  -17.4224  -26.6638   21.3998 H   0  0  0  0  0  0
  -18.0350  -26.0068   22.9006 H   0  0  0  0  0  0
  -19.7955  -30.7288   24.2177 H   0  0  0  0  0  0
  -17.5034  -31.6242   24.5211 H   0  0  0  0  0  0
  -15.5363  -30.2982   23.7665 H   0  0  0  0  0  0
  -15.8679  -28.0818   22.7069 H   0  0  0  0  0  0
  -24.5901  -30.7093   25.7790 H   0  0  0  0  0  0
  -24.8981  -32.2924   26.4835 H   0  0  0  0  0  0
  -25.8058  -30.8926   27.0235 H   0  0  0  0  0  0
  -26.3026  -29.6608   24.1337 H   0  0  0  0  0  0
  -27.4008  -29.7211   25.4892 H   0  0  0  0  0  0
  -27.8927  -30.4089   23.9632 H   0  0  0  0  0  0
  -27.2620  -33.3594   26.2039 H   0  0  0  0  0  0
  -28.3894  -32.6846   25.0381 H   0  0  0  0  0  0
  -28.0701  -31.8473   26.5475 H   0  0  0  0  0  0
  -28.2522  -38.0123   24.7507 H   0  0  0  0  0  0
  -28.1116  -36.2645   24.6203 H   0  0  0  0  0  0
  -27.2292  -37.1341   25.8834 H   0  0  0  0  0  0
  -20.9483  -29.8781   21.6766 H   0  0  0  0  0  0
  -26.0120  -38.2770   24.1457 H   0  0  0  0  0  0
  -29.8316  -20.4942   19.2230 H   0  0  0  0  0  0
  -26.0473  -19.9431   25.3122 H   0  0  0  0  0  0
  -26.4228  -18.7340   24.1039 H   0  0  0  0  0  0
  -25.6650  -20.2414   23.6135 H   0  0  0  0  0  0
  -31.1168  -17.8234   20.3829 H   0  0  0  0  0  0
  -29.8844  -17.7316   19.1845 H   0  0  0  0  0  0
  -29.2324  -23.1870   19.2025 H   0  0  0  0  0  0
  -29.9947  -23.5559   20.7003 H   0  0  0  0  0  0
  -27.7333  -21.4875   24.4136 H   0  0  0  0  0  0
  -28.5057  -19.9747   24.7803 H   0  0  0  0  0  0
  -27.7473  -24.5669   21.5544 H   0  0  0  0  0  0
  -27.0698  -24.3050   19.9969 H   0  0  0  0  0  0
  -28.8451  -15.9960   21.0036 H   0  0  0  0  0  0
  1 25  1  0  0  0
  1 30  2  0  0  0
  1 82  1  0  0  0
  2  3  1  0  0  0
  2 25  1  0  0  0
  2 84  1  0  0  0
  2 85  1  0  0  0
  3  4  1  0  0  0
  3 86  1  0  0  0
  3 87  1  0  0  0
  4  5  1  0  0  0
  4 88  1  0  0  0
  4 89  1  0  0  0
  5  6  1  0  0  0
  5 26  1  0  0  0
  5 90  1  0  0  0
  6 25  1  0  0  0
  6 91  1  0  0  0
  6 92  1  0  0  0
  7  8  2  0  0  0
  7 26  1  0  0  0
  7 29  1  0  0  0
  8  9  1  0  0  0
  8 22  1  0  0  0
  9 10  1  0  0  0
  9 27  2  0  0  0
 10 11  2  0  0  0
 10 15  1  0  0  0
 11 12  1  0  0  0
 11 93  1  0  0  0
 12 13  2  0  0  0
 12 94  1  0  0  0
 13 14  1  0  0  0
 13 31  1  0  0  0
 14 15  2  0  0  0
 14 95  1  0  0  0
 15 96  1  0  0  0
 16 17  2  0  0  0
 16 21  1  0  0  0
 16 31  1  0  0  0
 17 18  1  0  0  0
 17 97  1  0  0  0
 18 19  2  0  0  0
 18 98  1  0  0  0
 19 20  1  0  0  0
 19 24  1  0  0  0
 20 21  2  0  0  0
 20 99  1  0  0  0
 21 23  1  0  0  0
 22 28  1  0  0  0
 22 32  2  0  0  0
 26 27  1  0  0  0
 28100  1  0  0  0
 28101  1  0  0  0
 29102  1  0  0  0
 29103  1  0  0  0
 33 34  1  0  0  0
 33 66  1  0  0  0
 33 70  2  0  0  0
 34 36  1  0  0  0
 34 59  1  0  0  0
 34104  1  0  0  0
 35 44  2  0  0  0
 35 45  1  0  0  0
 35 68  1  0  0  0
 36 56  1  0  0  0
 36105  1  0  0  0
 37 39  1  0  0  0
 37 47  1  0  0  0
 37 66  1  0  0  0
 37106  1  0  0  0
 38 43  2  0  0  0
 38 46  1  0  0  0
 38 47  1  0  0  0
 39 64  1  0  0  0
 39 67  2  0  0  0
 40 52  1  0  0  0
 40 53  2  0  0  0
 40 58  1  0  0  0
 41107  1  0  0  0
 41108  1  0  0  0
 41109  1  0  0  0
 41 48  1  0  0  0
 42 43  1  0  0  0
 42 66  1  0  0  0
 42110  1  0  0  0
 42111  1  0  0  0
 43 44  1  0  0  0
 44112  1  0  0  0
 45 46  2  0  0  0
 45113  1  0  0  0
 46114  1  0  0  0
 47115  1  0  0  0
 47116  1  0  0  0
 48 56  1  0  0  0
 48 65  1  0  0  0
 48117  1  0  0  0
 49 50  1  0  0  0
 49 53  1  0  0  0
 49 64  1  0  0  0
 49118  1  0  0  0
 50 51  1  0  0  0
 50119  1  0  0  0
 50120  1  0  0  0
 51 52  1  0  0  0
 51121  1  0  0  0
 51122  1  0  0  0
 52123  1  0  0  0
 52124  1  0  0  0
 53 54  1  0  0  0
 54 55  2  0  0  0
 54125  1  0  0  0
 55 57  1  0  0  0
 55126  1  0  0  0
 56 69  2  0  0  0
 57 58  2  0  0  0
 57127  1  0  0  0
 58128  1  0  0  0
 59 60  1  0  0  0
 59 61  1  0  0  0
 59 62  1  0  0  0
 60129  1  0  0  0
 60130  1  0  0  0
 60131  1  0  0  0
 61132  1  0  0  0
 61133  1  0  0  0
 61134  1  0  0  0
 62135  1  0  0  0
 62136  1  0  0  0
 62137  1  0  0  0
 63 65  1  0  0  0
 63138  1  0  0  0
 63139  1  0  0  0
 63140  1  0  0  0
 64141  1  0  0  0
 65142  1  0  0  0
 68 80  1  0  0  0
 71 72  2  0  0  0
 71 74  1  0  0  0
 71143  1  0  0  0
 72 73  1  0  0  0
 72 77  1  0  0  0
 73 75  2  0  0  0
 73 83  1  0  0  0
 74 78  1  0  0  0
 74 81  2  0  0  0
 75 79  1  0  0  0
 75 81  1  0  0  0
 76 79  1  0  0  0
 76144  1  0  0  0
 76145  1  0  0  0
 76146  1  0  0  0
 77 82  1  0  0  0
 77147  1  0  0  0
 77148  1  0  0  0
 78 80  1  0  0  0
 78149  1  0  0  0
 78150  1  0  0  0
 79151  1  0  0  0
 79152  1  0  0  0
 80153  1  0  0  0
 80154  1  0  0  0
 82155  1  0  0  0
M  ISO  4   1 100  68 101  80 101  82 100
M  END
> <chiral flag>
0

> <version>
0

> <s_m_source_file>
/data/baiqing/PycharmProjects/Reinvent-master-3.2/result/LINK_invent/BTK/process_docking_weight1_custom_sum_contain_oxygen_bond_distance_aromatic_linkinvent_7_9_3/rearranged_h_0093.sdf

> <i_m_source_file_index>
4

> <r_mmod_Potential_Energy-OPLS-2005>
360.783325195312

> <r_mmod_Stretch_Energy-OPLS-2005>
282.597595214844

> <r_mmod_Bend_Energy-OPLS-2005>
261.965576171875

> <r_mmod_Torsional_Energy-OPLS-2005>
210.995391845703

> <r_mmod_Improper_Torsional_Energy-OPLS-2005>
6.26940679550171

> <r_mmod_Van_der_Waal_Energy-OPLS-2005>
132.890518188477

> <r_mmod_Electrostatic_Energy-OPLS-2005>
-528.129333496094

> <r_mmod_Solvation_Energy-OPLS-2005>
-215.44953918457

> <b_mmod_Minimization_Converged-OPLS-2005>
0

> <r_mmod_RMS_Derivative-OPLS-2005>
3.86000776290894

$$$$
4
                    3D
 Structure written by MMmdl.
171179  0  0  1  0            999 V2000
  -30.7124  -14.7025   20.3995 C   0  0  0  0  0  0
  -30.4154  -12.4185   19.4757 C   0  0  0  0  0  0
  -29.4952  -12.4339   18.2391 C   0  0  0  0  0  0
  -28.0295  -12.2332   18.6678 C   0  0  0  0  0  0
  -27.6165  -13.1713   19.8232 C   0  0  2  0  0  0
  -28.6750  -13.2501   20.9509 C   0  0  0  0  0  0
  -25.2509  -13.8017   20.5725 C   0  0  0  0  0  0
  -24.1756  -13.0355   20.9293 C   0  0  0  0  0  0
  -24.6280  -11.6814   20.8848 C   0  0  0  0  0  0
  -23.8949  -10.4238   21.0473 C   0  0  0  0  0  0
  -24.3528   -9.4163   21.9224 C   0  0  0  0  0  0
  -23.6233   -8.2193   22.0767 C   0  0  0  0  0  0
  -22.4230   -8.0229   21.3540 C   0  0  0  0  0  0
  -21.9857   -9.0204   20.4649 C   0  0  0  0  0  0
  -22.7148  -10.2105   20.3092 C   0  0  0  0  0  0
  -21.6836   -6.0712   22.5280 C   0  0  0  0  0  0
  -21.3999   -6.5627   23.8213 C   0  0  0  0  0  0
  -21.3646   -5.6788   24.9174 C   0  0  0  0  0  0
  -21.6028   -4.3051   24.7230 C   0  0  0  0  0  0
  -21.8831   -3.8134   23.4360 C   0  0  0  0  0  0
  -21.9205   -4.6944   22.3411 C   0  0  0  0  0  0
  -22.7800  -13.5224   21.1921 C   0  0  0  0  0  0
  -22.1679   -4.2136   21.0988 F   0  0  0  0  0  0
  -21.5633   -3.4538   25.7753 F   0  0  0  0  0  0
  -29.9881  -13.5321   20.3547 N   0  0  0  0  0  0
  -26.2817  -12.9065   20.3280 N   0  0  0  0  0  0
  -25.9187  -11.6291   20.5876 N   0  0  0  0  0  0
  -22.0425  -12.8211   22.0454 N   0  0  0  0  0  0
  -25.4256  -15.1713   20.4071 N   0  0  0  0  0  0
  -31.9372  -14.6105   20.3162 O   0  0  0  0  0  0
  -21.6601   -6.8830   21.4237 O   0  0  0  0  0  0
  -22.3534  -14.5555   20.6790 O   0  0  0  0  0  0
  -24.6230  -31.8640   23.2037 C   0  0  0  0  0  0
  -25.9104  -32.4790   23.8377 C   0  0  1  0  0  0
  -27.2282  -27.3462   20.1332 C   0  0  0  0  0  0
  -25.5956  -33.8595   24.2326 N   0  0  0  0  0  0
  -23.4155  -30.4833   21.5451 C   0  0  2  0  0  0
  -24.8652  -28.9334   20.1197 C   0  0  0  0  0  0
  -22.7471  -29.4636   22.4961 C   0  0  0  0  0  0
  -18.0297  -28.1366   22.8506 C   0  0  0  0  0  0
  -24.1499  -36.7286   23.2640 C   0  0  0  0  0  0
  -25.9527  -30.8011   21.3732 C   0  0  0  0  0  0
  -26.0295  -29.4250   20.7266 C   0  0  0  0  0  0
  -27.2167  -28.6393   20.7282 C   0  0  0  0  0  0
  -26.0473  -26.8863   19.5190 C   0  0  0  0  0  0
  -24.8733  -27.6655   19.5106 C   0  0  0  0  0  0
  -23.6319  -29.8133   20.1607 C   0  0  0  0  0  0
  -25.4122  -36.3092   24.0342 C   0  0  1  0  0  0
  -20.5892  -28.3675   23.1306 C   0  0  2  0  0  0
  -20.6780  -26.9400   22.5428 C   0  0  0  0  0  0
  -19.5753  -26.6371   21.5231 C   0  0  0  0  0  0
  -18.1926  -26.7919   22.1623 C   0  0  0  0  0  0
  -19.1547  -28.8837   23.2898 C   0  0  0  0  0  0
  -18.9460  -30.1442   23.8905 C   0  0  0  0  0  0
  -17.6454  -30.6568   24.0567 C   0  0  0  0  0  0
  -25.9055  -34.9460   23.5126 C   0  0  0  0  0  0
  -16.5350  -29.9064   23.6319 C   0  0  0  0  0  0
  -16.7284  -28.6479   23.0354 C   0  0  0  0  0  0
  -26.4512  -31.6565   25.0715 C   0  0  0  0  0  0
  -25.3758  -31.3677   26.1442 C   0  0  0  0  0  0
  -27.0361  -30.3002   24.6126 C   0  0  0  0  0  0
  -27.6068  -32.4295   25.7496 C   0  0  0  0  0  0
  -27.5591  -37.1805   24.8470 C   0  0  0  0  0  0
  -21.4190  -29.3032   22.3708 N   0  0  0  0  0  0
  -26.4305  -37.3778   23.9409 N   0  0  0  0  0  0
  -24.6816  -31.0675   22.0973 N   0  0  0  0  0  0
  -23.4209  -28.8198   23.3050 O   0  0  0  0  0  0
  -28.3597  -26.5382   20.0670 O   0  0  0  0  0  0
  -26.5592  -34.8919   22.4677 O   0  0  0  0  0  0
  -23.5406  -32.1448   23.7372 O   0  0  0  0  0  0
  -28.2148  -20.6401   20.5479 C   0  0  0  0  0  0
  -28.3998  -19.2670   20.8713 C   0  0  0  0  0  0
  -29.7164  -18.7404   21.0745 C   0  0  0  0  0  0
  -29.3060  -21.5246   20.4805 C   0  0  0  0  0  0
  -30.7495  -19.7309   21.0612 C   0  0  0  0  0  0
  -27.1365  -18.4309   21.0009 C   0  0  0  0  0  0
  -32.5441  -19.7914   22.8652 C   0  0  0  0  0  0
  -30.4971  -23.6548   19.6085 C   0  0  0  0  0  0
  -31.1392  -16.8503   19.1150 C   0  0  0  0  0  0
  -28.8254  -16.1995   19.3572 C   0  0  0  0  0  0
  -30.0064  -17.1992   21.3605 C   0  0  0  0  0  0
  -32.2026  -19.4183   21.4142 C   0  0  0  0  0  0
  -28.2310  -23.9794   20.8654 C   0  0  0  0  0  0
  -28.5523  -25.5205   21.0970 C   0  0  0  0  0  0
  -29.1485  -23.0179   19.9999 C   0  0  2  0  0  0
  -30.1488  -16.1971   20.1245 C   0  0  0  0  0  0
  -30.5412  -21.0543   20.7884 N   0  0  0  0  0  0
  -31.4539  -12.5041   19.1536 H   0  0  0  0  0  0
  -30.3434  -11.4665   20.0044 H   0  0  0  0  0  0
  -29.7879  -11.6434   17.5467 H   0  0  0  0  0  0
  -29.6066  -13.3750   17.6995 H   0  0  0  0  0  0
  -27.9197  -11.1957   18.9829 H   0  0  0  0  0  0
  -27.3593  -12.3644   17.8175 H   0  0  0  0  0  0
  -27.5163  -14.1126   19.3186 H   0  0  0  0  0  0
  -28.7152  -12.3133   21.5093 H   0  0  0  0  0  0
  -28.4113  -14.0281   21.6690 H   0  0  0  0  0  0
  -25.2677   -9.5655   22.4778 H   0  0  0  0  0  0
  -23.9960   -7.4585   22.7471 H   0  0  0  0  0  0
  -21.0814   -8.8699   19.8933 H   0  0  0  0  0  0
  -22.3597  -10.9650   19.6204 H   0  0  0  0  0  0
  -21.1967   -7.6139   23.9705 H   0  0  0  0  0  0
  -21.1456   -6.0519   25.9079 H   0  0  0  0  0  0
  -22.0624   -2.7601   23.2857 H   0  0  0  0  0  0
  -22.4055  -11.9829   22.4740 H   0  0  0  0  0  0
  -21.1065  -13.1242   22.2751 H   0  0  0  0  0  0
  -24.6645  -15.8317   20.5166 H   0  0  0  0  0  0
  -26.2669  -15.5912   20.0356 H   0  0  0  0  0  0
  -26.7172  -32.5493   23.1134 H   0  0  0  0  0  0
  -25.0198  -33.9758   25.0541 H   0  0  0  0  0  0
  -22.7068  -31.3010   21.3999 H   0  0  0  0  0  0
  -23.3770  -35.9606   23.3301 H   0  0  0  0  0  0
  -24.3599  -36.8902   22.2053 H   0  0  0  0  0  0
  -23.7223  -37.6486   23.6652 H   0  0  0  0  0  0
  -26.0794  -31.5618   20.6014 H   0  0  0  0  0  0
  -26.8341  -30.8538   22.0002 H   0  0  0  0  0  0
  -28.1162  -29.0157   21.1947 H   0  0  0  0  0  0
  -26.0370  -25.9135   19.0479 H   0  0  0  0  0  0
  -23.9804  -27.2825   19.0368 H   0  0  0  0  0  0
  -23.7514  -30.5882   19.4024 H   0  0  0  0  0  0
  -22.7533  -29.2401   19.8590 H   0  0  0  0  0  0
  -25.1293  -36.1964   25.0835 H   0  0  0  0  0  0
  -20.9987  -28.3233   24.1428 H   0  0  0  0  0  0
  -20.5694  -26.2287   23.3630 H   0  0  0  0  0  0
  -21.6649  -26.7435   22.1221 H   0  0  0  0  0  0
  -19.6917  -25.6286   21.1252 H   0  0  0  0  0  0
  -19.6677  -27.3191   20.6773 H   0  0  0  0  0  0
  -17.4224  -26.6735   21.3982 H   0  0  0  0  0  0
  -18.0259  -26.0027   22.8975 H   0  0  0  0  0  0
  -19.7933  -30.7265   24.2268 H   0  0  0  0  0  0
  -17.5001  -31.6241   24.5179 H   0  0  0  0  0  0
  -15.5345  -30.2961   23.7613 H   0  0  0  0  0  0
  -15.8697  -28.0780   22.7062 H   0  0  0  0  0  0
  -24.5952  -30.7006   25.7765 H   0  0  0  0  0  0
  -24.8934  -32.2835   26.4870 H   0  0  0  0  0  0
  -25.8106  -30.8860   27.0210 H   0  0  0  0  0  0
  -26.2916  -29.6726   24.1211 H   0  0  0  0  0  0
  -27.4156  -29.7266   25.4595 H   0  0  0  0  0  0
  -27.8747  -30.4307   23.9277 H   0  0  0  0  0  0
  -27.2664  -33.3567   26.2120 H   0  0  0  0  0  0
  -28.3862  -32.6903   25.0320 H   0  0  0  0  0  0
  -28.0764  -31.8401   26.5383 H   0  0  0  0  0  0
  -28.2614  -38.0100   24.7522 H   0  0  0  0  0  0
  -28.1088  -36.2637   24.6293 H   0  0  0  0  0  0
  -27.2324  -37.1446   25.8878 H   0  0  0  0  0  0
  -20.9369  -29.8754   21.6916 H   0  0  0  0  0  0
  -26.0202  -38.2869   24.1376 H   0  0  0  0  0  0
  -27.2243  -21.0225   20.3430 H   0  0  0  0  0  0
  -26.3493  -19.0203   21.4725 H   0  0  0  0  0  0
  -27.2626  -17.5448   21.6173 H   0  0  0  0  0  0
  -26.7700  -18.1291   20.0207 H   0  0  0  0  0  0
  -33.5749  -19.5328   23.1108 H   0  0  0  0  0  0
  -31.8932  -19.2708   23.5672 H   0  0  0  0  0  0
  -32.4239  -20.8633   23.0280 H   0  0  0  0  0  0
  -31.0370  -23.0189   18.9052 H   0  0  0  0  0  0
  -31.1361  -23.8007   20.4775 H   0  0  0  0  0  0
  -30.3554  -24.6208   19.1243 H   0  0  0  0  0  0
  -30.7924  -17.8172   18.7492 H   0  0  0  0  0  0
  -31.2843  -16.2153   18.2380 H   0  0  0  0  0  0
  -32.1250  -17.0118   19.5492 H   0  0  0  0  0  0
  -28.6046  -17.1765   18.9288 H   0  0  0  0  0  0
  -28.0084  -15.9726   20.0333 H   0  0  0  0  0  0
  -28.8455  -15.5107   18.5142 H   0  0  0  0  0  0
  -29.2332  -16.8153   22.0249 H   0  0  0  0  0  0
  -30.8973  -17.1094   21.9802 H   0  0  0  0  0  0
  -32.8539  -19.9771   20.7416 H   0  0  0  0  0  0
  -32.4510  -18.3745   21.2389 H   0  0  0  0  0  0
  -27.1966  -23.8733   20.5365 H   0  0  0  0  0  0
  -28.2404  -23.5479   21.8665 H   0  0  0  0  0  0
  -29.5880  -25.6046   21.4272 H   0  0  0  0  0  0
  -27.9729  -25.8327   21.9682 H   0  0  0  0  0  0
  -28.6222  -22.9151   19.0494 H   0  0  0  0  0  0
  1 25  1  0  0  0
  1 30  2  0  0  0
  1 86  1  0  0  0
  2  3  1  0  0  0
  2 25  1  0  0  0
  2 88  1  0  0  0
  2 89  1  0  0  0
  3  4  1  0  0  0
  3 90  1  0  0  0
  3 91  1  0  0  0
  4  5  1  0  0  0
  4 92  1  0  0  0
  4 93  1  0  0  0
  5  6  1  0  0  0
  5 26  1  0  0  0
  5 94  1  0  0  0
  6 25  1  0  0  0
  6 95  1  0  0  0
  6 96  1  0  0  0
  7  8  2  0  0  0
  7 26  1  0  0  0
  7 29  1  0  0  0
  8  9  1  0  0  0
  8 22  1  0  0  0
  9 10  1  0  0  0
  9 27  2  0  0  0
 10 11  2  0  0  0
 10 15  1  0  0  0
 11 12  1  0  0  0
 11 97  1  0  0  0
 12 13  2  0  0  0
 12 98  1  0  0  0
 13 14  1  0  0  0
 13 31  1  0  0  0
 14 15  2  0  0  0
 14 99  1  0  0  0
 15100  1  0  0  0
 16 17  2  0  0  0
 16 21  1  0  0  0
 16 31  1  0  0  0
 17 18  1  0  0  0
 17101  1  0  0  0
 18 19  2  0  0  0
 18102  1  0  0  0
 19 20  1  0  0  0
 19 24  1  0  0  0
 20 21  2  0  0  0
 20103  1  0  0  0
 21 23  1  0  0  0
 22 28  1  0  0  0
 22 32  2  0  0  0
 26 27  1  0  0  0
 28104  1  0  0  0
 28105  1  0  0  0
 29106  1  0  0  0
 29107  1  0  0  0
 33 34  1  0  0  0
 33 66  1  0  0  0
 33 70  2  0  0  0
 34 36  1  0  0  0
 34 59  1  0  0  0
 34108  1  0  0  0
 35 44  2  0  0  0
 35 45  1  0  0  0
 35 68  1  0  0  0
 36 56  1  0  0  0
 36109  1  0  0  0
 37 39  1  0  0  0
 37 47  1  0  0  0
 37 66  1  0  0  0
 37110  1  0  0  0
 38 43  2  0  0  0
 38 46  1  0  0  0
 38 47  1  0  0  0
 39 64  1  0  0  0
 39 67  2  0  0  0
 40 52  1  0  0  0
 40 53  2  0  0  0
 40 58  1  0  0  0
 41111  1  0  0  0
 41112  1  0  0  0
 41113  1  0  0  0
 41 48  1  0  0  0
 42 43  1  0  0  0
 42 66  1  0  0  0
 42114  1  0  0  0
 42115  1  0  0  0
 43 44  1  0  0  0
 44116  1  0  0  0
 45 46  2  0  0  0
 45117  1  0  0  0
 46118  1  0  0  0
 47119  1  0  0  0
 47120  1  0  0  0
 48 56  1  0  0  0
 48 65  1  0  0  0
 48121  1  0  0  0
 49 50  1  0  0  0
 49 53  1  0  0  0
 49 64  1  0  0  0
 49122  1  0  0  0
 50 51  1  0  0  0
 50123  1  0  0  0
 50124  1  0  0  0
 51 52  1  0  0  0
 51125  1  0  0  0
 51126  1  0  0  0
 52127  1  0  0  0
 52128  1  0  0  0
 53 54  1  0  0  0
 54 55  2  0  0  0
 54129  1  0  0  0
 55 57  1  0  0  0
 55130  1  0  0  0
 56 69  2  0  0  0
 57 58  2  0  0  0
 57131  1  0  0  0
 58132  1  0  0  0
 59 60  1  0  0  0
 59 61  1  0  0  0
 59 62  1  0  0  0
 60133  1  0  0  0
 60134  1  0  0  0
 60135  1  0  0  0
 61136  1  0  0  0
 61137  1  0  0  0
 61138  1  0  0  0
 62139  1  0  0  0
 62140  1  0  0  0
 62141  1  0  0  0
 63 65  1  0  0  0
 63142  1  0  0  0
 63143  1  0  0  0
 63144  1  0  0  0
 64145  1  0  0  0
 65146  1  0  0  0
 68 84  1  0  0  0
 71 72  2  0  0  0
 71 74  1  0  0  0
 71147  1  0  0  0
 72 73  1  0  0  0
 72 76  1  0  0  0
 73 75  2  0  0  0
 73 81  1  0  0  0
 74 85  1  0  0  0
 74 87  2  0  0  0
 75 82  1  0  0  0
 75 87  1  0  0  0
 76148  1  0  0  0
 76149  1  0  0  0
 76150  1  0  0  0
 77 82  1  0  0  0
 77151  1  0  0  0
 77152  1  0  0  0
 77153  1  0  0  0
 78154  1  0  0  0
 78155  1  0  0  0
 78156  1  0  0  0
 78 85  1  0  0  0
 79157  1  0  0  0
 79158  1  0  0  0
 79159  1  0  0  0
 79 86  1  0  0  0
 80 86  1  0  0  0
 80160  1  0  0  0
 80161  1  0  0  0
 80162  1  0  0  0
 81 86  1  0  0  0
 81163  1  0  0  0
 81164  1  0  0  0
 82165  1  0  0  0
 82166  1  0  0  0
 83 84  1  0  0  0
 83 85  1  0  0  0
 83167  1  0  0  0
 83168  1  0  0  0
 84169  1  0  0  0
 84170  1  0  0  0
 85171  1  0  0  0
M  ISO  4   1 100  68 101  84 101  86 100
M  END
> <chiral flag>
0

> <version>
0

> <s_m_source_file>
/data/baiqing/PycharmProjects/Reinvent-master-3.2/result/LINK_invent/BTK/process_docking_weight1_custom_sum_contain_oxygen_bond_distance_aromatic_linkinvent_7_9_3/rearranged_h_0093.sdf

> <i_m_source_file_index>
5

> <r_mmod_Potential_Energy-OPLS-2005>
63.4197044372559

> <r_mmod_Stretch_Energy-OPLS-2005>
89.2197494506836

> <r_mmod_Bend_Energy-OPLS-2005>
180.911544799805

> <r_mmod_Torsional_Energy-OPLS-2005>
258.299407958984

> <r_mmod_Improper_Torsional_Energy-OPLS-2005>
10.6885843276978

> <r_mmod_Van_der_Waal_Energy-OPLS-2005>
154.392379760742

> <r_mmod_Electrostatic_Energy-OPLS-2005>
-515.555297851562

> <r_mmod_Solvation_Energy-OPLS-2005>
-190.666870117188

> <b_mmod_Minimization_Converged-OPLS-2005>
0

> <r_mmod_RMS_Derivative-OPLS-2005>
2.4046676158905

$$$$
5
                    3D
 Structure written by MMmdl.
168176  0  0  1  0            999 V2000
  -30.5681  -14.9049   20.3652 C   0  0  0  0  0  0
  -30.4382  -12.5522   19.4632 C   0  0  0  0  0  0
  -29.5072  -12.4971   18.2321 C   0  0  0  0  0  0
  -28.0405  -12.2987   18.6666 C   0  0  0  0  0  0
  -27.6287  -13.2402   19.8297 C   0  0  2  0  0  0
  -28.6854  -13.2686   20.9535 C   0  0  0  0  0  0
  -25.2471  -13.8206   20.5741 C   0  0  0  0  0  0
  -24.1777  -13.0435   20.9251 C   0  0  0  0  0  0
  -24.6403  -11.6924   20.8785 C   0  0  0  0  0  0
  -23.9095  -10.4285   21.0419 C   0  0  0  0  0  0
  -24.3641   -9.4192   21.9198 C   0  0  0  0  0  0
  -23.6309   -8.2239   22.0768 C   0  0  0  0  0  0
  -22.4293   -8.0277   21.3555 C   0  0  0  0  0  0
  -21.9934   -9.0267   20.4657 C   0  0  0  0  0  0
  -22.7264  -10.2136   20.3072 C   0  0  0  0  0  0
  -21.6837   -6.0739   22.5293 C   0  0  0  0  0  0
  -21.4005   -6.5640   23.8219 C   0  0  0  0  0  0
  -21.3663   -5.6785   24.9180 C   0  0  0  0  0  0
  -21.6042   -4.3058   24.7220 C   0  0  0  0  0  0
  -21.8813   -3.8147   23.4344 C   0  0  0  0  0  0
  -21.9194   -4.6980   22.3393 C   0  0  0  0  0  0
  -22.7792  -13.5208   21.1894 C   0  0  0  0  0  0
  -22.1647   -4.2144   21.0981 F   0  0  0  0  0  0
  -21.5652   -3.4553   25.7745 F   0  0  0  0  0  0
  -29.9566  -13.6589   20.3258 N   0  0  0  0  0  0
  -26.2899  -12.9442   20.3293 N   0  0  0  0  0  0
  -25.9327  -11.6584   20.5772 N   0  0  0  0  0  0
  -22.0464  -12.8178   22.0457 N   0  0  0  0  0  0
  -25.4137  -15.1940   20.4129 N   0  0  0  0  0  0
  -31.7907  -14.9578   20.2109 O   0  0  0  0  0  0
  -21.6668   -6.8883   21.4238 O   0  0  0  0  0  0
  -22.3447  -14.5500   20.6726 O   0  0  0  0  0  0
  -24.6401  -31.8398   23.1897 C   0  0  0  0  0  0
  -25.9164  -32.4662   23.8256 C   0  0  1  0  0  0
  -27.2279  -27.1617   20.1252 C   0  0  0  0  0  0
  -25.5926  -33.8476   24.2159 N   0  0  0  0  0  0
  -23.4414  -30.4604   21.5324 C   0  0  2  0  0  0
  -24.8929  -28.8930   20.1045 C   0  0  0  0  0  0
  -22.7537  -29.4516   22.4856 C   0  0  0  0  0  0
  -18.0297  -28.1388   22.8469 C   0  0  0  0  0  0
  -24.1488  -36.7256   23.2641 C   0  0  0  0  0  0
  -25.9966  -30.7213   21.3855 C   0  0  0  0  0  0
  -26.0681  -29.3372   20.7232 C   0  0  0  0  0  0
  -27.2306  -28.4823   20.7268 C   0  0  0  0  0  0
  -26.0266  -26.8200   19.4622 C   0  0  0  0  0  0
  -24.8849  -27.6468   19.4636 C   0  0  0  0  0  0
  -23.6664  -29.7878   20.1524 C   0  0  0  0  0  0
  -25.4113  -36.3004   24.0304 C   0  0  1  0  0  0
  -20.5901  -28.3675   23.1253 C   0  0  2  0  0  0
  -20.6766  -26.9378   22.5399 C   0  0  0  0  0  0
  -19.5748  -26.6344   21.5217 C   0  0  0  0  0  0
  -18.1922  -26.7923   22.1619 C   0  0  0  0  0  0
  -19.1554  -28.8847   23.2872 C   0  0  0  0  0  0
  -18.9493  -30.1453   23.8874 C   0  0  0  0  0  0
  -17.6495  -30.6585   24.0539 C   0  0  0  0  0  0
  -25.9071  -34.9386   23.5045 C   0  0  0  0  0  0
  -16.5377  -29.9052   23.6343 C   0  0  0  0  0  0
  -16.7280  -28.6477   23.0354 C   0  0  0  0  0  0
  -26.4530  -31.6546   25.0691 C   0  0  0  0  0  0
  -25.3762  -31.3751   26.1422 C   0  0  0  0  0  0
  -27.0379  -30.2927   24.6285 C   0  0  0  0  0  0
  -27.6011  -32.4374   25.7490 C   0  0  0  0  0  0
  -27.5580  -37.1749   24.8449 C   0  0  0  0  0  0
  -21.4228  -29.3035   22.3646 N   0  0  0  0  0  0
  -26.4254  -37.3742   23.9445 N   0  0  0  0  0  0
  -24.7133  -31.0266   22.0916 N   0  0  0  0  0  0
  -23.4172  -28.8056   23.3008 O   0  0  0  0  0  0
  -28.3041  -26.2051   20.1947 O   0  0  0  0  0  0
  -26.5673  -34.8863   22.4620 O   0  0  0  0  0  0
  -23.5514  -32.1241   23.7106 O   0  0  0  0  0  0
  -29.4572  -18.4315   14.2708 C   0  0  0  0  0  0
  -28.7063  -17.2774   14.9520 C   0  0  0  0  0  0
  -30.5283  -19.0194   15.1972 C   0  0  0  0  0  0
  -28.1140  -17.7153   16.3023 C   0  0  0  0  0  0
  -29.9218  -19.4476   16.5469 C   0  0  0  0  0  0
  -29.2040  -18.2633   17.2480 C   0  0  0  0  0  0
  -28.5999  -18.6077   18.6371 C   0  0  0  0  0  0
  -28.9971  -21.8713   19.6541 C   0  0  0  0  0  0
  -29.0151  -23.4025   20.3415 C   0  0  0  0  0  0
  -29.3351  -20.4322   20.4438 C   0  0  0  0  0  0
  -30.0819  -17.5955   20.6410 C   0  0  0  0  0  0
  -28.1442  -24.7193   19.7885 C   0  0  0  0  0  0
  -29.6401  -18.9405   19.7377 C   0  0  1  0  0  0
  -29.7848  -16.0830   20.3417 N   0  0  0  0  0  0
  -31.4689  -12.7081   19.1436 H   0  0  0  0  0  0
  -30.4310  -11.6044   20.0036 H   0  0  0  0  0  0
  -29.8108  -11.6890   17.5662 H   0  0  0  0  0  0
  -29.5968  -13.4189   17.6559 H   0  0  0  0  0  0
  -27.9319  -11.2603   18.9824 H   0  0  0  0  0  0
  -27.3680  -12.4272   17.8177 H   0  0  0  0  0  0
  -27.5871  -14.2401   19.3988 H   0  0  0  0  0  0
  -28.7703  -12.2942   21.4381 H   0  0  0  0  0  0
  -28.4061  -13.9836   21.7309 H   0  0  0  0  0  0
  -25.2788   -9.5680   22.4768 H   0  0  0  0  0  0
  -24.0022   -7.4619   22.7475 H   0  0  0  0  0  0
  -21.0880   -8.8788   19.8934 H   0  0  0  0  0  0
  -22.3736  -10.9697   19.6188 H   0  0  0  0  0  0
  -21.1977   -7.6141   23.9719 H   0  0  0  0  0  0
  -21.1495   -6.0524   25.9076 H   0  0  0  0  0  0
  -22.0593   -2.7618   23.2853 H   0  0  0  0  0  0
  -22.4118  -11.9830   22.4783 H   0  0  0  0  0  0
  -21.1073  -13.1165   22.2712 H   0  0  0  0  0  0
  -24.6483  -15.8475   20.5342 H   0  0  0  0  0  0
  -26.2595  -15.6372   20.0781 H   0  0  0  0  0  0
  -26.7163  -32.5241   23.0921 H   0  0  0  0  0  0
  -25.0070  -33.9615   25.0302 H   0  0  0  0  0  0
  -22.7493  -31.2893   21.3714 H   0  0  0  0  0  0
  -23.3760  -35.9577   23.3245 H   0  0  0  0  0  0
  -24.3603  -36.8984   22.2078 H   0  0  0  0  0  0
  -23.7236  -37.6416   23.6731 H   0  0  0  0  0  0
  -26.1569  -31.4840   20.6206 H   0  0  0  0  0  0
  -26.8645  -30.7590   22.0320 H   0  0  0  0  0  0
  -28.1202  -28.8130   21.2393 H   0  0  0  0  0  0
  -25.9334  -25.8753   18.9469 H   0  0  0  0  0  0
  -23.9863  -27.3064   18.9670 H   0  0  0  0  0  0
  -23.7889  -30.5568   19.3917 H   0  0  0  0  0  0
  -22.7849  -29.2216   19.8448 H   0  0  0  0  0  0
  -25.1304  -36.1818   25.0794 H   0  0  0  0  0  0
  -20.9984  -28.3226   24.1380 H   0  0  0  0  0  0
  -20.5676  -26.2284   23.3615 H   0  0  0  0  0  0
  -21.6629  -26.7381   22.1202 H   0  0  0  0  0  0
  -19.6950  -25.6266   21.1229 H   0  0  0  0  0  0
  -19.6715  -27.3152   20.6755 H   0  0  0  0  0  0
  -17.4205  -26.6665   21.3997 H   0  0  0  0  0  0
  -18.0309  -26.0069   22.9021 H   0  0  0  0  0  0
  -19.8001  -30.7265   24.2197 H   0  0  0  0  0  0
  -17.5060  -31.6274   24.5140 H   0  0  0  0  0  0
  -15.5374  -30.2954   23.7722 H   0  0  0  0  0  0
  -15.8663  -28.0788   22.7093 H   0  0  0  0  0  0
  -24.5921  -30.7115   25.7785 H   0  0  0  0  0  0
  -24.8989  -32.2941   26.4823 H   0  0  0  0  0  0
  -25.8070  -30.8963   27.0227 H   0  0  0  0  0  0
  -26.2976  -29.6661   24.1283 H   0  0  0  0  0  0
  -27.3984  -29.7239   25.4878 H   0  0  0  0  0  0
  -27.8890  -30.4159   23.9581 H   0  0  0  0  0  0
  -27.2518  -33.3691   26.1960 H   0  0  0  0  0  0
  -28.3841  -32.6943   25.0343 H   0  0  0  0  0  0
  -28.0618  -31.8610   26.5534 H   0  0  0  0  0  0
  -28.2485  -38.0145   24.7574 H   0  0  0  0  0  0
  -28.1186  -36.2680   24.6140 H   0  0  0  0  0  0
  -27.2325  -37.1213   25.8851 H   0  0  0  0  0  0
  -20.9414  -29.8798   21.6882 H   0  0  0  0  0  0
  -26.0125  -38.2790   24.1532 H   0  0  0  0  0  0
  -28.7517  -19.2135   13.9904 H   0  0  0  0  0  0
  -29.9181  -18.0866   13.3437 H   0  0  0  0  0  0
  -29.3909  -16.4409   15.1084 H   0  0  0  0  0  0
  -27.9126  -16.9112   14.2996 H   0  0  0  0  0  0
  -31.0080  -19.8734   14.7137 H   0  0  0  0  0  0
  -31.3154  -18.2814   15.3593 H   0  0  0  0  0  0
  -27.6042  -16.8663   16.7617 H   0  0  0  0  0  0
  -27.3540  -18.4788   16.1336 H   0  0  0  0  0  0
  -29.2223  -20.2694   16.3816 H   0  0  0  0  0  0
  -30.7194  -19.8521   17.1695 H   0  0  0  0  0  0
  -29.9389  -17.4692   17.3956 H   0  0  0  0  0  0
  -27.9884  -17.7690   18.9732 H   0  0  0  0  0  0
  -27.8992  -19.4315   18.5130 H   0  0  0  0  0  0
  -29.6861  -21.9198   18.8104 H   0  0  0  0  0  0
  -28.0224  -21.7550   19.1785 H   0  0  0  0  0  0
  -30.0600  -23.7150   20.3405 H   0  0  0  0  0  0
  -28.7753  -23.2837   21.3989 H   0  0  0  0  0  0
  -28.5009  -20.2713   21.1272 H   0  0  0  0  0  0
  -30.1838  -20.6352   21.0941 H   0  0  0  0  0  0
  -29.6510  -17.7584   21.6283 H   0  0  0  0  0  0
  -31.1573  -17.6627   20.8069 H   0  0  0  0  0  0
  -27.1106  -24.4365   19.9821 H   0  0  0  0  0  0
  -28.2499  -24.7207   18.7035 H   0  0  0  0  0  0
  -30.5573  -19.1476   19.1937 H   0  0  0  0  0  0
  -28.7975  -15.8852   20.2836 H   0  0  0  0  0  0
  1 25  1  0  0  0
  1 30  2  0  0  0
  1 84  1  0  0  0
  2  3  1  0  0  0
  2 25  1  0  0  0
  2 85  1  0  0  0
  2 86  1  0  0  0
  3  4  1  0  0  0
  3 87  1  0  0  0
  3 88  1  0  0  0
  4  5  1  0  0  0
  4 89  1  0  0  0
  4 90  1  0  0  0
  5  6  1  0  0  0
  5 26  1  0  0  0
  5 91  1  0  0  0
  6 25  1  0  0  0
  6 92  1  0  0  0
  6 93  1  0  0  0
  7  8  2  0  0  0
  7 26  1  0  0  0
  7 29  1  0  0  0
  8  9  1  0  0  0
  8 22  1  0  0  0
  9 10  1  0  0  0
  9 27  2  0  0  0
 10 11  2  0  0  0
 10 15  1  0  0  0
 11 12  1  0  0  0
 11 94  1  0  0  0
 12 13  2  0  0  0
 12 95  1  0  0  0
 13 14  1  0  0  0
 13 31  1  0  0  0
 14 15  2  0  0  0
 14 96  1  0  0  0
 15 97  1  0  0  0
 16 17  2  0  0  0
 16 21  1  0  0  0
 16 31  1  0  0  0
 17 18  1  0  0  0
 17 98  1  0  0  0
 18 19  2  0  0  0
 18 99  1  0  0  0
 19 20  1  0  0  0
 19 24  1  0  0  0
 20 21  2  0  0  0
 20100  1  0  0  0
 21 23  1  0  0  0
 22 28  1  0  0  0
 22 32  2  0  0  0
 26 27  1  0  0  0
 28101  1  0  0  0
 28102  1  0  0  0
 29103  1  0  0  0
 29104  1  0  0  0
 33 34  1  0  0  0
 33 66  1  0  0  0
 33 70  2  0  0  0
 34 36  1  0  0  0
 34 59  1  0  0  0
 34105  1  0  0  0
 35 44  2  0  0  0
 35 45  1  0  0  0
 35 68  1  0  0  0
 36 56  1  0  0  0
 36106  1  0  0  0
 37 39  1  0  0  0
 37 47  1  0  0  0
 37 66  1  0  0  0
 37107  1  0  0  0
 38 43  2  0  0  0
 38 46  1  0  0  0
 38 47  1  0  0  0
 39 64  1  0  0  0
 39 67  2  0  0  0
 40 52  1  0  0  0
 40 53  2  0  0  0
 40 58  1  0  0  0
 41108  1  0  0  0
 41109  1  0  0  0
 41110  1  0  0  0
 41 48  1  0  0  0
 42 43  1  0  0  0
 42 66  1  0  0  0
 42111  1  0  0  0
 42112  1  0  0  0
 43 44  1  0  0  0
 44113  1  0  0  0
 45 46  2  0  0  0
 45114  1  0  0  0
 46115  1  0  0  0
 47116  1  0  0  0
 47117  1  0  0  0
 48 56  1  0  0  0
 48 65  1  0  0  0
 48118  1  0  0  0
 49 50  1  0  0  0
 49 53  1  0  0  0
 49 64  1  0  0  0
 49119  1  0  0  0
 50 51  1  0  0  0
 50120  1  0  0  0
 50121  1  0  0  0
 51 52  1  0  0  0
 51122  1  0  0  0
 51123  1  0  0  0
 52124  1  0  0  0
 52125  1  0  0  0
 53 54  1  0  0  0
 54 55  2  0  0  0
 54126  1  0  0  0
 55 57  1  0  0  0
 55127  1  0  0  0
 56 69  2  0  0  0
 57 58  2  0  0  0
 57128  1  0  0  0
 58129  1  0  0  0
 59 60  1  0  0  0
 59 61  1  0  0  0
 59 62  1  0  0  0
 60130  1  0  0  0
 60131  1  0  0  0
 60132  1  0  0  0
 61133  1  0  0  0
 61134  1  0  0  0
 61135  1  0  0  0
 62136  1  0  0  0
 62137  1  0  0  0
 62138  1  0  0  0
 63 65  1  0  0  0
 63139  1  0  0  0
 63140  1  0  0  0
 63141  1  0  0  0
 64142  1  0  0  0
 65143  1  0  0  0
 68 82  1  0  0  0
 71 72  1  0  0  0
 71 73  1  0  0  0
 71144  1  0  0  0
 71145  1  0  0  0
 72 74  1  0  0  0
 72146  1  0  0  0
 72147  1  0  0  0
 73 75  1  0  0  0
 73148  1  0  0  0
 73149  1  0  0  0
 74 76  1  0  0  0
 74150  1  0  0  0
 74151  1  0  0  0
 75 76  1  0  0  0
 75152  1  0  0  0
 75153  1  0  0  0
 76 77  1  0  0  0
 76154  1  0  0  0
 77155  1  0  0  0
 77156  1  0  0  0
 77 83  1  0  0  0
 78 79  1  0  0  0
 78 80  1  0  0  0
 78157  1  0  0  0
 78158  1  0  0  0
 79 82  1  0  0  0
 79159  1  0  0  0
 79160  1  0  0  0
 80 83  1  0  0  0
 80161  1  0  0  0
 80162  1  0  0  0
 81 83  1  0  0  0
 81 84  1  0  0  0
 81163  1  0  0  0
 81164  1  0  0  0
 82165  1  0  0  0
 82166  1  0  0  0
 83167  1  0  0  0
 84168  1  0  0  0
M  ISO  4   1 100  68 101  82 101  84 100
M  END
> <chiral flag>
0

> <version>
0

> <s_m_source_file>
/data/baiqing/PycharmProjects/Reinvent-master-3.2/result/LINK_invent/BTK/process_docking_weight1_custom_sum_contain_oxygen_bond_distance_aromatic_linkinvent_7_9_3/rearranged_h_0093.sdf

> <i_m_source_file_index>
6

> <r_mmod_Potential_Energy-OPLS-2005>
496.965484619141

> <r_mmod_Stretch_Energy-OPLS-2005>
242.335754394531

> <r_mmod_Bend_Energy-OPLS-2005>
261.721405029297

> <r_mmod_Torsional_Energy-OPLS-2005>
267.839782714844

> <r_mmod_Improper_Torsional_Energy-OPLS-2005>
5.30545234680176

> <r_mmod_Van_der_Waal_Energy-OPLS-2005>
112.62166595459

> <r_mmod_Electrostatic_Energy-OPLS-2005>
-365.316253662109

> <r_mmod_Solvation_Energy-OPLS-2005>
-197.808197021484

> <b_mmod_Minimization_Converged-OPLS-2005>
0

> <r_mmod_RMS_Derivative-OPLS-2005>
5.1259880065918

$$$$
6
                    3D
 Structure written by MMmdl.
178186  0  0  1  0            999 V2000
  -30.6543  -14.5533   20.6116 C   0  0  0  0  0  0
  -30.4136  -12.3593   19.4838 C   0  0  0  0  0  0
  -29.5343  -12.5767   18.2373 C   0  0  0  0  0  0
  -28.0503  -12.3947   18.6123 C   0  0  0  0  0  0
  -27.6620  -13.2197   19.8725 C   0  0  2  0  0  0
  -28.6749  -13.0268   21.0208 C   0  0  0  0  0  0
  -25.2648  -13.8103   20.5500 C   0  0  0  0  0  0
  -24.1884  -13.0387   20.8979 C   0  0  0  0  0  0
  -24.6433  -11.6854   20.8595 C   0  0  0  0  0  0
  -23.9066  -10.4262   21.0363 C   0  0  0  0  0  0
  -24.3630   -9.4219   21.9168 C   0  0  0  0  0  0
  -23.6276   -8.2241   22.0804 C   0  0  0  0  0  0
  -22.4336   -8.0243   21.3566 C   0  0  0  0  0  0
  -21.9888   -9.0210   20.4691 C   0  0  0  0  0  0
  -22.7177  -10.2102   20.3086 C   0  0  0  0  0  0
  -21.6893   -6.0645   22.5168 C   0  0  0  0  0  0
  -21.4034   -6.5547   23.8108 C   0  0  0  0  0  0
  -21.3686   -5.6776   24.9046 C   0  0  0  0  0  0
  -21.6125   -4.2971   24.7135 C   0  0  0  0  0  0
  -21.8823   -3.8072   23.4297 C   0  0  0  0  0  0
  -21.9194   -4.6878   22.3302 C   0  0  0  0  0  0
  -22.7978  -13.5283   21.1572 C   0  0  0  0  0  0
  -22.1634   -4.2043   21.0899 F   0  0  0  0  0  0
  -21.5707   -3.4525   25.7690 F   0  0  0  0  0  0
  -30.0046  -13.3506   20.4962 N   0  0  0  0  0  0
  -26.3020  -12.9310   20.3194 N   0  0  0  0  0  0
  -25.9366  -11.6448   20.5600 N   0  0  0  0  0  0
  -22.0651  -12.8338   22.0158 N   0  0  0  0  0  0
  -25.4305  -15.1789   20.3744 N   0  0  0  0  0  0
  -31.7684  -14.7314   20.1331 O   0  0  0  0  0  0
  -21.6715   -6.8785   21.4156 O   0  0  0  0  0  0
  -22.3715  -14.5547   20.6321 O   0  0  0  0  0  0
  -24.6147  -31.8644   23.2114 C   0  0  0  0  0  0
  -25.9080  -32.4792   23.8344 C   0  0  1  0  0  0
  -27.1922  -27.4554   20.0120 C   0  0  0  0  0  0
  -25.5919  -33.8555   24.2263 N   0  0  0  0  0  0
  -23.4011  -30.4947   21.5501 C   0  0  2  0  0  0
  -24.8321  -28.9899   20.0865 C   0  0  0  0  0  0
  -22.7409  -29.4650   22.4942 C   0  0  0  0  0  0
  -18.0236  -28.1351   22.8340 C   0  0  0  0  0  0
  -24.1497  -36.7324   23.2631 C   0  0  0  0  0  0
  -25.9301  -30.8329   21.3789 C   0  0  0  0  0  0
  -25.9876  -29.4621   20.7335 C   0  0  0  0  0  0
  -27.1622  -28.6750   20.7352 C   0  0  0  0  0  0
  -26.0329  -27.0108   19.3654 C   0  0  0  0  0  0
  -24.8453  -27.7556   19.4121 C   0  0  0  0  0  0
  -23.6049  -29.8454   20.1560 C   0  0  0  0  0  0
  -25.4088  -36.3062   24.0352 C   0  0  1  0  0  0
  -20.5860  -28.3549   23.1305 C   0  0  2  0  0  0
  -20.6777  -26.9382   22.5130 C   0  0  0  0  0  0
  -19.5826  -26.6769   21.4774 C   0  0  0  0  0  0
  -18.1929  -26.8075   22.1099 C   0  0  0  0  0  0
  -19.1502  -28.8698   23.2953 C   0  0  0  0  0  0
  -18.9416  -30.1177   23.9152 C   0  0  0  0  0  0
  -17.6438  -30.6401   24.0737 C   0  0  0  0  0  0
  -25.8997  -34.9481   23.5110 C   0  0  0  0  0  0
  -16.5316  -29.9012   23.6267 C   0  0  0  0  0  0
  -16.7242  -28.6498   23.0172 C   0  0  0  0  0  0
  -26.4444  -31.6540   25.0652 C   0  0  0  0  0  0
  -25.3709  -31.3822   26.1426 C   0  0  0  0  0  0
  -27.0116  -30.2883   24.6114 C   0  0  0  0  0  0
  -27.6022  -32.4188   25.7404 C   0  0  0  0  0  0
  -27.5583  -37.1811   24.8432 C   0  0  0  0  0  0
  -21.4100  -29.3017   22.3792 N   0  0  0  0  0  0
  -26.4250  -37.3770   23.9428 N   0  0  0  0  0  0
  -24.6692  -31.0784   22.1038 N   0  0  0  0  0  0
  -23.4207  -28.8107   23.2928 O   0  0  0  0  0  0
  -28.3481  -26.7620   19.7586 O   0  0  0  0  0  0
  -26.5527  -34.8928   22.4621 O   0  0  0  0  0  0
  -23.5366  -32.1404   23.7495 O   0  0  0  0  0  0
  -29.6530  -19.3825   20.3383 C   0  0  0  0  0  0
  -29.4514  -18.1365   20.9318 C   0  0  0  0  0  0
  -27.5013  -19.2490   20.7822 C   0  0  0  0  0  0
  -25.3440  -18.8453   16.0570 C   0  0  0  0  0  0
  -23.9367  -19.6162   22.1891 C   0  0  0  0  0  0
  -26.3974  -24.0233   20.5845 C   0  0  0  0  0  0
  -30.4217  -16.9937   21.2873 C   0  0  0  0  0  0
  -24.2640  -19.0929   17.1485 C   0  0  0  0  0  0
  -25.3017  -18.9398   22.0056 C   0  0  0  0  0  0
  -24.7408  -19.8522   18.4207 C   0  0  0  0  0  0
  -25.4784  -18.9010   19.3846 C   0  0  0  0  0  0
  -28.5248  -22.7562   20.2861 C   0  0  0  0  0  0
  -28.1484  -21.3897   19.5541 C   0  0  0  0  0  0
  -28.5610  -25.4759   20.3421 C   0  0  0  0  0  0
  -26.0176  -19.4638   20.7354 C   0  0  2  0  0  0
  -27.7921  -24.1303   19.9235 C   0  0  2  0  0  0
  -28.4467  -20.0600   20.2536 N   0  0  0  0  0  0
  -28.1054  -18.1161   21.1949 N   0  3  0  0  0  0
  -29.9535  -15.5797   21.1800 N   0  0  0  0  0  0
  -31.4753  -12.4311   19.2420 H   0  0  0  0  0  0
  -30.2649  -11.3478   19.8646 H   0  0  0  0  0  0
  -29.8109  -11.8894   17.4372 H   0  0  0  0  0  0
  -29.7059  -13.5824   17.8430 H   0  0  0  0  0  0
  -27.8865  -11.3331   18.7961 H   0  0  0  0  0  0
  -27.4079  -12.6605   17.7735 H   0  0  0  0  0  0
  -27.6964  -14.2710   19.5806 H   0  0  0  0  0  0
  -28.6500  -11.9966   21.3861 H   0  0  0  0  0  0
  -28.4001  -13.6425   21.8792 H   0  0  0  0  0  0
  -25.2774   -9.5726   22.4709 H   0  0  0  0  0  0
  -23.9994   -7.4710   22.7618 H   0  0  0  0  0  0
  -21.0794   -8.8639   19.9088 H   0  0  0  0  0  0
  -22.3518  -10.9605   19.6238 H   0  0  0  0  0  0
  -21.2023   -7.6082   23.9498 H   0  0  0  0  0  0
  -21.1549   -6.0514   25.8944 H   0  0  0  0  0  0
  -22.0623   -2.7530   23.2754 H   0  0  0  0  0  0
  -22.4315  -11.9928   22.4347 H   0  0  0  0  0  0
  -21.1373  -13.1478   22.2512 H   0  0  0  0  0  0
  -24.5630  -15.6611   20.1766 H   0  0  0  0  0  0
  -26.1767  -15.4667   19.7564 H   0  0  0  0  0  0
  -26.7170  -32.5532   23.1126 H   0  0  0  0  0  0
  -24.9940  -33.9648   25.0334 H   0  0  0  0  0  0
  -22.6913  -31.3132   21.4144 H   0  0  0  0  0  0
  -23.3721  -35.9690   23.3200 H   0  0  0  0  0  0
  -24.3680  -36.8952   22.2065 H   0  0  0  0  0  0
  -23.7246  -37.6548   23.6604 H   0  0  0  0  0  0
  -26.0500  -31.6054   20.6163 H   0  0  0  0  0  0
  -26.8321  -30.8772   21.9863 H   0  0  0  0  0  0
  -28.0602  -29.0180   21.2380 H   0  0  0  0  0  0
  -26.0983  -26.1460   18.7153 H   0  0  0  0  0  0
  -23.9873  -27.4216   18.8406 H   0  0  0  0  0  0
  -23.6842  -30.6227   19.3966 H   0  0  0  0  0  0
  -22.7407  -29.2452   19.8728 H   0  0  0  0  0  0
  -25.1249  -36.1909   25.0846 H   0  0  0  0  0  0
  -20.9954  -28.2911   24.1436 H   0  0  0  0  0  0
  -20.5667  -26.1964   23.3067 H   0  0  0  0  0  0
  -21.6655  -26.7585   22.0850 H   0  0  0  0  0  0
  -19.7058  -25.6975   21.0168 H   0  0  0  0  0  0
  -19.6852  -27.4084   20.6758 H   0  0  0  0  0  0
  -17.4359  -26.7202   21.3268 H   0  0  0  0  0  0
  -18.0101  -25.9910   22.8110 H   0  0  0  0  0  0
  -19.7876  -30.6809   24.2847 H   0  0  0  0  0  0
  -17.4977  -31.5972   24.5527 H   0  0  0  0  0  0
  -15.5338  -30.2974   23.7487 H   0  0  0  0  0  0
  -15.8638  -28.0937   22.6694 H   0  0  0  0  0  0
  -24.5991  -30.6941   25.7962 H   0  0  0  0  0  0
  -24.8787  -32.3036   26.4551 H   0  0  0  0  0  0
  -25.8145  -30.9371   27.0346 H   0  0  0  0  0  0
  -26.2684  -29.6788   24.0968 H   0  0  0  0  0  0
  -27.3479  -29.6987   25.4655 H   0  0  0  0  0  0
  -27.8704  -30.3962   23.9483 H   0  0  0  0  0  0
  -27.2657  -33.3495   26.1982 H   0  0  0  0  0  0
  -28.3886  -32.6713   25.0270 H   0  0  0  0  0  0
  -28.0607  -31.8264   26.5334 H   0  0  0  0  0  0
  -28.2565  -38.0140   24.7461 H   0  0  0  0  0  0
  -28.1097  -36.2670   24.6187 H   0  0  0  0  0  0
  -27.2354  -37.1415   25.8850 H   0  0  0  0  0  0
  -20.9178  -29.8869   21.7170 H   0  0  0  0  0  0
  -26.0128  -38.2846   24.1400 H   0  0  0  0  0  0
  -30.5553  -19.8213   19.9374 H   0  0  0  0  0  0
  -25.0858  -18.0444   15.3634 H   0  0  0  0  0  0
  -26.3023  -18.5614   16.4767 H   0  0  0  0  0  0
  -25.5393  -19.7097   15.4311 H   0  0  0  0  0  0
  -23.1951  -19.1829   21.5220 H   0  0  0  0  0  0
  -23.9930  -20.6785   21.9599 H   0  0  0  0  0  0
  -23.5703  -19.5268   23.2108 H   0  0  0  0  0  0
  -26.1129  -22.9995   20.8294 H   0  0  0  0  0  0
  -25.5688  -24.3794   19.9790 H   0  0  0  0  0  0
  -26.3474  -24.5527   21.5297 H   0  0  0  0  0  0
  -30.7582  -17.1477   22.3140 H   0  0  0  0  0  0
  -31.3158  -17.1310   20.6810 H   0  0  0  0  0  0
  -23.8556  -18.1377   17.4653 H   0  0  0  0  0  0
  -23.3971  -19.5795   16.7056 H   0  0  0  0  0  0
  -25.2122  -17.8547   22.0252 H   0  0  0  0  0  0
  -25.9097  -19.1721   22.8828 H   0  0  0  0  0  0
  -23.9112  -20.3299   18.9368 H   0  0  0  0  0  0
  -25.3721  -20.6870   18.1436 H   0  0  0  0  0  0
  -26.3205  -18.5341   18.8041 H   0  0  0  0  0  0
  -24.8708  -18.0203   19.5606 H   0  0  0  0  0  0
  -29.5746  -22.8882   20.0987 H   0  0  0  0  0  0
  -28.4295  -22.5867   21.3550 H   0  0  0  0  0  0
  -28.6913  -21.3315   18.6113 H   0  0  0  0  0  0
  -27.1140  -21.3742   19.2307 H   0  0  0  0  0  0
  -28.6519  -25.6040   21.4202 H   0  0  0  0  0  0
  -29.6240  -25.3445   20.1016 H   0  0  0  0  0  0
  -25.9037  -20.5401   20.7748 H   0  0  0  0  0  0
  -27.6017  -24.1284   18.8553 H   0  0  0  0  0  0
  -27.6105  -17.3362   21.6158 H   0  0  0  0  0  0
  -29.0921  -15.3380   21.6342 H   0  0  0  0  0  0
  1 25  1  0  0  0
  1 30  2  0  0  0
  1 89  1  0  0  0
  2  3  1  0  0  0
  2 25  1  0  0  0
  2 90  1  0  0  0
  2 91  1  0  0  0
  3  4  1  0  0  0
  3 92  1  0  0  0
  3 93  1  0  0  0
  4  5  1  0  0  0
  4 94  1  0  0  0
  4 95  1  0  0  0
  5  6  1  0  0  0
  5 26  1  0  0  0
  5 96  1  0  0  0
  6 25  1  0  0  0
  6 97  1  0  0  0
  6 98  1  0  0  0
  7  8  2  0  0  0
  7 26  1  0  0  0
  7 29  1  0  0  0
  8  9  1  0  0  0
  8 22  1  0  0  0
  9 10  1  0  0  0
  9 27  2  0  0  0
 10 11  2  0  0  0
 10 15  1  0  0  0
 11 12  1  0  0  0
 11 99  1  0  0  0
 12 13  2  0  0  0
 12100  1  0  0  0
 13 14  1  0  0  0
 13 31  1  0  0  0
 14 15  2  0  0  0
 14101  1  0  0  0
 15102  1  0  0  0
 16 17  2  0  0  0
 16 21  1  0  0  0
 16 31  1  0  0  0
 17 18  1  0  0  0
 17103  1  0  0  0
 18 19  2  0  0  0
 18104  1  0  0  0
 19 20  1  0  0  0
 19 24  1  0  0  0
 20 21  2  0  0  0
 20105  1  0  0  0
 21 23  1  0  0  0
 22 28  1  0  0  0
 22 32  2  0  0  0
 26 27  1  0  0  0
 28106  1  0  0  0
 28107  1  0  0  0
 29108  1  0  0  0
 29109  1  0  0  0
 33 34  1  0  0  0
 33 66  1  0  0  0
 33 70  2  0  0  0
 34 36  1  0  0  0
 34 59  1  0  0  0
 34110  1  0  0  0
 35 44  2  0  0  0
 35 45  1  0  0  0
 35 68  1  0  0  0
 36 56  1  0  0  0
 36111  1  0  0  0
 37 39  1  0  0  0
 37 47  1  0  0  0
 37 66  1  0  0  0
 37112  1  0  0  0
 38 43  2  0  0  0
 38 46  1  0  0  0
 38 47  1  0  0  0
 39 64  1  0  0  0
 39 67  2  0  0  0
 40 52  1  0  0  0
 40 53  2  0  0  0
 40 58  1  0  0  0
 41113  1  0  0  0
 41114  1  0  0  0
 41115  1  0  0  0
 41 48  1  0  0  0
 42 43  1  0  0  0
 42 66  1  0  0  0
 42116  1  0  0  0
 42117  1  0  0  0
 43 44  1  0  0  0
 44118  1  0  0  0
 45 46  2  0  0  0
 45119  1  0  0  0
 46120  1  0  0  0
 47121  1  0  0  0
 47122  1  0  0  0
 48 56  1  0  0  0
 48 65  1  0  0  0
 48123  1  0  0  0
 49 50  1  0  0  0
 49 53  1  0  0  0
 49 64  1  0  0  0
 49124  1  0  0  0
 50 51  1  0  0  0
 50125  1  0  0  0
 50126  1  0  0  0
 51 52  1  0  0  0
 51127  1  0  0  0
 51128  1  0  0  0
 52129  1  0  0  0
 52130  1  0  0  0
 53 54  1  0  0  0
 54 55  2  0  0  0
 54131  1  0  0  0
 55 57  1  0  0  0
 55132  1  0  0  0
 56 69  2  0  0  0
 57 58  2  0  0  0
 57133  1  0  0  0
 58134  1  0  0  0
 59 60  1  0  0  0
 59 61  1  0  0  0
 59 62  1  0  0  0
 60135  1  0  0  0
 60136  1  0  0  0
 60137  1  0  0  0
 61138  1  0  0  0
 61139  1  0  0  0
 61140  1  0  0  0
 62141  1  0  0  0
 62142  1  0  0  0
 62143  1  0  0  0
 63 65  1  0  0  0
 63144  1  0  0  0
 63145  1  0  0  0
 63146  1  0  0  0
 64147  1  0  0  0
 65148  1  0  0  0
 68 84  1  0  0  0
 71 72  2  0  0  0
 71 87  1  0  0  0
 71149  1  0  0  0
 72 77  1  0  0  0
 72 88  1  0  0  0
 73 85  1  0  0  0
 73 87  1  0  0  0
 73 88  2  0  0  0
 74 78  1  0  0  0
 74150  1  0  0  0
 74151  1  0  0  0
 74152  1  0  0  0
 75 79  1  0  0  0
 75153  1  0  0  0
 75154  1  0  0  0
 75155  1  0  0  0
 76156  1  0  0  0
 76157  1  0  0  0
 76158  1  0  0  0
 76 86  1  0  0  0
 77 89  1  0  0  0
 77159  1  0  0  0
 77160  1  0  0  0
 78 80  1  0  0  0
 78161  1  0  0  0
 78162  1  0  0  0
 79163  1  0  0  0
 79164  1  0  0  0
 79 85  1  0  0  0
 80 81  1  0  0  0
 80165  1  0  0  0
 80166  1  0  0  0
 81 85  1  0  0  0
 81167  1  0  0  0
 81168  1  0  0  0
 82 83  1  0  0  0
 82 86  1  0  0  0
 82169  1  0  0  0
 82170  1  0  0  0
 83 87  1  0  0  0
 83171  1  0  0  0
 83172  1  0  0  0
 84 86  1  0  0  0
 84173  1  0  0  0
 84174  1  0  0  0
 85175  1  0  0  0
 86176  1  0  0  0
 88177  1  0  0  0
 89178  1  0  0  0
M  CHG  1  88   1
M  ISO  4   1 100  68 101  84 101  89 100
M  END
> <chiral flag>
0

> <version>
0

> <s_m_source_file>
/data/baiqing/PycharmProjects/Reinvent-master-3.2/result/LINK_invent/BTK/process_docking_weight1_custom_sum_contain_oxygen_bond_distance_aromatic_linkinvent_7_9_3/rearranged_h_0093.sdf

> <i_m_source_file_index>
7

> <r_mmod_Potential_Energy-OPLS-2005>
17.6694259643555

> <r_mmod_Stretch_Energy-OPLS-2005>
70.3470001220703

> <r_mmod_Bend_Energy-OPLS-2005>
165.100219726562

> <r_mmod_Torsional_Energy-OPLS-2005>
299.937561035156

> <r_mmod_Improper_Torsional_Energy-OPLS-2005>
10.0845079421997

> <r_mmod_Van_der_Waal_Energy-OPLS-2005>
113.013038635254

> <r_mmod_Electrostatic_Energy-OPLS-2005>
-273.215240478516

> <r_mmod_Solvation_Energy-OPLS-2005>
-401.887512207031

> <b_mmod_Minimization_Converged-OPLS-2005>
0

> <r_mmod_RMS_Derivative-OPLS-2005>
21.4092788696289

$$$$
7
                    3D
 Structure written by MMmdl.
175183  0  0  1  0            999 V2000
  -30.7309  -14.3687   20.6745 C   0  0  0  0  0  0
  -30.4344  -12.2871   19.3888 C   0  0  0  0  0  0
  -29.4861  -12.5274   18.1940 C   0  0  0  0  0  0
  -28.0094  -12.3804   18.6132 C   0  0  0  0  0  0
  -27.6724  -13.1878   19.8932 C   0  0  2  0  0  0
  -28.7132  -12.8943   20.9990 C   0  0  0  0  0  0
  -25.2646  -13.8114   20.5679 C   0  0  0  0  0  0
  -24.1862  -13.0409   20.9141 C   0  0  0  0  0  0
  -24.6398  -11.6881   20.8732 C   0  0  0  0  0  0
  -23.9051  -10.4287   21.0406 C   0  0  0  0  0  0
  -24.3602   -9.4207   21.9180 C   0  0  0  0  0  0
  -23.6288   -8.2239   22.0758 C   0  0  0  0  0  0
  -22.4270   -8.0273   21.3549 C   0  0  0  0  0  0
  -21.9903   -9.0242   20.4644 C   0  0  0  0  0  0
  -22.7227  -10.2126   20.3062 C   0  0  0  0  0  0
  -21.6849   -6.0715   22.5281 C   0  0  0  0  0  0
  -21.4006   -6.5628   23.8205 C   0  0  0  0  0  0
  -21.3659   -5.6787   24.9168 C   0  0  0  0  0  0
  -21.6054   -4.3052   24.7222 C   0  0  0  0  0  0
  -21.8829   -3.8137   23.4347 C   0  0  0  0  0  0
  -21.9198   -4.6945   22.3400 C   0  0  0  0  0  0
  -22.7894  -13.5224   21.1808 C   0  0  0  0  0  0
  -22.1658   -4.2128   21.0975 F   0  0  0  0  0  0
  -21.5649   -3.4544   25.7735 F   0  0  0  0  0  0
  -30.0584  -13.2079   20.4707 N   0  0  0  0  0  0
  -26.3084  -12.9246   20.3465 N   0  0  0  0  0  0
  -25.9335  -11.6419   20.5822 N   0  0  0  0  0  0
  -22.0534  -12.8210   22.0365 N   0  0  0  0  0  0
  -25.4386  -15.1826   20.4071 N   0  0  0  0  0  0
  -31.7594  -14.6885   20.0681 O   0  0  0  0  0  0
  -21.6637   -6.8866   21.4249 O   0  0  0  0  0  0
  -22.3581  -14.5536   20.6673 O   0  0  0  0  0  0
  -24.6085  -31.8715   23.2124 C   0  0  0  0  0  0
  -25.9001  -32.4836   23.8403 C   0  0  1  0  0  0
  -27.2402  -27.4619   20.0680 C   0  0  0  0  0  0
  -25.5899  -33.8639   24.2358 N   0  0  0  0  0  0
  -23.3948  -30.4934   21.5548 C   0  0  2  0  0  0
  -24.8387  -28.9619   20.1193 C   0  0  0  0  0  0
  -22.7374  -29.4660   22.5025 C   0  0  0  0  0  0
  -18.0263  -28.1336   22.8471 C   0  0  0  0  0  0
  -24.1491  -36.7313   23.2632 C   0  0  0  0  0  0
  -25.9206  -30.8415   21.3613 C   0  0  0  0  0  0
  -25.9976  -29.4790   20.7068 C   0  0  0  0  0  0
  -27.1954  -28.7334   20.6836 C   0  0  0  0  0  0
  -26.0479  -26.9378   19.5142 C   0  0  0  0  0  0
  -24.8564  -27.6865   19.5306 C   0  0  0  0  0  0
  -23.5984  -29.8238   20.1698 C   0  0  0  0  0  0
  -25.4109  -36.3110   24.0343 C   0  0  1  0  0  0
  -20.5840  -28.3610   23.1345 C   0  0  2  0  0  0
  -20.6737  -26.9349   22.5420 C   0  0  0  0  0  0
  -19.5738  -26.6347   21.5200 C   0  0  0  0  0  0
  -18.1916  -26.7880   22.1609 C   0  0  0  0  0  0
  -19.1505  -28.8788   23.2902 C   0  0  0  0  0  0
  -18.9444  -30.1400   23.8893 C   0  0  0  0  0  0
  -17.6446  -30.6541   24.0538 C   0  0  0  0  0  0
  -25.9042  -34.9480   23.5146 C   0  0  0  0  0  0
  -16.5339  -29.9027   23.6332 C   0  0  0  0  0  0
  -16.7255  -28.6460   23.0333 C   0  0  0  0  0  0
  -26.4452  -31.6583   25.0708 C   0  0  0  0  0  0
  -25.3736  -31.3665   26.1470 C   0  0  0  0  0  0
  -27.0295  -30.3027   24.6053 C   0  0  0  0  0  0
  -27.6034  -32.4290   25.7478 C   0  0  0  0  0  0
  -27.5597  -37.1801   24.8464 C   0  0  0  0  0  0
  -21.4104  -29.3008   22.3793 N   0  0  0  0  0  0
  -26.4299  -37.3798   23.9428 N   0  0  0  0  0  0
  -24.6596  -31.0823   22.1006 N   0  0  0  0  0  0
  -23.4179  -28.8193   23.3028 O   0  0  0  0  0  0
  -28.4623  -26.8247   20.0268 O   0  0  0  0  0  0
  -26.5586  -34.8929   22.4695 O   0  0  0  0  0  0
  -23.5294  -32.1473   23.7516 O   0  0  0  0  0  0
  -29.0978  -19.5985   20.6937 C   0  0  0  0  0  0
  -28.9082  -18.4562   19.9503 C   0  0  0  0  0  0
  -27.6896  -20.0935   19.0464 C   0  0  0  0  0  0
  -27.9676  -22.6430   14.7886 C   0  0  0  0  0  0
  -25.6908  -21.6096   15.2091 C   0  0  0  0  0  0
  -29.8408  -24.6771   21.3936 C   0  0  0  0  0  0
  -29.3975  -17.0452   20.0467 C   0  0  0  0  0  0
  -26.8241  -20.8058   18.0538 C   0  0  0  0  0  0
  -27.6282  -21.1285   16.7818 C   0  0  0  0  0  0
  -28.7557  -23.0475   19.7720 C   0  0  0  0  0  0
  -28.1232  -21.9461   20.6498 C   0  0  0  0  0  0
  -30.1038  -16.6683   21.3665 C   0  0  0  0  0  0
  -28.6308  -25.5718   19.3619 C   0  0  0  0  0  0
  -26.9687  -22.1641   15.8550 C   0  0  0  0  0  0
  -28.6718  -24.4485   20.4158 C   0  0  2  0  0  0
  -28.3136  -20.5802   20.1346 N   0  0  0  0  0  0
  -28.0494  -18.8132   18.9445 N   0  3  0  0  0  0
  -30.1155  -15.2121   21.5092 N   0  0  0  0  0  0
  -31.4748  -12.4147   19.0775 H   0  0  0  0  0  0
  -30.3541  -11.2586   19.7421 H   0  0  0  0  0  0
  -29.7113  -11.8276   17.3898 H   0  0  0  0  0  0
  -29.6517  -13.5272   17.7871 H   0  0  0  0  0  0
  -27.8102  -11.3208   18.7823 H   0  0  0  0  0  0
  -27.3557  -12.6818   17.7932 H   0  0  0  0  0  0
  -27.7374  -14.2424   19.6358 H   0  0  0  0  0  0
  -28.6771  -11.8383   21.2695 H   0  0  0  0  0  0
  -28.4609  -13.4227   21.9191 H   0  0  0  0  0  0
  -25.2749   -9.5674   22.4733 H   0  0  0  0  0  0
  -23.9987   -7.4636   22.7488 H   0  0  0  0  0  0
  -21.0830   -8.8765   19.8948 H   0  0  0  0  0  0
  -22.3691  -10.9654   19.6166 H   0  0  0  0  0  0
  -21.1978   -7.6133   23.9692 H   0  0  0  0  0  0
  -21.1474   -6.0517   25.9064 H   0  0  0  0  0  0
  -22.0608   -2.7598   23.2856 H   0  0  0  0  0  0
  -22.4121  -11.9845   22.4716 H   0  0  0  0  0  0
  -21.1164  -13.1261   22.2589 H   0  0  0  0  0  0
  -24.6775  -15.8416   20.5238 H   0  0  0  0  0  0
  -26.3002  -15.6192   20.1115 H   0  0  0  0  0  0
  -26.7066  -32.5577   23.1171 H   0  0  0  0  0  0
  -25.0065  -33.9819   25.0510 H   0  0  0  0  0  0
  -22.6834  -31.3100   21.4190 H   0  0  0  0  0  0
  -23.3769  -35.9638   23.3286 H   0  0  0  0  0  0
  -24.3568  -36.8924   22.2044 H   0  0  0  0  0  0
  -23.7248  -37.6519   23.6646 H   0  0  0  0  0  0
  -26.0310  -31.6099   20.5947 H   0  0  0  0  0  0
  -26.8079  -30.8912   21.9813 H   0  0  0  0  0  0
  -28.0954  -29.1357   21.1253 H   0  0  0  0  0  0
  -26.0039  -25.9581   19.0630 H   0  0  0  0  0  0
  -23.9549  -27.2762   19.0972 H   0  0  0  0  0  0
  -23.6943  -30.5974   19.4075 H   0  0  0  0  0  0
  -22.7229  -29.2386   19.8831 H   0  0  0  0  0  0
  -25.1273  -36.1969   25.0835 H   0  0  0  0  0  0
  -20.9933  -28.3121   24.1463 H   0  0  0  0  0  0
  -20.5623  -26.2188   23.3574 H   0  0  0  0  0  0
  -21.6614  -26.7375   22.1238 H   0  0  0  0  0  0
  -19.6913  -25.6272   21.1196 H   0  0  0  0  0  0
  -19.6698  -27.3185   20.6756 H   0  0  0  0  0  0
  -17.4191  -26.6632   21.3998 H   0  0  0  0  0  0
  -18.0311  -26.0009   22.8998 H   0  0  0  0  0  0
  -19.7929  -30.7198   24.2264 H   0  0  0  0  0  0
  -17.5015  -31.6235   24.5109 H   0  0  0  0  0  0
  -15.5341  -30.2917   23.7676 H   0  0  0  0  0  0
  -15.8658  -28.0781   22.7031 H   0  0  0  0  0  0
  -24.5942  -30.6966   25.7823 H   0  0  0  0  0  0
  -24.8894  -32.2798   26.4924 H   0  0  0  0  0  0
  -25.8111  -30.8854   27.0223 H   0  0  0  0  0  0
  -26.2845  -29.6774   24.1121 H   0  0  0  0  0  0
  -27.4097  -29.7250   25.4491 H   0  0  0  0  0  0
  -27.8651  -30.4366   23.9184 H   0  0  0  0  0  0
  -27.2689  -33.3602   26.2066 H   0  0  0  0  0  0
  -28.3854  -32.6823   25.0308 H   0  0  0  0  0  0
  -28.0697  -31.8402   26.5383 H   0  0  0  0  0  0
  -28.2582  -38.0130   24.7531 H   0  0  0  0  0  0
  -28.1114  -36.2646   24.6248 H   0  0  0  0  0  0
  -27.2296  -37.1402   25.8861 H   0  0  0  0  0  0
  -20.9227  -29.8757   21.7059 H   0  0  0  0  0  0
  -26.0174  -38.2877   24.1416 H   0  0  0  0  0  0
  -29.6986  -19.7755   21.5779 H   0  0  0  0  0  0
  -27.5177  -23.3915   14.1335 H   0  0  0  0  0  0
  -28.8387  -23.1051   15.2531 H   0  0  0  0  0  0
  -28.3247  -21.8197   14.1675 H   0  0  0  0  0  0
  -25.2569  -22.3212   14.5070 H   0  0  0  0  0  0
  -24.9278  -21.4017   15.9602 H   0  0  0  0  0  0
  -25.8876  -20.6826   14.6666 H   0  0  0  0  0  0
  -29.7055  -25.5982   21.9599 H   0  0  0  0  0  0
  -30.7889  -24.7642   20.8599 H   0  0  0  0  0  0
  -29.9422  -23.8651   22.1130 H   0  0  0  0  0  0
  -30.0572  -16.8441   19.2026 H   0  0  0  0  0  0
  -28.5266  -16.4039   19.9160 H   0  0  0  0  0  0
  -26.4321  -21.7066   18.5211 H   0  0  0  0  0  0
  -25.9701  -20.1611   17.8407 H   0  0  0  0  0  0
  -27.8423  -20.2085   16.2333 H   0  0  0  0  0  0
  -28.6014  -21.5134   17.0913 H   0  0  0  0  0  0
  -28.2352  -23.0782   18.8166 H   0  0  0  0  0  0
  -29.7935  -22.8035   19.5383 H   0  0  0  0  0  0
  -27.0499  -22.1121   20.7523 H   0  0  0  0  0  0
  -28.5234  -21.9737   21.6629 H   0  0  0  0  0  0
  -31.1122  -17.0828   21.4139 H   0  0  0  0  0  0
  -29.5471  -17.0727   22.2131 H   0  0  0  0  0  0
  -27.8978  -25.3739   18.5795 H   0  0  0  0  0  0
  -29.5853  -25.6097   18.8346 H   0  0  0  0  0  0
  -26.7002  -23.0374   16.4527 H   0  0  0  0  0  0
  -27.7364  -24.5009   20.9748 H   0  0  0  0  0  0
  -27.7213  -18.1939   18.2115 H   0  0  0  0  0  0
  -29.3513  -14.8076   22.0314 H   0  0  0  0  0  0
  1 25  1  0  0  0
  1 30  2  0  0  0
  1 88  1  0  0  0
  2  3  1  0  0  0
  2 25  1  0  0  0
  2 89  1  0  0  0
  2 90  1  0  0  0
  3  4  1  0  0  0
  3 91  1  0  0  0
  3 92  1  0  0  0
  4  5  1  0  0  0
  4 93  1  0  0  0
  4 94  1  0  0  0
  5  6  1  0  0  0
  5 26  1  0  0  0
  5 95  1  0  0  0
  6 25  1  0  0  0
  6 96  1  0  0  0
  6 97  1  0  0  0
  7  8  2  0  0  0
  7 26  1  0  0  0
  7 29  1  0  0  0
  8  9  1  0  0  0
  8 22  1  0  0  0
  9 10  1  0  0  0
  9 27  2  0  0  0
 10 11  2  0  0  0
 10 15  1  0  0  0
 11 12  1  0  0  0
 11 98  1  0  0  0
 12 13  2  0  0  0
 12 99  1  0  0  0
 13 14  1  0  0  0
 13 31  1  0  0  0
 14 15  2  0  0  0
 14100  1  0  0  0
 15101  1  0  0  0
 16 17  2  0  0  0
 16 21  1  0  0  0
 16 31  1  0  0  0
 17 18  1  0  0  0
 17102  1  0  0  0
 18 19  2  0  0  0
 18103  1  0  0  0
 19 20  1  0  0  0
 19 24  1  0  0  0
 20 21  2  0  0  0
 20104  1  0  0  0
 21 23  1  0  0  0
 22 28  1  0  0  0
 22 32  2  0  0  0
 26 27  1  0  0  0
 28105  1  0  0  0
 28106  1  0  0  0
 29107  1  0  0  0
 29108  1  0  0  0
 33 34  1  0  0  0
 33 66  1  0  0  0
 33 70  2  0  0  0
 34 36  1  0  0  0
 34 59  1  0  0  0
 34109  1  0  0  0
 35 44  2  0  0  0
 35 45  1  0  0  0
 35 68  1  0  0  0
 36 56  1  0  0  0
 36110  1  0  0  0
 37 39  1  0  0  0
 37 47  1  0  0  0
 37 66  1  0  0  0
 37111  1  0  0  0
 38 43  2  0  0  0
 38 46  1  0  0  0
 38 47  1  0  0  0
 39 64  1  0  0  0
 39 67  2  0  0  0
 40 52  1  0  0  0
 40 53  2  0  0  0
 40 58  1  0  0  0
 41112  1  0  0  0
 41113  1  0  0  0
 41114  1  0  0  0
 41 48  1  0  0  0
 42 43  1  0  0  0
 42 66  1  0  0  0
 42115  1  0  0  0
 42116  1  0  0  0
 43 44  1  0  0  0
 44117  1  0  0  0
 45 46  2  0  0  0
 45118  1  0  0  0
 46119  1  0  0  0
 47120  1  0  0  0
 47121  1  0  0  0
 48 56  1  0  0  0
 48 65  1  0  0  0
 48122  1  0  0  0
 49 50  1  0  0  0
 49 53  1  0  0  0
 49 64  1  0  0  0
 49123  1  0  0  0
 50 51  1  0  0  0
 50124  1  0  0  0
 50125  1  0  0  0
 51 52  1  0  0  0
 51126  1  0  0  0
 51127  1  0  0  0
 52128  1  0  0  0
 52129  1  0  0  0
 53 54  1  0  0  0
 54 55  2  0  0  0
 54130  1  0  0  0
 55 57  1  0  0  0
 55131  1  0  0  0
 56 69  2  0  0  0
 57 58  2  0  0  0
 57132  1  0  0  0
 58133  1  0  0  0
 59 60  1  0  0  0
 59 61  1  0  0  0
 59 62  1  0  0  0
 60134  1  0  0  0
 60135  1  0  0  0
 60136  1  0  0  0
 61137  1  0  0  0
 61138  1  0  0  0
 61139  1  0  0  0
 62140  1  0  0  0
 62141  1  0  0  0
 62142  1  0  0  0
 63 65  1  0  0  0
 63143  1  0  0  0
 63144  1  0  0  0
 63145  1  0  0  0
 64146  1  0  0  0
 65147  1  0  0  0
 68 83  1  0  0  0
 71 72  2  0  0  0
 71 86  1  0  0  0
 71148  1  0  0  0
 72 77  1  0  0  0
 72 87  1  0  0  0
 73 78  1  0  0  0
 73 86  1  0  0  0
 73 87  2  0  0  0
 74149  1  0  0  0
 74150  1  0  0  0
 74151  1  0  0  0
 74 84  1  0  0  0
 75 84  1  0  0  0
 75152  1  0  0  0
 75153  1  0  0  0
 75154  1  0  0  0
 76155  1  0  0  0
 76156  1  0  0  0
 76157  1  0  0  0
 76 85  1  0  0  0
 77 82  1  0  0  0
 77158  1  0  0  0
 77159  1  0  0  0
 78 79  1  0  0  0
 78160  1  0  0  0
 78161  1  0  0  0
 79 84  1  0  0  0
 79162  1  0  0  0
 79163  1  0  0  0
 80 81  1  0  0  0
 80 85  1  0  0  0
 80164  1  0  0  0
 80165  1  0  0  0
 81 86  1  0  0  0
 81166  1  0  0  0
 81167  1  0  0  0
 82 88  1  0  0  0
 82168  1  0  0  0
 82169  1  0  0  0
 83 85  1  0  0  0
 83170  1  0  0  0
 83171  1  0  0  0
 84172  1  0  0  0
 85173  1  0  0  0
 87174  1  0  0  0
 88175  1  0  0  0
M  CHG  1  87   1
M  ISO  4   1 100  68 101  83 101  88 100
M  END
> <chiral flag>
0

> <version>
0

> <s_m_source_file>
/data/baiqing/PycharmProjects/Reinvent-master-3.2/result/LINK_invent/BTK/process_docking_weight1_custom_sum_contain_oxygen_bond_distance_aromatic_linkinvent_7_9_3/rearranged_h_0093.sdf

> <i_m_source_file_index>
8

> <r_mmod_Potential_Energy-OPLS-2005>
-100.902267456055

> <r_mmod_Stretch_Energy-OPLS-2005>
32.1888618469238

> <r_mmod_Bend_Energy-OPLS-2005>
107.17293548584

> <r_mmod_Torsional_Energy-OPLS-2005>
230.933258056641

> <r_mmod_Improper_Torsional_Energy-OPLS-2005>
4.37064027786255

> <r_mmod_Van_der_Waal_Energy-OPLS-2005>
126.864402770996

> <r_mmod_Electrostatic_Energy-OPLS-2005>
-190.29524230957

> <r_mmod_Solvation_Energy-OPLS-2005>
-420.766510009766

> <b_mmod_Minimization_Converged-OPLS-2005>
0

> <r_mmod_RMS_Derivative-OPLS-2005>
3.63523554801941

$$$$
8
                    3D
 Structure written by MMmdl.
161169  0  0  1  0            999 V2000
  -29.0431  -17.9388   20.2560 C   0  0  0  0  0  0
  -29.9123  -14.8767   19.5196 C   0  0  0  0  0  0
  -29.4955  -13.5888   18.5676 C   0  0  0  0  0  0
  -28.3563  -12.7175   19.0826 C   0  0  0  0  0  0
  -27.5175  -13.6988   19.8948 C   0  0  2  0  0  0
  -28.2428  -14.8348   20.8358 C   0  0  0  0  0  0
  -25.1555  -13.9026   20.6054 C   0  0  0  0  0  0
  -24.1413  -13.0611   20.9384 C   0  0  0  0  0  0
  -24.6726  -11.7334   20.8760 C   0  0  0  0  0  0
  -23.9565  -10.4434   21.0265 C   0  0  0  0  0  0
  -24.3966   -9.4324   21.9124 C   0  0  0  0  0  0
  -23.6533   -8.2402   22.0752 C   0  0  0  0  0  0
  -22.4498   -8.0446   21.3548 C   0  0  0  0  0  0
  -22.0227   -9.0432   20.4612 C   0  0  0  0  0  0
  -22.7664  -10.2249   20.2976 C   0  0  0  0  0  0
  -21.6950   -6.0864   22.5255 C   0  0  0  0  0  0
  -21.4076   -6.5721   23.8198 C   0  0  0  0  0  0
  -21.3662   -5.6842   24.9150 C   0  0  0  0  0  0
  -21.6036   -4.3098   24.7179 C   0  0  0  0  0  0
  -21.8823   -3.8227   23.4287 C   0  0  0  0  0  0
  -21.9224   -4.7079   22.3366 C   0  0  0  0  0  0
  -22.7307  -13.4945   21.1936 C   0  0  0  0  0  0
  -22.1695   -4.2278   21.0939 F   0  0  0  0  0  0
  -21.5602   -3.4554   25.7668 F   0  0  0  0  0  0
  -28.8959  -16.1446   20.1060 N   0  0  0  0  0  0
  -26.2648  -13.1263   20.3997 N   0  0  0  0  0  0
  -25.9845  -11.7883   20.5777 N   0  0  0  0  0  0
  -22.0162  -12.7814   22.0533 N   0  0  0  0  0  0
  -25.2247  -15.2801   20.4190 N   0  0  0  0  0  0
  -30.3154  -17.5650   20.2493 O   0  0  0  0  0  0
  -21.6786   -6.9063   21.4243 O   0  0  0  0  0  0
  -22.2841  -14.5194   20.6776 O   0  0  0  0  0  0
  -24.7174  -31.5275   23.0167 C   0  0  0  0  0  0
  -25.9257  -32.3085   23.6971 C   0  0  1  0  0  0
  -28.3372  -26.4119   19.7925 C   0  0  0  0  0  0
  -25.5401  -33.7148   24.0662 N   0  0  0  0  0  0
  -23.6296  -29.7533   21.5052 C   0  0  2  0  0  0
  -24.9479  -27.0063   20.5312 C   0  0  0  0  0  0
  -22.7358  -29.2382   22.5973 C   0  0  0  0  0  0
  -17.9800  -28.1655   22.8535 C   0  0  0  0  0  0
  -24.1459  -36.6619   23.2749 C   0  0  0  0  0  0
  -26.0521  -29.6981   21.5238 C   0  0  0  0  0  0
  -26.1626  -28.0132   21.1707 C   0  0  0  0  0  0
  -27.6931  -27.5719   20.8473 C   0  0  0  0  0  0
  -27.5715  -25.4051   18.4507 C   0  0  0  0  0  0
  -25.7044  -25.2665   18.4201 C   0  0  0  0  0  0
  -23.8879  -28.4533   20.5066 C   0  0  0  0  0  0
  -25.4164  -36.2157   24.0176 C   0  0  1  0  0  0
  -20.5265  -28.3646   23.1879 C   0  0  2  0  0  0
  -20.5944  -26.9046   22.7066 C   0  0  0  0  0  0
  -19.5121  -26.5588   21.6805 C   0  0  0  0  0  0
  -18.1158  -26.8123   22.1978 C   0  0  0  0  0  0
  -19.1068  -28.9039   23.2978 C   0  0  0  0  0  0
  -18.9161  -30.1684   23.8910 C   0  0  0  0  0  0
  -17.6200  -30.6844   24.0629 C   0  0  0  0  0  0
  -25.9096  -34.8538   23.4505 C   0  0  0  0  0  0
  -16.5049  -29.9410   23.6377 C   0  0  0  0  0  0
  -16.6877  -28.6868   23.0315 C   0  0  0  0  0  0
  -26.4601  -31.6135   25.0174 C   0  0  0  0  0  0
  -25.3630  -31.3723   26.0789 C   0  0  0  0  0  0
  -27.0961  -30.2535   24.6969 C   0  0  0  0  0  0
  -27.5760  -32.4505   25.6914 C   0  0  0  0  0  0
  -27.5488  -37.1345   24.8450 C   0  0  0  0  0  0
  -21.4099  -29.2253   22.4038 N   0  0  0  0  0  0
  -26.4174  -37.3104   23.9388 N   0  0  0  0  0  0
  -24.8299  -30.4506   22.0739 N   0  0  0  0  0  0
  -23.2898  -28.7206   23.5601 O   0  0  0  0  0  0
  -28.9354  -25.6052   20.7431 O   0  0  0  0  0  0
  -26.6235  -34.8501   22.4479 O   0  0  0  0  0  0
  -23.6098  -31.9469   23.4101 O   0  0  0  0  0  0
  -24.9301  -24.6296   20.6217 C   0  0  0  0  0  0
  -26.4386  -25.1573   20.4164 C   0  0  0  0  0  0
  -23.6986  -25.1704   19.6476 C   0  0  0  0  0  0
  -23.1300  -22.6847   17.5086 C   0  0  0  0  0  0
  -21.3028  -25.4724   19.4352 C   0  0  0  0  0  0
  -25.3862  -23.9173   21.9370 C   0  0  0  0  0  0
  -27.6207  -22.5251   20.2426 C   0  0  0  0  0  0
  -22.3414  -23.9489   17.8689 C   0  0  0  0  0  0
  -26.9859  -24.1574   22.5624 C   0  0  0  0  0  0
  -28.3095  -25.1856   22.1388 C   0  0  0  0  0  0
  -22.4145  -24.4673   19.3293 C   0  0  1  0  0  0
  -26.3345  -27.1819   18.9577 N   0  0  0  0  0  0
  -28.1994  -19.9288   20.2749 N   0  0  0  0  0  0
  -24.0846  -27.0201   18.2225 S   0  0  0  0  0  0
  -30.6096  -15.4265   18.8852 H   0  0  0  0  0  0
  -30.5693  -14.5312   20.3239 H   0  0  0  0  0  0
  -30.3828  -12.9722   18.3967 H   0  0  0  0  0  0
  -29.2027  -13.9702   17.5888 H   0  0  0  0  0  0
  -28.7345  -11.9253   19.7285 H   0  0  0  0  0  0
  -27.7907  -12.2645   18.2654 H   0  0  0  0  0  0
  -27.1507  -14.3207   19.0784 H   0  0  0  0  0  0
  -28.8919  -14.3738   21.5845 H   0  0  0  0  0  0
  -27.4946  -15.2656   21.5019 H   0  0  0  0  0  0
  -25.3055   -9.5825   22.4807 H   0  0  0  0  0  0
  -24.0188   -7.4855   22.7537 H   0  0  0  0  0  0
  -21.1166   -8.9055   19.8928 H   0  0  0  0  0  0
  -22.4125  -10.9845   19.6160 H   0  0  0  0  0  0
  -21.2100   -7.6234   23.9748 H   0  0  0  0  0  0
  -21.1456   -6.0555   25.9058 H   0  0  0  0  0  0
  -22.0587   -2.7699   23.2720 H   0  0  0  0  0  0
  -22.3978  -11.9562   22.4900 H   0  0  0  0  0  0
  -21.0743  -13.0637   22.2793 H   0  0  0  0  0  0
  -24.4202  -15.8927   20.5142 H   0  0  0  0  0  0
  -26.0620  -15.7513   20.1042 H   0  0  0  0  0  0
  -26.7229  -32.3413   22.9527 H   0  0  0  0  0  0
  -24.8891  -33.7978   24.8332 H   0  0  0  0  0  0
  -23.0667  -30.5017   20.9454 H   0  0  0  0  0  0
  -23.3774  -35.8874   23.3151 H   0  0  0  0  0  0
  -24.3523  -36.8671   22.2226 H   0  0  0  0  0  0
  -23.7134  -37.5593   23.7187 H   0  0  0  0  0  0
  -26.2721  -30.2183   20.5866 H   0  0  0  0  0  0
  -26.9214  -29.9397   22.1200 H   0  0  0  0  0  0
  -28.4615  -28.1297   21.3623 H   0  0  0  0  0  0
  -28.1726  -24.7904   17.7937 H   0  0  0  0  0  0
  -25.1440  -24.7184   17.6742 H   0  0  0  0  0  0
  -24.1878  -29.0452   19.6373 H   0  0  0  0  0  0
  -22.8872  -28.0625   20.2906 H   0  0  0  0  0  0
  -25.1489  -36.0628   25.0658 H   0  0  0  0  0  0
  -20.8949  -28.3679   24.2185 H   0  0  0  0  0  0
  -20.4209  -26.2684   23.5774 H   0  0  0  0  0  0
  -21.5960  -26.6386   22.3781 H   0  0  0  0  0  0
  -19.5724  -25.4985   21.4427 H   0  0  0  0  0  0
  -19.6631  -27.1436   20.7770 H   0  0  0  0  0  0
  -17.4124  -26.7340   21.3729 H   0  0  0  0  0  0
  -17.8437  -26.0469   22.9200 H   0  0  0  0  0  0
  -19.7676  -30.7409   24.2351 H   0  0  0  0  0  0
  -17.4806  -31.6522   24.5222 H   0  0  0  0  0  0
  -15.5055  -30.3322   23.7749 H   0  0  0  0  0  0
  -15.8316  -28.1248   22.6893 H   0  0  0  0  0  0
  -24.5902  -30.6902   25.7243 H   0  0  0  0  0  0
  -24.8741  -32.2991   26.3788 H   0  0  0  0  0  0
  -25.7861  -30.9275   26.9800 H   0  0  0  0  0  0
  -26.3768  -29.5323   24.3128 H   0  0  0  0  0  0
  -27.5154  -29.8020   25.5966 H   0  0  0  0  0  0
  -27.9275  -30.3544   24.0024 H   0  0  0  0  0  0
  -27.2048  -33.3896   26.1044 H   0  0  0  0  0  0
  -28.3778  -32.6951   24.9930 H   0  0  0  0  0  0
  -28.0277  -31.9057   26.5210 H   0  0  0  0  0  0
  -28.2308  -37.9814   24.7580 H   0  0  0  0  0  0
  -28.1163  -36.2298   24.6183 H   0  0  0  0  0  0
  -27.2234  -37.0824   25.8861 H   0  0  0  0  0  0
  -21.0273  -29.6811   21.5870 H   0  0  0  0  0  0
  -25.9832  -38.2066   24.1455 H   0  0  0  0  0  0
  -23.0048  -22.4793   16.4427 H   0  0  0  0  0  0
  -22.7621  -21.8129   18.0456 H   0  0  0  0  0  0
  -24.1947  -22.7855   17.7142 H   0  0  0  0  0  0
  -21.4683  -26.0134   20.3482 H   0  0  0  0  0  0
  -20.3197  -25.0039   19.4265 H   0  0  0  0  0  0
  -21.3369  -26.2200   18.6443 H   0  0  0  0  0  0
  -25.1914  -22.8487   21.8501 H   0  0  0  0  0  0
  -24.6851  -24.2212   22.7197 H   0  0  0  0  0  0
  -28.5783  -22.7603   20.7072 H   0  0  0  0  0  0
  -27.8278  -22.5766   19.1761 H   0  0  0  0  0  0
  -21.3035  -23.7318   17.6226 H   0  0  0  0  0  0
  -22.6086  -24.7552   17.1838 H   0  0  0  0  0  0
  -27.3893  -23.1499   22.6920 H   0  0  0  0  0  0
  -26.8100  -24.4191   23.6044 H   0  0  0  0  0  0
  -29.1749  -24.7100   22.6042 H   0  0  0  0  0  0
  -28.1629  -26.0616   22.7762 H   0  0  0  0  0  0
  -22.2530  -23.6606   20.0466 H   0  0  0  0  0  0
  -29.1674  -20.1874   20.4463 H   0  0  0  0  0  0
  1 25  1  0  0  0
  1 30  2  0  0  0
  1 83  1  0  0  0
  2  3  1  0  0  0
  2 25  1  0  0  0
  2 85  1  0  0  0
  2 86  1  0  0  0
  3  4  1  0  0  0
  3 87  1  0  0  0
  3 88  1  0  0  0
  4  5  1  0  0  0
  4 89  1  0  0  0
  4 90  1  0  0  0
  5  6  1  0  0  0
  5 26  1  0  0  0
  5 91  1  0  0  0
  6 25  1  0  0  0
  6 92  1  0  0  0
  6 93  1  0  0  0
  7  8  2  0  0  0
  7 26  1  0  0  0
  7 29  1  0  0  0
  8  9  1  0  0  0
  8 22  1  0  0  0
  9 10  1  0  0  0
  9 27  2  0  0  0
 10 11  2  0  0  0
 10 15  1  0  0  0
 11 12  1  0  0  0
 11 94  1  0  0  0
 12 13  2  0  0  0
 12 95  1  0  0  0
 13 14  1  0  0  0
 13 31  1  0  0  0
 14 15  2  0  0  0
 14 96  1  0  0  0
 15 97  1  0  0  0
 16 17  2  0  0  0
 16 21  1  0  0  0
 16 31  1  0  0  0
 17 18  1  0  0  0
 17 98  1  0  0  0
 18 19  2  0  0  0
 18 99  1  0  0  0
 19 20  1  0  0  0
 19 24  1  0  0  0
 20 21  2  0  0  0
 20100  1  0  0  0
 21 23  1  0  0  0
 22 28  1  0  0  0
 22 32  2  0  0  0
 26 27  1  0  0  0
 28101  1  0  0  0
 28102  1  0  0  0
 29103  1  0  0  0
 29104  1  0  0  0
 33 34  1  0  0  0
 33 66  1  0  0  0
 33 70  2  0  0  0
 34 36  1  0  0  0
 34 59  1  0  0  0
 34105  1  0  0  0
 35 44  2  0  0  0
 35 45  1  0  0  0
 35 68  1  0  0  0
 36 56  1  0  0  0
 36106  1  0  0  0
 37 39  1  0  0  0
 37 47  1  0  0  0
 37 66  1  0  0  0
 37107  1  0  0  0
 38 43  2  0  0  0
 38 46  1  0  0  0
 38 47  1  0  0  0
 39 64  1  0  0  0
 39 67  2  0  0  0
 40 52  1  0  0  0
 40 53  2  0  0  0
 40 58  1  0  0  0
 41108  1  0  0  0
 41109  1  0  0  0
 41110  1  0  0  0
 41 48  1  0  0  0
 42 43  1  0  0  0
 42 66  1  0  0  0
 42111  1  0  0  0
 42112  1  0  0  0
 43 44  1  0  0  0
 44113  1  0  0  0
 45 46  2  0  0  0
 45114  1  0  0  0
 46115  1  0  0  0
 47116  1  0  0  0
 47117  1  0  0  0
 48 56  1  0  0  0
 48 65  1  0  0  0
 48118  1  0  0  0
 49 50  1  0  0  0
 49 53  1  0  0  0
 49 64  1  0  0  0
 49119  1  0  0  0
 50 51  1  0  0  0
 50120  1  0  0  0
 50121  1  0  0  0
 51 52  1  0  0  0
 51122  1  0  0  0
 51123  1  0  0  0
 52124  1  0  0  0
 52125  1  0  0  0
 53 54  1  0  0  0
 54 55  2  0  0  0
 54126  1  0  0  0
 55 57  1  0  0  0
 55127  1  0  0  0
 56 69  2  0  0  0
 57 58  2  0  0  0
 57128  1  0  0  0
 58129  1  0  0  0
 59 60  1  0  0  0
 59 61  1  0  0  0
 59 62  1  0  0  0
 60130  1  0  0  0
 60131  1  0  0  0
 60132  1  0  0  0
 61133  1  0  0  0
 61134  1  0  0  0
 61135  1  0  0  0
 62136  1  0  0  0
 62137  1  0  0  0
 62138  1  0  0  0
 63 65  1  0  0  0
 63139  1  0  0  0
 63140  1  0  0  0
 63141  1  0  0  0
 64142  1  0  0  0
 65143  1  0  0  0
 68 80  1  0  0  0
 71 72  1  0  0  0
 71 73  2  0  0  0
 71 76  1  0  0  0
 72 77  1  0  0  0
 72 82  2  0  0  0
 73 81  1  0  0  0
 73 84  1  0  0  0
 74 78  1  0  0  0
 74144  1  0  0  0
 74145  1  0  0  0
 74146  1  0  0  0
 75147  1  0  0  0
 75148  1  0  0  0
 75149  1  0  0  0
 75 81  1  0  0  0
 76 79  1  0  0  0
 76150  1  0  0  0
 76151  1  0  0  0
 77 83  1  0  0  0
 77152  1  0  0  0
 77153  1  0  0  0
 78 81  1  0  0  0
 78154  1  0  0  0
 78155  1  0  0  0
 79 80  1  0  0  0
 79156  1  0  0  0
 79157  1  0  0  0
 80158  1  0  0  0
 80159  1  0  0  0
 81160  1  0  0  0
 82 84  1  0  0  0
 83161  1  0  0  0
M  ISO  4   1 100  68 101  80 101  83 100
M  END
> <chiral flag>
0

> <version>
0

> <s_m_source_file>
/data/baiqing/PycharmProjects/Reinvent-master-3.2/result/LINK_invent/BTK/process_docking_weight1_custom_sum_contain_oxygen_bond_distance_aromatic_linkinvent_7_9_3/rearranged_h_0093.sdf

> <i_m_source_file_index>
9

> <r_mmod_Potential_Energy-OPLS-2005>
31379.333984375

> <r_mmod_Stretch_Energy-OPLS-2005>
16936.140625

> <r_mmod_Bend_Energy-OPLS-2005>
2040.84985351562

> <r_mmod_Torsional_Energy-OPLS-2005>
540.269409179688

> <r_mmod_Improper_Torsional_Energy-OPLS-2005>
81.4454803466797

> <r_mmod_Van_der_Waal_Energy-OPLS-2005>
4276.88720703125

> <r_mmod_Electrostatic_Energy-OPLS-2005>
-367.724334716797

> <r_mmod_Solvation_Energy-OPLS-2005>
-257.839904785156

> <b_mmod_Minimization_Converged-OPLS-2005>
0

> <r_mmod_RMS_Derivative-OPLS-2005>
23.4394302368164

$$$$
9
                    3D
 Structure written by MMmdl.
178186  0  0  1  0            999 V2000
  -30.7688  -14.4616   20.6312 C   0  0  0  0  0  0
  -30.4209  -12.3379   19.4253 C   0  0  0  0  0  0
  -29.4863  -12.4935   18.2119 C   0  0  0  0  0  0
  -28.0142  -12.3464   18.6361 C   0  0  0  0  0  0
  -27.6610  -13.2106   19.8761 C   0  0  2  0  0  0
  -28.7051  -13.0354   21.0026 C   0  0  0  0  0  0
  -25.2636  -13.8182   20.5769 C   0  0  0  0  0  0
  -24.1849  -13.0471   20.9225 C   0  0  0  0  0  0
  -24.6392  -11.6923   20.8748 C   0  0  0  0  0  0
  -23.9048  -10.4316   21.0419 C   0  0  0  0  0  0
  -24.3596   -9.4234   21.9195 C   0  0  0  0  0  0
  -23.6285   -8.2253   22.0743 C   0  0  0  0  0  0
  -22.4259   -8.0290   21.3547 C   0  0  0  0  0  0
  -21.9909   -9.0271   20.4659 C   0  0  0  0  0  0
  -22.7225  -10.2161   20.3086 C   0  0  0  0  0  0
  -21.6862   -6.0760   22.5272 C   0  0  0  0  0  0
  -21.4020   -6.5648   23.8219 C   0  0  0  0  0  0
  -21.3662   -5.6790   24.9170 C   0  0  0  0  0  0
  -21.6033   -4.3052   24.7210 C   0  0  0  0  0  0
  -21.8831   -3.8169   23.4320 C   0  0  0  0  0  0
  -21.9207   -4.6991   22.3386 C   0  0  0  0  0  0
  -22.7882  -13.5283   21.1867 C   0  0  0  0  0  0
  -22.1670   -4.2184   21.0962 F   0  0  0  0  0  0
  -21.5619   -3.4529   25.7715 F   0  0  0  0  0  0
  -30.0362  -13.3266   20.4467 N   0  0  0  0  0  0
  -26.3043  -12.9337   20.3427 N   0  0  0  0  0  0
  -25.9330  -11.6501   20.5813 N   0  0  0  0  0  0
  -22.0489  -12.8304   22.0421 N   0  0  0  0  0  0
  -25.4373  -15.1897   20.4177 N   0  0  0  0  0  0
  -31.8240  -14.6654   20.0287 O   0  0  0  0  0  0
  -21.6621   -6.8883   21.4225 O   0  0  0  0  0  0
  -22.3582  -14.5598   20.6717 O   0  0  0  0  0  0
  -24.6161  -31.8675   23.2162 C   0  0  0  0  0  0
  -25.9081  -32.4805   23.8390 C   0  0  1  0  0  0
  -27.2127  -27.4222   20.0860 C   0  0  0  0  0  0
  -25.5946  -33.8609   24.2340 N   0  0  0  0  0  0
  -23.4009  -30.4968   21.5575 C   0  0  2  0  0  0
  -24.8426  -28.9801   20.1074 C   0  0  0  0  0  0
  -22.7404  -29.4674   22.5026 C   0  0  0  0  0  0
  -18.0254  -28.1431   22.8506 C   0  0  0  0  0  0
  -24.1490  -36.7308   23.2632 C   0  0  0  0  0  0
  -25.9333  -30.8326   21.3714 C   0  0  0  0  0  0
  -26.0086  -29.4698   20.7099 C   0  0  0  0  0  0
  -27.1982  -28.6980   20.7038 C   0  0  0  0  0  0
  -26.0348  -26.9842   19.4308 C   0  0  0  0  0  0
  -24.8515  -27.7364   19.4623 C   0  0  0  0  0  0
  -23.6049  -29.8458   20.1660 C   0  0  0  0  0  0
  -25.4105  -36.3089   24.0324 C   0  0  1  0  0  0
  -20.5853  -28.3686   23.1366 C   0  0  2  0  0  0
  -20.6777  -26.9440   22.5439 C   0  0  0  0  0  0
  -19.5749  -26.6440   21.5244 C   0  0  0  0  0  0
  -18.1916  -26.7976   22.1642 C   0  0  0  0  0  0
  -19.1510  -28.8878   23.2920 C   0  0  0  0  0  0
  -18.9440  -30.1494   23.8908 C   0  0  0  0  0  0
  -17.6448  -30.6622   24.0597 C   0  0  0  0  0  0
  -25.9032  -34.9461   23.5112 C   0  0  0  0  0  0
  -16.5336  -29.9127   23.6381 C   0  0  0  0  0  0
  -16.7248  -28.6571   23.0348 C   0  0  0  0  0  0
  -26.4515  -31.6556   25.0694 C   0  0  0  0  0  0
  -25.3780  -31.3695   26.1436 C   0  0  0  0  0  0
  -27.0320  -30.2972   24.6091 C   0  0  0  0  0  0
  -27.6089  -32.4255   25.7484 C   0  0  0  0  0  0
  -27.5567  -37.1812   24.8462 C   0  0  0  0  0  0
  -21.4139  -29.3013   22.3737 N   0  0  0  0  0  0
  -26.4277  -37.3774   23.9407 N   0  0  0  0  0  0
  -24.6679  -31.0770   22.1077 N   0  0  0  0  0  0
  -23.4175  -28.8220   23.3067 O   0  0  0  0  0  0
  -28.3305  -26.6042   20.1339 O   0  0  0  0  0  0
  -26.5580  -34.8908   22.4666 O   0  0  0  0  0  0
  -23.5373  -32.1449   23.7565 O   0  0  0  0  0  0
  -30.5102  -18.6503   21.2009 C   0  0  0  0  0  0
  -31.0497  -17.7699   22.1205 C   0  0  0  0  0  0
  -31.5219  -19.8686   22.7662 C   0  0  0  0  0  0
  -26.7435  -22.0204   26.9375 C   0  0  0  0  0  0
  -29.5303  -24.0915   18.8565 C   0  0  0  0  0  0
  -31.2203  -16.2675   22.2540 C   0  0  0  0  0  0
  -32.1437  -20.9899   23.5640 C   0  0  0  0  0  0
  -27.7063  -21.2140   26.0642 C   0  0  0  0  0  0
  -31.1664  -21.8883   24.3610 C   0  0  0  0  0  0
  -28.9695  -22.0036   25.6958 C   0  0  0  0  0  0
  -29.8936  -21.1605   24.8137 C   0  0  0  0  0  0
  -29.0831  -21.4188   20.4360 C   0  0  0  0  0  0
  -28.4036  -22.7732   20.7731 C   0  0  0  0  0  0
  -30.5110  -21.2477   20.9850 C   0  0  0  0  0  0
  -28.0269  -25.2567   20.5819 C   0  0  0  0  0  0
  -29.0577  -24.1215   20.3205 C   0  0  2  0  0  0
  -30.7997  -19.9389   21.6341 N   0  0  0  0  0  0
  -31.6143  -18.5716   23.0796 N   0  3  0  0  0  0
  -30.3203  -15.3481   21.5378 N   0  0  0  0  0  0
  -31.4627  -12.4368   19.1131 H   0  0  0  0  0  0
  -30.3429  -11.3362   19.8475 H   0  0  0  0  0  0
  -29.7284  -11.7334   17.4669 H   0  0  0  0  0  0
  -29.6432  -13.4612   17.7354 H   0  0  0  0  0  0
  -27.8505  -11.2901   18.8632 H   0  0  0  0  0  0
  -27.3513  -12.5895   17.8032 H   0  0  0  0  0  0
  -27.6990  -14.2536   19.5595 H   0  0  0  0  0  0
  -28.6951  -12.0129   21.3844 H   0  0  0  0  0  0
  -28.4506  -13.6653   21.8544 H   0  0  0  0  0  0
  -25.2742   -9.5728   22.4765 H   0  0  0  0  0  0
  -24.0038   -7.4650   22.7438 H   0  0  0  0  0  0
  -21.0856   -8.8788   19.8948 H   0  0  0  0  0  0
  -22.3674  -10.9706   19.6203 H   0  0  0  0  0  0
  -21.1986   -7.6155   23.9744 H   0  0  0  0  0  0
  -21.1472   -6.0497   25.9081 H   0  0  0  0  0  0
  -22.0603   -2.7633   23.2793 H   0  0  0  0  0  0
  -22.4048  -11.9943   22.4818 H   0  0  0  0  0  0
  -21.1119  -13.1365   22.2585 H   0  0  0  0  0  0
  -24.6770  -15.8518   20.5292 H   0  0  0  0  0  0
  -26.2959  -15.6285   20.1081 H   0  0  0  0  0  0
  -26.7151  -32.5514   23.1139 H   0  0  0  0  0  0
  -25.0079  -33.9763   25.0478 H   0  0  0  0  0  0
  -22.6891  -31.3137   21.4282 H   0  0  0  0  0  0
  -23.3723  -35.9662   23.3293 H   0  0  0  0  0  0
  -24.3599  -36.8929   22.2047 H   0  0  0  0  0  0
  -23.7263  -37.6528   23.6641 H   0  0  0  0  0  0
  -26.0412  -31.6054   20.6091 H   0  0  0  0  0  0
  -26.8256  -30.8803   21.9853 H   0  0  0  0  0  0
  -28.0896  -29.0614   21.1974 H   0  0  0  0  0  0
  -26.0079  -26.0558   18.8813 H   0  0  0  0  0  0
  -23.9589  -27.3680   18.9738 H   0  0  0  0  0  0
  -23.7143  -30.6293   19.4143 H   0  0  0  0  0  0
  -22.7256  -29.2701   19.8686 H   0  0  0  0  0  0
  -25.1280  -36.1931   25.0806 H   0  0  0  0  0  0
  -20.9926  -28.3256   24.1502 H   0  0  0  0  0  0
  -20.5783  -26.2269   23.3596 H   0  0  0  0  0  0
  -21.6637  -26.7566   22.1174 H   0  0  0  0  0  0
  -19.6905  -25.6368   21.1237 H   0  0  0  0  0  0
  -19.6702  -27.3298   20.6821 H   0  0  0  0  0  0
  -17.4201  -26.6765   21.4016 H   0  0  0  0  0  0
  -18.0278  -26.0117   22.9046 H   0  0  0  0  0  0
  -19.7904  -30.7327   24.2269 H   0  0  0  0  0  0
  -17.4994  -31.6294   24.5195 H   0  0  0  0  0  0
  -15.5337  -30.3025   23.7704 H   0  0  0  0  0  0
  -15.8657  -28.0907   22.7033 H   0  0  0  0  0  0
  -24.5993  -30.6963   25.7839 H   0  0  0  0  0  0
  -24.8901  -32.2847   26.4788 H   0  0  0  0  0  0
  -25.8138  -30.8983   27.0245 H   0  0  0  0  0  0
  -26.2866  -29.6759   24.1100 H   0  0  0  0  0  0
  -27.4009  -29.7190   25.4577 H   0  0  0  0  0  0
  -27.8752  -30.4246   23.9290 H   0  0  0  0  0  0
  -27.2709  -33.3559   26.2054 H   0  0  0  0  0  0
  -28.3935  -32.6790   25.0343 H   0  0  0  0  0  0
  -28.0685  -31.8336   26.5410 H   0  0  0  0  0  0
  -28.2599  -38.0107   24.7489 H   0  0  0  0  0  0
  -28.1049  -36.2628   24.6294 H   0  0  0  0  0  0
  -27.2281  -37.1477   25.8870 H   0  0  0  0  0  0
  -20.9312  -29.8677   21.6907 H   0  0  0  0  0  0
  -26.0154  -38.2837   24.1435 H   0  0  0  0  0  0
  -29.9822  -18.4608   20.2777 H   0  0  0  0  0  0
  -25.8402  -21.4460   27.1489 H   0  0  0  0  0  0
  -26.4338  -22.9435   26.4457 H   0  0  0  0  0  0
  -27.2120  -22.2775   27.8886 H   0  0  0  0  0  0
  -30.2829  -23.3169   18.7058 H   0  0  0  0  0  0
  -29.9907  -25.0394   18.5733 H   0  0  0  0  0  0
  -28.7151  -23.8980   18.1596 H   0  0  0  0  0  0
  -31.1222  -16.0208   23.3115 H   0  0  0  0  0  0
  -32.2633  -16.0497   22.0143 H   0  0  0  0  0  0
  -32.7487  -21.5756   22.8708 H   0  0  0  0  0  0
  -32.8489  -20.5201   24.2504 H   0  0  0  0  0  0
  -27.1962  -20.9129   25.1482 H   0  0  0  0  0  0
  -27.9852  -20.2927   26.5831 H   0  0  0  0  0  0
  -30.8664  -22.7413   23.7512 H   0  0  0  0  0  0
  -31.6921  -22.3233   25.2125 H   0  0  0  0  0  0
  -29.4943  -22.3115   26.6020 H   0  0  0  0  0  0
  -28.6944  -22.9209   25.1737 H   0  0  0  0  0  0
  -30.1715  -20.2561   25.3549 H   0  0  0  0  0  0
  -29.3322  -20.8520   23.9311 H   0  0  0  0  0  0
  -29.0809  -21.2632   19.3558 H   0  0  0  0  0  0
  -28.4459  -20.6357   20.8517 H   0  0  0  0  0  0
  -28.2592  -22.8215   21.8528 H   0  0  0  0  0  0
  -27.3931  -22.7059   20.3661 H   0  0  0  0  0  0
  -30.6865  -22.0467   21.7011 H   0  0  0  0  0  0
  -31.2412  -21.3970   20.1901 H   0  0  0  0  0  0
  -27.8344  -25.3121   21.6553 H   0  0  0  0  0  0
  -27.0979  -24.8866   20.1566 H   0  0  0  0  0  0
  -29.9364  -24.3086   20.9400 H   0  0  0  0  0  0
  -32.0867  -18.2253   23.9070 H   0  0  0  0  0  0
  -29.4395  -15.1388   21.9798 H   0  0  0  0  0  0
  1 25  1  0  0  0
  1 30  2  0  0  0
  1 89  1  0  0  0
  2  3  1  0  0  0
  2 25  1  0  0  0
  2 90  1  0  0  0
  2 91  1  0  0  0
  3  4  1  0  0  0
  3 92  1  0  0  0
  3 93  1  0  0  0
  4  5  1  0  0  0
  4 94  1  0  0  0
  4 95  1  0  0  0
  5  6  1  0  0  0
  5 26  1  0  0  0
  5 96  1  0  0  0
  6 25  1  0  0  0
  6 97  1  0  0  0
  6 98  1  0  0  0
  7  8  2  0  0  0
  7 26  1  0  0  0
  7 29  1  0  0  0
  8  9  1  0  0  0
  8 22  1  0  0  0
  9 10  1  0  0  0
  9 27  2  0  0  0
 10 11  2  0  0  0
 10 15  1  0  0  0
 11 12  1  0  0  0
 11 99  1  0  0  0
 12 13  2  0  0  0
 12100  1  0  0  0
 13 14  1  0  0  0
 13 31  1  0  0  0
 14 15  2  0  0  0
 14101  1  0  0  0
 15102  1  0  0  0
 16 17  2  0  0  0
 16 21  1  0  0  0
 16 31  1  0  0  0
 17 18  1  0  0  0
 17103  1  0  0  0
 18 19  2  0  0  0
 18104  1  0  0  0
 19 20  1  0  0  0
 19 24  1  0  0  0
 20 21  2  0  0  0
 20105  1  0  0  0
 21 23  1  0  0  0
 22 28  1  0  0  0
 22 32  2  0  0  0
 26 27  1  0  0  0
 28106  1  0  0  0
 28107  1  0  0  0
 29108  1  0  0  0
 29109  1  0  0  0
 33 34  1  0  0  0
 33 66  1  0  0  0
 33 70  2  0  0  0
 34 36  1  0  0  0
 34 59  1  0  0  0
 34110  1  0  0  0
 35 44  2  0  0  0
 35 45  1  0  0  0
 35 68  1  0  0  0
 36 56  1  0  0  0
 36111  1  0  0  0
 37 39  1  0  0  0
 37 47  1  0  0  0
 37 66  1  0  0  0
 37112  1  0  0  0
 38 43  2  0  0  0
 38 46  1  0  0  0
 38 47  1  0  0  0
 39 64  1  0  0  0
 39 67  2  0  0  0
 40 52  1  0  0  0
 40 53  2  0  0  0
 40 58  1  0  0  0
 41113  1  0  0  0
 41114  1  0  0  0
 41115  1  0  0  0
 41 48  1  0  0  0
 42 43  1  0  0  0
 42 66  1  0  0  0
 42116  1  0  0  0
 42117  1  0  0  0
 43 44  1  0  0  0
 44118  1  0  0  0
 45 46  2  0  0  0
 45119  1  0  0  0
 46120  1  0  0  0
 47121  1  0  0  0
 47122  1  0  0  0
 48 56  1  0  0  0
 48 65  1  0  0  0
 48123  1  0  0  0
 49 50  1  0  0  0
 49 53  1  0  0  0
 49 64  1  0  0  0
 49124  1  0  0  0
 50 51  1  0  0  0
 50125  1  0  0  0
 50126  1  0  0  0
 51 52  1  0  0  0
 51127  1  0  0  0
 51128  1  0  0  0
 52129  1  0  0  0
 52130  1  0  0  0
 53 54  1  0  0  0
 54 55  2  0  0  0
 54131  1  0  0  0
 55 57  1  0  0  0
 55132  1  0  0  0
 56 69  2  0  0  0
 57 58  2  0  0  0
 57133  1  0  0  0
 58134  1  0  0  0
 59 60  1  0  0  0
 59 61  1  0  0  0
 59 62  1  0  0  0
 60135  1  0  0  0
 60136  1  0  0  0
 60137  1  0  0  0
 61138  1  0  0  0
 61139  1  0  0  0
 61140  1  0  0  0
 62141  1  0  0  0
 62142  1  0  0  0
 62143  1  0  0  0
 63 65  1  0  0  0
 63144  1  0  0  0
 63145  1  0  0  0
 63146  1  0  0  0
 64147  1  0  0  0
 65148  1  0  0  0
 68 85  1  0  0  0
 71 72  2  0  0  0
 71 87  1  0  0  0
 71149  1  0  0  0
 72 76  1  0  0  0
 72 88  1  0  0  0
 73 77  1  0  0  0
 73 87  1  0  0  0
 73 88  2  0  0  0
 74 78  1  0  0  0
 74150  1  0  0  0
 74151  1  0  0  0
 74152  1  0  0  0
 75153  1  0  0  0
 75154  1  0  0  0
 75155  1  0  0  0
 75 86  1  0  0  0
 76 89  1  0  0  0
 76156  1  0  0  0
 76157  1  0  0  0
 77 79  1  0  0  0
 77158  1  0  0  0
 77159  1  0  0  0
 78 80  1  0  0  0
 78160  1  0  0  0
 78161  1  0  0  0
 79 81  1  0  0  0
 79162  1  0  0  0
 79163  1  0  0  0
 80 81  1  0  0  0
 80164  1  0  0  0
 80165  1  0  0  0
 81166  1  0  0  0
 81167  1  0  0  0
 82 83  1  0  0  0
 82 84  1  0  0  0
 82168  1  0  0  0
 82169  1  0  0  0
 83 86  1  0  0  0
 83170  1  0  0  0
 83171  1  0  0  0
 84 87  1  0  0  0
 84172  1  0  0  0
 84173  1  0  0  0
 85 86  1  0  0  0
 85174  1  0  0  0
 85175  1  0  0  0
 86176  1  0  0  0
 88177  1  0  0  0
 89178  1  0  0  0
M  CHG  1  88   1
M  ISO  4   1 100  68 101  85 101  89 100
M  END
> <chiral flag>
0

> <version>
0

> <s_m_source_file>
/data/baiqing/PycharmProjects/Reinvent-master-3.2/result/LINK_invent/BTK/process_docking_weight1_custom_sum_contain_oxygen_bond_distance_aromatic_linkinvent_7_9_3/rearranged_h_0093.sdf

> <i_m_source_file_index>
10

> <r_mmod_Potential_Energy-OPLS-2005>
-105.025650024414

> <r_mmod_Stretch_Energy-OPLS-2005>
41.7250900268555

> <r_mmod_Bend_Energy-OPLS-2005>
123.027297973633

> <r_mmod_Torsional_Energy-OPLS-2005>
255.271820068359

> <r_mmod_Improper_Torsional_Energy-OPLS-2005>
3.49114608764648

> <r_mmod_Van_der_Waal_Energy-OPLS-2005>
136.726654052734

> <r_mmod_Electrostatic_Energy-OPLS-2005>
-274.666046142578

> <r_mmod_Solvation_Energy-OPLS-2005>
-408.511199951172

> <b_mmod_Minimization_Converged-OPLS-2005>
0

> <r_mmod_RMS_Derivative-OPLS-2005>
5.01139974594116

$$$$
10
                    3D
 Structure written by MMmdl.
185193  0  0  1  0            999 V2000
  -30.7143  -14.4226   20.5786 C   0  0  0  0  0  0
  -30.4149  -12.2816   19.4084 C   0  0  0  0  0  0
  -29.4880  -12.5167   18.1983 C   0  0  0  0  0  0
  -28.0083  -12.3797   18.6082 C   0  0  0  0  0  0
  -27.6615  -13.2006   19.8788 C   0  0  2  0  0  0
  -28.7043  -12.9601   20.9956 C   0  0  0  0  0  0
  -25.2551  -13.8105   20.5711 C   0  0  0  0  0  0
  -24.1806  -13.0382   20.9185 C   0  0  0  0  0  0
  -24.6379  -11.6868   20.8720 C   0  0  0  0  0  0
  -23.9040  -10.4267   21.0394 C   0  0  0  0  0  0
  -24.3609   -9.4195   21.9176 C   0  0  0  0  0  0
  -23.6289   -8.2226   22.0749 C   0  0  0  0  0  0
  -22.4261   -8.0273   21.3544 C   0  0  0  0  0  0
  -21.9891   -9.0239   20.4640 C   0  0  0  0  0  0
  -22.7212  -10.2115   20.3049 C   0  0  0  0  0  0
  -21.6850   -6.0733   22.5280 C   0  0  0  0  0  0
  -21.4010   -6.5637   23.8212 C   0  0  0  0  0  0
  -21.3660   -5.6794   24.9173 C   0  0  0  0  0  0
  -21.6041   -4.3056   24.7226 C   0  0  0  0  0  0
  -21.8820   -3.8143   23.4347 C   0  0  0  0  0  0
  -21.9194   -4.6960   22.3401 C   0  0  0  0  0  0
  -22.7832  -13.5198   21.1843 C   0  0  0  0  0  0
  -22.1662   -4.2151   21.0977 F   0  0  0  0  0  0
  -21.5632   -3.4538   25.7735 F   0  0  0  0  0  0
  -30.0396  -13.2523   20.4464 N   0  0  0  0  0  0
  -26.3013  -12.9302   20.3386 N   0  0  0  0  0  0
  -25.9307  -11.6451   20.5755 N   0  0  0  0  0  0
  -22.0483  -12.8208   22.0418 N   0  0  0  0  0  0
  -25.4142  -15.1833   20.4203 N   0  0  0  0  0  0
  -31.8362  -14.6129   20.1021 O   0  0  0  0  0  0
  -21.6634   -6.8870   21.4237 O   0  0  0  0  0  0
  -22.3526  -14.5516   20.6706 O   0  0  0  0  0  0
  -24.6126  -31.8673   23.2133 C   0  0  0  0  0  0
  -25.9020  -32.4823   23.8427 C   0  0  1  0  0  0
  -27.2370  -27.4549   20.0990 C   0  0  0  0  0  0
  -25.5880  -33.8628   24.2331 N   0  0  0  0  0  0
  -23.4012  -30.4932   21.5498 C   0  0  2  0  0  0
  -24.8512  -28.9609   20.1178 C   0  0  0  0  0  0
  -22.7406  -29.4652   22.4968 C   0  0  0  0  0  0
  -18.0253  -28.1402   22.8476 C   0  0  0  0  0  0
  -24.1489  -36.7319   23.2643 C   0  0  0  0  0  0
  -25.9293  -30.8391   21.3694 C   0  0  0  0  0  0
  -26.0075  -29.4734   20.7221 C   0  0  0  0  0  0
  -27.2051  -28.7250   20.7152 C   0  0  0  0  0  0
  -26.0715  -26.9534   19.4887 C   0  0  0  0  0  0
  -24.8753  -27.6961   19.5023 C   0  0  0  0  0  0
  -23.6145  -29.8291   20.1631 C   0  0  0  0  0  0
  -25.4099  -36.3113   24.0348 C   0  0  1  0  0  0
  -20.5848  -28.3681   23.1325 C   0  0  2  0  0  0
  -20.6758  -26.9408   22.5428 C   0  0  0  0  0  0
  -19.5746  -26.6385   21.5219 C   0  0  0  0  0  0
  -18.1906  -26.7943   22.1606 C   0  0  0  0  0  0
  -19.1512  -28.8848   23.2905 C   0  0  0  0  0  0
  -18.9453  -30.1449   23.8921 C   0  0  0  0  0  0
  -17.6468  -30.6599   24.0570 C   0  0  0  0  0  0
  -25.9029  -34.9474   23.5138 C   0  0  0  0  0  0
  -16.5356  -29.9118   23.6336 C   0  0  0  0  0  0
  -16.7250  -28.6548   23.0326 C   0  0  0  0  0  0
  -26.4460  -31.6602   25.0744 C   0  0  0  0  0  0
  -25.3734  -31.3760   26.1518 C   0  0  0  0  0  0
  -27.0254  -30.3033   24.6118 C   0  0  0  0  0  0
  -27.6068  -32.4306   25.7466 C   0  0  0  0  0  0
  -27.5577  -37.1804   24.8456 C   0  0  0  0  0  0
  -21.4117  -29.3057   22.3739 N   0  0  0  0  0  0
  -26.4280  -37.3793   23.9420 N   0  0  0  0  0  0
  -24.6642  -31.0808   22.1029 N   0  0  0  0  0  0
  -23.4200  -28.8153   23.2961 O   0  0  0  0  0  0
  -28.3831  -26.7008   20.0206 O   0  0  0  0  0  0
  -26.5594  -34.8926   22.4700 O   0  0  0  0  0  0
  -23.5326  -32.1406   23.7550 O   0  0  0  0  0  0
  -29.6340  -19.9955   22.3696 C   0  0  0  0  0  0
  -30.6132  -18.9858   22.4850 C   0  0  0  0  0  0
  -31.9658  -19.3769   22.6797 C   0  0  0  0  0  0
  -30.0096  -21.3471   22.4546 C   0  0  0  0  0  0
  -32.2461  -20.7659   22.7582 C   0  0  0  0  0  0
  -33.6492  -21.3192   22.9384 C   0  0  0  0  0  0
  -34.6650  -16.5937   25.9527 C   0  0  0  0  0  0
  -33.6553  -15.3743   23.9950 C   0  0  0  0  0  0
  -29.9548  -17.0300   18.5050 C   0  0  0  0  0  0
  -28.0324  -17.4738   20.0739 C   0  0  0  0  0  0
  -30.1829  -17.5174   22.4255 C   0  0  0  0  0  0
  -33.0810  -18.3343   22.8277 C   0  0  0  0  0  0
  -28.9603  -22.4612   22.4229 C   0  0  0  0  0  0
  -33.2784  -17.8914   24.2896 C   0  0  0  0  0  0
  -29.4143  -23.7539   21.7059 C   0  0  0  0  0  0
  -28.3525  -24.8788   21.6747 C   0  0  0  0  0  0
  -28.9265  -26.2548   21.2605 C   0  0  0  0  0  0
  -34.2517  -16.7084   24.4777 C   0  0  0  0  0  0
  -29.5551  -17.5571   19.8949 C   0  0  0  0  0  0
  -30.3408  -16.8550   21.0350 C   0  0  2  0  0  0
  -31.2890  -21.7144   22.6694 N   0  0  0  0  0  0
  -30.0022  -15.4259   21.1124 N   0  0  0  0  0  0
  -31.4616  -12.3673   19.1090 H   0  0  0  0  0  0
  -30.2970  -11.2654   19.7882 H   0  0  0  0  0  0
  -29.7216  -11.8124   17.3993 H   0  0  0  0  0  0
  -29.6640  -13.5122   17.7882 H   0  0  0  0  0  0
  -27.8031  -11.3224   18.7794 H   0  0  0  0  0  0
  -27.3632  -12.6840   17.7833 H   0  0  0  0  0  0
  -27.7101  -14.2493   19.5934 H   0  0  0  0  0  0
  -28.6697  -11.9215   21.3273 H   0  0  0  0  0  0
  -28.4752  -13.5527   21.8822 H   0  0  0  0  0  0
  -25.2757   -9.5679   22.4744 H   0  0  0  0  0  0
  -24.0004   -7.4618   22.7473 H   0  0  0  0  0  0
  -21.0821   -8.8751   19.8959 H   0  0  0  0  0  0
  -22.3669  -10.9656   19.6167 H   0  0  0  0  0  0
  -21.2000   -7.6144   23.9716 H   0  0  0  0  0  0
  -21.1481   -6.0520   25.9077 H   0  0  0  0  0  0
  -22.0598   -2.7604   23.2843 H   0  0  0  0  0  0
  -22.4084  -11.9864   22.4805 H   0  0  0  0  0  0
  -21.1106  -13.1243   22.2632 H   0  0  0  0  0  0
  -24.6436  -15.8282   20.5566 H   0  0  0  0  0  0
  -26.2664  -15.6392   20.1238 H   0  0  0  0  0  0
  -26.7093  -32.5539   23.1199 H   0  0  0  0  0  0
  -25.0045  -33.9792   25.0489 H   0  0  0  0  0  0
  -22.6878  -31.3076   21.4092 H   0  0  0  0  0  0
  -23.3763  -35.9643   23.3288 H   0  0  0  0  0  0
  -24.3588  -36.8942   22.2059 H   0  0  0  0  0  0
  -23.7233  -37.6518   23.6666 H   0  0  0  0  0  0
  -26.0395  -31.6054   20.6007 H   0  0  0  0  0  0
  -26.8187  -30.8925   21.9868 H   0  0  0  0  0  0
  -28.1028  -29.1245   21.1676 H   0  0  0  0  0  0
  -26.0932  -25.9858   19.0083 H   0  0  0  0  0  0
  -23.9878  -27.2941   19.0324 H   0  0  0  0  0  0
  -23.7304  -30.6078   19.4075 H   0  0  0  0  0  0
  -22.7407  -29.2533   19.8559 H   0  0  0  0  0  0
  -25.1272  -36.1992   25.0843 H   0  0  0  0  0  0
  -20.9942  -28.3243   24.1448 H   0  0  0  0  0  0
  -20.5660  -26.2266   23.3599 H   0  0  0  0  0  0
  -21.6619  -26.7431   22.1209 H   0  0  0  0  0  0
  -19.6910  -25.6305   21.1218 H   0  0  0  0  0  0
  -19.6716  -27.3220   20.6775 H   0  0  0  0  0  0
  -17.4172  -26.6713   21.3999 H   0  0  0  0  0  0
  -18.0296  -26.0066   22.8981 H   0  0  0  0  0  0
  -19.7950  -30.7245   24.2299 H   0  0  0  0  0  0
  -17.5044  -31.6276   24.5187 H   0  0  0  0  0  0
  -15.5375  -30.3048   23.7665 H   0  0  0  0  0  0
  -15.8627  -28.0906   22.7030 H   0  0  0  0  0  0
  -24.5888  -30.7091   25.7902 H   0  0  0  0  0  0
  -24.8940  -32.2942   26.4944 H   0  0  0  0  0  0
  -25.8081  -30.8959   27.0296 H   0  0  0  0  0  0
  -26.2780  -29.6830   24.1157 H   0  0  0  0  0  0
  -27.3993  -29.7247   25.4575 H   0  0  0  0  0  0
  -27.8636  -30.4327   23.9270 H   0  0  0  0  0  0
  -27.2739  -33.3638   26.2032 H   0  0  0  0  0  0
  -28.3875  -32.6802   25.0260 H   0  0  0  0  0  0
  -28.0733  -31.8423   26.5377 H   0  0  0  0  0  0
  -28.2593  -38.0097   24.7476 H   0  0  0  0  0  0
  -28.1064  -36.2623   24.6293 H   0  0  0  0  0  0
  -27.2296  -37.1477   25.8859 H   0  0  0  0  0  0
  -20.9278  -29.8818   21.6990 H   0  0  0  0  0  0
  -26.0178  -38.2874   24.1448 H   0  0  0  0  0  0
  -28.5933  -19.7321   22.2366 H   0  0  0  0  0  0
  -34.1080  -21.4976   21.9653 H   0  0  0  0  0  0
  -34.2924  -20.6518   23.5101 H   0  0  0  0  0  0
  -33.6238  -22.2689   23.4743 H   0  0  0  0  0  0
  -35.3134  -15.7326   26.1210 H   0  0  0  0  0  0
  -33.7952  -16.4851   26.6031 H   0  0  0  0  0  0
  -35.2098  -17.4805   26.2770 H   0  0  0  0  0  0
  -34.3370  -14.5455   24.1938 H   0  0  0  0  0  0
  -33.4643  -15.3756   22.9226 H   0  0  0  0  0  0
  -32.7147  -15.1531   24.5009 H   0  0  0  0  0  0
  -29.5171  -17.6387   17.7135 H   0  0  0  0  0  0
  -29.6286  -16.0021   18.3465 H   0  0  0  0  0  0
  -31.0361  -17.0583   18.3690 H   0  0  0  0  0  0
  -27.5073  -17.9923   19.2710 H   0  0  0  0  0  0
  -27.7034  -17.9191   21.0120 H   0  0  0  0  0  0
  -27.7020  -16.4410   20.0663 H   0  0  0  0  0  0
  -29.1494  -17.4394   22.7625 H   0  0  0  0  0  0
  -30.7490  -16.9496   23.1616 H   0  0  0  0  0  0
  -34.0178  -18.7143   22.4216 H   0  0  0  0  0  0
  -32.8707  -17.4701   22.2062 H   0  0  0  0  0  0
  -28.6739  -22.6860   23.4510 H   0  0  0  0  0  0
  -28.0628  -22.0811   21.9327 H   0  0  0  0  0  0
  -32.3186  -17.6251   24.7352 H   0  0  0  0  0  0
  -33.6355  -18.7486   24.8593 H   0  0  0  0  0  0
  -29.7258  -23.5149   20.6903 H   0  0  0  0  0  0
  -30.2982  -24.1311   22.2229 H   0  0  0  0  0  0
  -27.9171  -24.9784   22.6699 H   0  0  0  0  0  0
  -27.5240  -24.5996   21.0202 H   0  0  0  0  0  0
  -30.0075  -26.1885   21.1365 H   0  0  0  0  0  0
  -28.7674  -26.9806   22.0585 H   0  0  0  0  0  0
  -35.1563  -16.9017   23.8978 H   0  0  0  0  0  0
  -29.8279  -18.6126   19.9041 H   0  0  0  0  0  0
  -31.3917  -16.9487   20.7659 H   0  0  0  0  0  0
  -29.0916  -15.1839   21.4720 H   0  0  0  0  0  0
  1 25  1  0  0  0
  1 30  2  0  0  0
  1 92  1  0  0  0
  2  3  1  0  0  0
  2 25  1  0  0  0
  2 93  1  0  0  0
  2 94  1  0  0  0
  3  4  1  0  0  0
  3 95  1  0  0  0
  3 96  1  0  0  0
  4  5  1  0  0  0
  4 97  1  0  0  0
  4 98  1  0  0  0
  5  6  1  0  0  0
  5 26  1  0  0  0
  5 99  1  0  0  0
  6 25  1  0  0  0
  6100  1  0  0  0
  6101  1  0  0  0
  7  8  2  0  0  0
  7 26  1  0  0  0
  7 29  1  0  0  0
  8  9  1  0  0  0
  8 22  1  0  0  0
  9 10  1  0  0  0
  9 27  2  0  0  0
 10 11  2  0  0  0
 10 15  1  0  0  0
 11 12  1  0  0  0
 11102  1  0  0  0
 12 13  2  0  0  0
 12103  1  0  0  0
 13 14  1  0  0  0
 13 31  1  0  0  0
 14 15  2  0  0  0
 14104  1  0  0  0
 15105  1  0  0  0
 16 17  2  0  0  0
 16 21  1  0  0  0
 16 31  1  0  0  0
 17 18  1  0  0  0
 17106  1  0  0  0
 18 19  2  0  0  0
 18107  1  0  0  0
 19 20  1  0  0  0
 19 24  1  0  0  0
 20 21  2  0  0  0
 20108  1  0  0  0
 21 23  1  0  0  0
 22 28  1  0  0  0
 22 32  2  0  0  0
 26 27  1  0  0  0
 28109  1  0  0  0
 28110  1  0  0  0
 29111  1  0  0  0
 29112  1  0  0  0
 33 34  1  0  0  0
 33 66  1  0  0  0
 33 70  2  0  0  0
 34 36  1  0  0  0
 34 59  1  0  0  0
 34113  1  0  0  0
 35 44  2  0  0  0
 35 45  1  0  0  0
 35 68  1  0  0  0
 36 56  1  0  0  0
 36114  1  0  0  0
 37 39  1  0  0  0
 37 47  1  0  0  0
 37 66  1  0  0  0
 37115  1  0  0  0
 38 43  2  0  0  0
 38 46  1  0  0  0
 38 47  1  0  0  0
 39 64  1  0  0  0
 39 67  2  0  0  0
 40 52  1  0  0  0
 40 53  2  0  0  0
 40 58  1  0  0  0
 41116  1  0  0  0
 41117  1  0  0  0
 41118  1  0  0  0
 41 48  1  0  0  0
 42 43  1  0  0  0
 42 66  1  0  0  0
 42119  1  0  0  0
 42120  1  0  0  0
 43 44  1  0  0  0
 44121  1  0  0  0
 45 46  2  0  0  0
 45122  1  0  0  0
 46123  1  0  0  0
 47124  1  0  0  0
 47125  1  0  0  0
 48 56  1  0  0  0
 48 65  1  0  0  0
 48126  1  0  0  0
 49 50  1  0  0  0
 49 53  1  0  0  0
 49 64  1  0  0  0
 49127  1  0  0  0
 50 51  1  0  0  0
 50128  1  0  0  0
 50129  1  0  0  0
 51 52  1  0  0  0
 51130  1  0  0  0
 51131  1  0  0  0
 52132  1  0  0  0
 52133  1  0  0  0
 53 54  1  0  0  0
 54 55  2  0  0  0
 54134  1  0  0  0
 55 57  1  0  0  0
 55135  1  0  0  0
 56 69  2  0  0  0
 57 58  2  0  0  0
 57136  1  0  0  0
 58137  1  0  0  0
 59 60  1  0  0  0
 59 61  1  0  0  0
 59 62  1  0  0  0
 60138  1  0  0  0
 60139  1  0  0  0
 60140  1  0  0  0
 61141  1  0  0  0
 61142  1  0  0  0
 61143  1  0  0  0
 62144  1  0  0  0
 62145  1  0  0  0
 62146  1  0  0  0
 63 65  1  0  0  0
 63147  1  0  0  0
 63148  1  0  0  0
 63149  1  0  0  0
 64150  1  0  0  0
 65151  1  0  0  0
 68 87  1  0  0  0
 71 72  2  0  0  0
 71 74  1  0  0  0
 71152  1  0  0  0
 72 73  1  0  0  0
 72 81  1  0  0  0
 73 75  2  0  0  0
 73 82  1  0  0  0
 74 83  1  0  0  0
 74 91  2  0  0  0
 75 76  1  0  0  0
 75 91  1  0  0  0
 76153  1  0  0  0
 76154  1  0  0  0
 76155  1  0  0  0
 77156  1  0  0  0
 77157  1  0  0  0
 77158  1  0  0  0
 77 88  1  0  0  0
 78 88  1  0  0  0
 78159  1  0  0  0
 78160  1  0  0  0
 78161  1  0  0  0
 79162  1  0  0  0
 79163  1  0  0  0
 79164  1  0  0  0
 79 89  1  0  0  0
 80 89  1  0  0  0
 80165  1  0  0  0
 80166  1  0  0  0
 80167  1  0  0  0
 81168  1  0  0  0
 81169  1  0  0  0
 81 90  1  0  0  0
 82 84  1  0  0  0
 82170  1  0  0  0
 82171  1  0  0  0
 83 85  1  0  0  0
 83172  1  0  0  0
 83173  1  0  0  0
 84 88  1  0  0  0
 84174  1  0  0  0
 84175  1  0  0  0
 85 86  1  0  0  0
 85176  1  0  0  0
 85177  1  0  0  0
 86 87  1  0  0  0
 86178  1  0  0  0
 86179  1  0  0  0
 87180  1  0  0  0
 87181  1  0  0  0
 88182  1  0  0  0
 89 90  1  0  0  0
 89183  1  0  0  0
 90 92  1  0  0  0
 90184  1  0  0  0
 92185  1  0  0  0
M  ISO  4   1 100  68 101  87 101  92 100
M  END
> <chiral flag>
0

> <version>
0

> <s_m_source_file>
/data/baiqing/PycharmProjects/Reinvent-master-3.2/result/LINK_invent/BTK/process_docking_weight1_custom_sum_contain_oxygen_bond_distance_aromatic_linkinvent_7_9_3/rearranged_h_0093.sdf

> <i_m_source_file_index>
11

> <r_mmod_Potential_Energy-OPLS-2005>
-192.51203918457

> <r_mmod_Stretch_Energy-OPLS-2005>
36.5805473327637

> <r_mmod_Bend_Energy-OPLS-2005>
99.7456436157227

> <r_mmod_Torsional_Energy-OPLS-2005>
245.584671020508

> <r_mmod_Improper_Torsional_Energy-OPLS-2005>
4.39498138427734

> <r_mmod_Van_der_Waal_Energy-OPLS-2005>
147.009704589844

> <r_mmod_Electrostatic_Energy-OPLS-2005>
-533.915405273438

> <r_mmod_Solvation_Energy-OPLS-2005>
-201.001556396484

> <b_mmod_Minimization_Converged-OPLS-2005>
0

> <r_mmod_RMS_Derivative-OPLS-2005>
2.78996825218201

$$$$
11
                    3D
 Structure written by MMmdl.
172180  0  0  1  0            999 V2000
  -30.7164  -14.4344   20.5902 C   0  0  0  0  0  0
  -30.4139  -12.2937   19.4104 C   0  0  0  0  0  0
  -29.4828  -12.5034   18.1996 C   0  0  0  0  0  0
  -28.0037  -12.3714   18.6135 C   0  0  0  0  0  0
  -27.6580  -13.2068   19.8756 C   0  0  2  0  0  0
  -28.7002  -12.9716   20.9921 C   0  0  0  0  0  0
  -25.2575  -13.8162   20.5701 C   0  0  0  0  0  0
  -24.1820  -13.0436   20.9204 C   0  0  0  0  0  0
  -24.6367  -11.6910   20.8756 C   0  0  0  0  0  0
  -23.9036  -10.4289   21.0411 C   0  0  0  0  0  0
  -24.3589   -9.4207   21.9187 C   0  0  0  0  0  0
  -23.6267   -8.2243   22.0763 C   0  0  0  0  0  0
  -22.4258   -8.0273   21.3550 C   0  0  0  0  0  0
  -21.9887   -9.0247   20.4654 C   0  0  0  0  0  0
  -22.7212  -10.2125   20.3064 C   0  0  0  0  0  0
  -21.6846   -6.0730   22.5274 C   0  0  0  0  0  0
  -21.4009   -6.5633   23.8205 C   0  0  0  0  0  0
  -21.3665   -5.6792   24.9167 C   0  0  0  0  0  0
  -21.6055   -4.3057   24.7228 C   0  0  0  0  0  0
  -21.8815   -3.8144   23.4347 C   0  0  0  0  0  0
  -21.9181   -4.6954   22.3398 C   0  0  0  0  0  0
  -22.7857  -13.5255   21.1850 C   0  0  0  0  0  0
  -22.1650   -4.2134   21.0979 F   0  0  0  0  0  0
  -21.5627   -3.4541   25.7743 F   0  0  0  0  0  0
  -30.0324  -13.2701   20.4409 N   0  0  0  0  0  0
  -26.2994  -12.9329   20.3384 N   0  0  0  0  0  0
  -25.9292  -11.6487   20.5787 N   0  0  0  0  0  0
  -22.0489  -12.8275   22.0414 N   0  0  0  0  0  0
  -25.4314  -15.1862   20.4106 N   0  0  0  0  0  0
  -31.8287  -14.6268   20.0885 O   0  0  0  0  0  0
  -21.6628   -6.8867   21.4239 O   0  0  0  0  0  0
  -22.3547  -14.5542   20.6657 O   0  0  0  0  0  0
  -24.6147  -31.8701   23.2146 C   0  0  0  0  0  0
  -25.9052  -32.4828   23.8418 C   0  0  1  0  0  0
  -27.2250  -27.4418   20.0722 C   0  0  0  0  0  0
  -25.5929  -33.8628   24.2349 N   0  0  0  0  0  0
  -23.4002  -30.4954   21.5561 C   0  0  2  0  0  0
  -24.8397  -28.9644   20.1168 C   0  0  0  0  0  0
  -22.7383  -29.4677   22.5024 C   0  0  0  0  0  0
  -18.0267  -28.1373   22.8484 C   0  0  0  0  0  0
  -24.1486  -36.7321   23.2636 C   0  0  0  0  0  0
  -25.9289  -30.8321   21.3685 C   0  0  0  0  0  0
  -26.0000  -29.4660   20.7173 C   0  0  0  0  0  0
  -27.1910  -28.7069   20.7021 C   0  0  0  0  0  0
  -26.0400  -26.9547   19.4699 C   0  0  0  0  0  0
  -24.8528  -27.7053   19.4972 C   0  0  0  0  0  0
  -23.6054  -29.8338   20.1685 C   0  0  0  0  0  0
  -25.4108  -36.3122   24.0344 C   0  0  1  0  0  0
  -20.5852  -28.3660   23.1323 C   0  0  2  0  0  0
  -20.6773  -26.9395   22.5427 C   0  0  0  0  0  0
  -19.5753  -26.6349   21.5224 C   0  0  0  0  0  0
  -18.1922  -26.7917   22.1614 C   0  0  0  0  0  0
  -19.1515  -28.8830   23.2893 C   0  0  0  0  0  0
  -18.9440  -30.1439   23.8897 C   0  0  0  0  0  0
  -17.6452  -30.6586   24.0553 C   0  0  0  0  0  0
  -25.9036  -34.9480   23.5138 C   0  0  0  0  0  0
  -16.5346  -29.9091   23.6314 C   0  0  0  0  0  0
  -16.7263  -28.6510   23.0334 C   0  0  0  0  0  0
  -26.4482  -31.6599   25.0736 C   0  0  0  0  0  0
  -25.3759  -31.3691   26.1490 C   0  0  0  0  0  0
  -27.0307  -30.3048   24.6102 C   0  0  0  0  0  0
  -27.6070  -32.4305   25.7494 C   0  0  0  0  0  0
  -27.5579  -37.1818   24.8466 C   0  0  0  0  0  0
  -21.4114  -29.3036   22.3739 N   0  0  0  0  0  0
  -26.4291  -37.3802   23.9414 N   0  0  0  0  0  0
  -24.6667  -31.0800   22.1053 N   0  0  0  0  0  0
  -23.4161  -28.8204   23.3049 O   0  0  0  0  0  0
  -28.4152  -26.7406   20.0680 O   0  0  0  0  0  0
  -26.5578  -34.8923   22.4681 O   0  0  0  0  0  0
  -23.5340  -32.1465   23.7542 O   0  0  0  0  0  0
  -28.1358  -17.7637   21.7565 C   0  0  0  0  0  0
  -29.6770  -19.1686   21.0068 C   0  0  0  0  0  0
  -29.4979  -17.8632   21.3623 C   0  0  0  0  0  0
  -27.5239  -18.9935   21.6705 C   0  0  0  0  0  0
  -27.2696  -23.2011   17.6778 C   0  0  0  0  0  0
  -25.4945  -18.2465   22.9641 C   0  0  0  0  0  0
  -25.2076  -19.2430   20.7194 C   0  0  0  0  0  0
  -25.8499  -20.6683   22.6921 C   0  0  0  0  0  0
  -30.5670  -16.7889   21.3505 C   0  0  0  0  0  0
  -27.6501  -21.7250   19.6673 C   0  0  0  0  0  0
  -27.9977  -24.2872   19.8783 C   0  0  0  0  0  0
  -28.4505  -21.3278   20.9255 C   0  0  0  0  0  0
  -28.5448  -25.5857   19.2318 C   0  0  0  0  0  0
  -28.0964  -23.0329   18.9676 C   0  0  2  0  0  0
  -26.0655  -19.3082   21.9962 C   0  0  0  0  0  0
  -28.5011  -19.8826   21.1861 N   0  0  0  0  0  0
  -30.0634  -15.4196   21.2246 N   0  0  0  0  0  0
  -31.4576  -12.3901   19.1068 H   0  0  0  0  0  0
  -30.3159  -11.2798   19.8005 H   0  0  0  0  0  0
  -29.7147  -11.7816   17.4156 H   0  0  0  0  0  0
  -29.6574  -13.4902   17.7677 H   0  0  0  0  0  0
  -27.8029  -11.3158   18.8021 H   0  0  0  0  0  0
  -27.3540  -12.6558   17.7853 H   0  0  0  0  0  0
  -27.7054  -14.2571   19.5864 H   0  0  0  0  0  0
  -28.6691  -11.9307   21.3169 H   0  0  0  0  0  0
  -28.4670  -13.5574   21.8820 H   0  0  0  0  0  0
  -25.2735   -9.5677   22.4758 H   0  0  0  0  0  0
  -23.9962   -7.4647   22.7501 H   0  0  0  0  0  0
  -21.0815   -8.8774   19.8971 H   0  0  0  0  0  0
  -22.3678  -10.9661   19.6170 H   0  0  0  0  0  0
  -21.2005   -7.6143   23.9695 H   0  0  0  0  0  0
  -21.1496   -6.0532   25.9068 H   0  0  0  0  0  0
  -22.0592   -2.7605   23.2854 H   0  0  0  0  0  0
  -22.4099  -11.9931   22.4799 H   0  0  0  0  0  0
  -21.1118  -13.1342   22.2610 H   0  0  0  0  0  0
  -24.6718  -15.8459   20.5294 H   0  0  0  0  0  0
  -26.2896  -15.6217   20.0975 H   0  0  0  0  0  0
  -26.7114  -32.5526   23.1171 H   0  0  0  0  0  0
  -25.0117  -33.9797   25.0520 H   0  0  0  0  0  0
  -22.6910  -31.3143   21.4210 H   0  0  0  0  0  0
  -23.3746  -35.9658   23.3308 H   0  0  0  0  0  0
  -24.3566  -36.8926   22.2048 H   0  0  0  0  0  0
  -23.7255  -37.6539   23.6630 H   0  0  0  0  0  0
  -26.0433  -31.5948   20.5968 H   0  0  0  0  0  0
  -26.8187  -30.8849   21.9848 H   0  0  0  0  0  0
  -28.0895  -29.0944   21.1627 H   0  0  0  0  0  0
  -26.0039  -26.0001   18.9673 H   0  0  0  0  0  0
  -23.9602  -27.3150   19.0287 H   0  0  0  0  0  0
  -23.7180  -30.6132   19.4145 H   0  0  0  0  0  0
  -22.7280  -29.2591   19.8674 H   0  0  0  0  0  0
  -25.1281  -36.1988   25.0841 H   0  0  0  0  0  0
  -20.9929  -28.3226   24.1451 H   0  0  0  0  0  0
  -20.5690  -26.2266   23.3623 H   0  0  0  0  0  0
  -21.6640  -26.7443   22.1208 H   0  0  0  0  0  0
  -19.6909  -25.6238   21.1301 H   0  0  0  0  0  0
  -19.6710  -27.3112   20.6722 H   0  0  0  0  0  0
  -17.4200  -26.6655   21.4019 H   0  0  0  0  0  0
  -18.0310  -26.0064   22.9008 H   0  0  0  0  0  0
  -19.7921  -30.7254   24.2264 H   0  0  0  0  0  0
  -17.5012  -31.6268   24.5154 H   0  0  0  0  0  0
  -15.5351  -30.3007   23.7626 H   0  0  0  0  0  0
  -15.8658  -28.0838   22.7050 H   0  0  0  0  0  0
  -24.5941  -30.7021   25.7839 H   0  0  0  0  0  0
  -24.8927  -32.2830   26.4950 H   0  0  0  0  0  0
  -25.8129  -30.8864   27.0244 H   0  0  0  0  0  0
  -26.2839  -29.6827   24.1156 H   0  0  0  0  0  0
  -27.4086  -29.7267   25.4548 H   0  0  0  0  0  0
  -27.8671  -30.4369   23.9238 H   0  0  0  0  0  0
  -27.2702  -33.3595   26.2102 H   0  0  0  0  0  0
  -28.3867  -32.6887   25.0315 H   0  0  0  0  0  0
  -28.0756  -31.8414   26.5391 H   0  0  0  0  0  0
  -28.2605  -38.0103   24.7504 H   0  0  0  0  0  0
  -28.1067  -36.2642   24.6300 H   0  0  0  0  0  0
  -27.2287  -37.1482   25.8862 H   0  0  0  0  0  0
  -20.9271  -29.8769   21.6972 H   0  0  0  0  0  0
  -26.0190  -38.2887   24.1407 H   0  0  0  0  0  0
  -27.6509  -16.8605   22.0971 H   0  0  0  0  0  0
  -30.5675  -19.6675   20.6469 H   0  0  0  0  0  0
  -27.6620  -23.9878   17.0352 H   0  0  0  0  0  0
  -26.2285  -23.4415   17.9005 H   0  0  0  0  0  0
  -27.2743  -22.2868   17.0826 H   0  0  0  0  0  0
  -25.4843  -17.2492   22.5244 H   0  0  0  0  0  0
  -24.4632  -18.4697   23.2400 H   0  0  0  0  0  0
  -26.0745  -18.1959   23.8868 H   0  0  0  0  0  0
  -25.2511  -18.2529   20.2650 H   0  0  0  0  0  0
  -25.5350  -19.9485   19.9624 H   0  0  0  0  0  0
  -24.1597  -19.4591   20.9333 H   0  0  0  0  0  0
  -26.5056  -20.7820   23.5563 H   0  0  0  0  0  0
  -24.8229  -20.7696   23.0470 H   0  0  0  0  0  0
  -26.0014  -21.5142   22.0282 H   0  0  0  0  0  0
  -31.1481  -16.8660   22.2699 H   0  0  0  0  0  0
  -31.2523  -17.0268   20.5348 H   0  0  0  0  0  0
  -26.5946  -21.8144   19.9137 H   0  0  0  0  0  0
  -27.7266  -20.9107   18.9437 H   0  0  0  0  0  0
  -26.9617  -24.4197   20.1874 H   0  0  0  0  0  0
  -28.5551  -24.1171   20.7996 H   0  0  0  0  0  0
  -28.1152  -21.8571   21.8158 H   0  0  0  0  0  0
  -29.4764  -21.6710   20.7899 H   0  0  0  0  0  0
  -29.6089  -25.4558   19.0348 H   0  0  0  0  0  0
  -28.1024  -25.7836   18.2559 H   0  0  0  0  0  0
  -29.1399  -22.9092   18.6728 H   0  0  0  0  0  0
  -29.1483  -15.2203   21.5968 H   0  0  0  0  0  0
  1 25  1  0  0  0
  1 30  2  0  0  0
  1 87  1  0  0  0
  2  3  1  0  0  0
  2 25  1  0  0  0
  2 88  1  0  0  0
  2 89  1  0  0  0
  3  4  1  0  0  0
  3 90  1  0  0  0
  3 91  1  0  0  0
  4  5  1  0  0  0
  4 92  1  0  0  0
  4 93  1  0  0  0
  5  6  1  0  0  0
  5 26  1  0  0  0
  5 94  1  0  0  0
  6 25  1  0  0  0
  6 95  1  0  0  0
  6 96  1  0  0  0
  7  8  2  0  0  0
  7 26  1  0  0  0
  7 29  1  0  0  0
  8  9  1  0  0  0
  8 22  1  0  0  0
  9 10  1  0  0  0
  9 27  2  0  0  0
 10 11  2  0  0  0
 10 15  1  0  0  0
 11 12  1  0  0  0
 11 97  1  0  0  0
 12 13  2  0  0  0
 12 98  1  0  0  0
 13 14  1  0  0  0
 13 31  1  0  0  0
 14 15  2  0  0  0
 14 99  1  0  0  0
 15100  1  0  0  0
 16 17  2  0  0  0
 16 21  1  0  0  0
 16 31  1  0  0  0
 17 18  1  0  0  0
 17101  1  0  0  0
 18 19  2  0  0  0
 18102  1  0  0  0
 19 20  1  0  0  0
 19 24  1  0  0  0
 20 21  2  0  0  0
 20103  1  0  0  0
 21 23  1  0  0  0
 22 28  1  0  0  0
 22 32  2  0  0  0
 26 27  1  0  0  0
 28104  1  0  0  0
 28105  1  0  0  0
 29106  1  0  0  0
 29107  1  0  0  0
 33 34  1  0  0  0
 33 66  1  0  0  0
 33 70  2  0  0  0
 34 36  1  0  0  0
 34 59  1  0  0  0
 34108  1  0  0  0
 35 44  2  0  0  0
 35 45  1  0  0  0
 35 68  1  0  0  0
 36 56  1  0  0  0
 36109  1  0  0  0
 37 39  1  0  0  0
 37 47  1  0  0  0
 37 66  1  0  0  0
 37110  1  0  0  0
 38 43  2  0  0  0
 38 46  1  0  0  0
 38 47  1  0  0  0
 39 64  1  0  0  0
 39 67  2  0  0  0
 40 52  1  0  0  0
 40 53  2  0  0  0
 40 58  1  0  0  0
 41111  1  0  0  0
 41112  1  0  0  0
 41113  1  0  0  0
 41 48  1  0  0  0
 42 43  1  0  0  0
 42 66  1  0  0  0
 42114  1  0  0  0
 42115  1  0  0  0
 43 44  1  0  0  0
 44116  1  0  0  0
 45 46  2  0  0  0
 45117  1  0  0  0
 46118  1  0  0  0
 47119  1  0  0  0
 47120  1  0  0  0
 48 56  1  0  0  0
 48 65  1  0  0  0
 48121  1  0  0  0
 49 50  1  0  0  0
 49 53  1  0  0  0
 49 64  1  0  0  0
 49122  1  0  0  0
 50 51  1  0  0  0
 50123  1  0  0  0
 50124  1  0  0  0
 51 52  1  0  0  0
 51125  1  0  0  0
 51126  1  0  0  0
 52127  1  0  0  0
 52128  1  0  0  0
 53 54  1  0  0  0
 54 55  2  0  0  0
 54129  1  0  0  0
 55 57  1  0  0  0
 55130  1  0  0  0
 56 69  2  0  0  0
 57 58  2  0  0  0
 57131  1  0  0  0
 58132  1  0  0  0
 59 60  1  0  0  0
 59 61  1  0  0  0
 59 62  1  0  0  0
 60133  1  0  0  0
 60134  1  0  0  0
 60135  1  0  0  0
 61136  1  0  0  0
 61137  1  0  0  0
 61138  1  0  0  0
 62139  1  0  0  0
 62140  1  0  0  0
 62141  1  0  0  0
 63 65  1  0  0  0
 63142  1  0  0  0
 63143  1  0  0  0
 63144  1  0  0  0
 64145  1  0  0  0
 65146  1  0  0  0
 68 83  1  0  0  0
 71 73  1  0  0  0
 71 74  2  0  0  0
 71147  1  0  0  0
 72 73  2  0  0  0
 72 86  1  0  0  0
 72148  1  0  0  0
 73 79  1  0  0  0
 74 85  1  0  0  0
 74 86  1  0  0  0
 75149  1  0  0  0
 75150  1  0  0  0
 75151  1  0  0  0
 75 84  1  0  0  0
 76152  1  0  0  0
 76153  1  0  0  0
 76154  1  0  0  0
 76 85  1  0  0  0
 77 85  1  0  0  0
 77155  1  0  0  0
 77156  1  0  0  0
 77157  1  0  0  0
 78 85  1  0  0  0
 78158  1  0  0  0
 78159  1  0  0  0
 78160  1  0  0  0
 79 87  1  0  0  0
 79161  1  0  0  0
 79162  1  0  0  0
 80 82  1  0  0  0
 80 84  1  0  0  0
 80163  1  0  0  0
 80164  1  0  0  0
 81 83  1  0  0  0
 81 84  1  0  0  0
 81165  1  0  0  0
 81166  1  0  0  0
 82 86  1  0  0  0
 82167  1  0  0  0
 82168  1  0  0  0
 83169  1  0  0  0
 83170  1  0  0  0
 84171  1  0  0  0
 87172  1  0  0  0
M  ISO  4   1 100  68 101  83 101  87 100
M  END
> <chiral flag>
0

> <version>
0

> <s_m_source_file>
/data/baiqing/PycharmProjects/Reinvent-master-3.2/result/LINK_invent/BTK/process_docking_weight1_custom_sum_contain_oxygen_bond_distance_aromatic_linkinvent_7_9_3/rearranged_h_0093.sdf

> <i_m_source_file_index>
12

> <r_mmod_Potential_Energy-OPLS-2005>
-118.340194702148

> <r_mmod_Stretch_Energy-OPLS-2005>
37.0837593078613

> <r_mmod_Bend_Energy-OPLS-2005>
121.339866638184

> <r_mmod_Torsional_Energy-OPLS-2005>
215.412078857422

> <r_mmod_Improper_Torsional_Energy-OPLS-2005>
2.74152517318726

> <r_mmod_Van_der_Waal_Energy-OPLS-2005>
136.213302612305

> <r_mmod_Electrostatic_Energy-OPLS-2005>
-451.812774658203

> <r_mmod_Solvation_Energy-OPLS-2005>
-189.931640625

> <b_mmod_Minimization_Converged-OPLS-2005>
0

> <r_mmod_RMS_Derivative-OPLS-2005>
2.04253458976746

$$$$
12
                    3D
 Structure written by MMmdl.
158167  0  0  1  0            999 V2000
  -30.6726  -14.5038   20.5015 C   0  0  0  0  0  0
  -30.4252  -12.3010   19.4418 C   0  0  0  0  0  0
  -29.5026  -12.4912   18.2182 C   0  0  0  0  0  0
  -28.0205  -12.3571   18.6238 C   0  0  0  0  0  0
  -27.6602  -13.2056   19.8731 C   0  0  2  0  0  0
  -28.7025  -13.0106   21.0011 C   0  0  0  0  0  0
  -25.2588  -13.8155   20.5669 C   0  0  0  0  0  0
  -24.1845  -13.0436   20.9182 C   0  0  0  0  0  0
  -24.6398  -11.6903   20.8734 C   0  0  0  0  0  0
  -23.9062  -10.4293   21.0400 C   0  0  0  0  0  0
  -24.3610   -9.4210   21.9182 C   0  0  0  0  0  0
  -23.6288   -8.2244   22.0750 C   0  0  0  0  0  0
  -22.4272   -8.0281   21.3541 C   0  0  0  0  0  0
  -21.9906   -9.0255   20.4646 C   0  0  0  0  0  0
  -22.7231  -10.2138   20.3054 C   0  0  0  0  0  0
  -21.6854   -6.0736   22.5279 C   0  0  0  0  0  0
  -21.4015   -6.5638   23.8212 C   0  0  0  0  0  0
  -21.3658   -5.6789   24.9172 C   0  0  0  0  0  0
  -21.6045   -4.3053   24.7223 C   0  0  0  0  0  0
  -21.8821   -3.8146   23.4343 C   0  0  0  0  0  0
  -21.9194   -4.6963   22.3401 C   0  0  0  0  0  0
  -22.7870  -13.5235   21.1845 C   0  0  0  0  0  0
  -22.1664   -4.2149   21.0979 F   0  0  0  0  0  0
  -21.5628   -3.4540   25.7737 F   0  0  0  0  0  0
  -30.0354  -13.3020   20.4481 N   0  0  0  0  0  0
  -26.3018  -12.9321   20.3345 N   0  0  0  0  0  0
  -25.9325  -11.6485   20.5762 N   0  0  0  0  0  0
  -22.0508  -12.8233   22.0401 N   0  0  0  0  0  0
  -25.4323  -15.1873   20.4065 N   0  0  0  0  0  0
  -31.8227  -14.6709   20.0893 O   0  0  0  0  0  0
  -21.6635   -6.8879   21.4243 O   0  0  0  0  0  0
  -22.3560  -14.5537   20.6683 O   0  0  0  0  0  0
  -24.6168  -31.8667   23.2095 C   0  0  0  0  0  0
  -25.9055  -32.4814   23.8390 C   0  0  1  0  0  0
  -27.2290  -27.4102   20.0997 C   0  0  0  0  0  0
  -25.5910  -33.8616   24.2317 N   0  0  0  0  0  0
  -23.4057  -30.4911   21.5501 C   0  0  2  0  0  0
  -24.8512  -28.9596   20.1101 C   0  0  0  0  0  0
  -22.7425  -29.4650   22.4976 C   0  0  0  0  0  0
  -18.0277  -28.1378   22.8490 C   0  0  0  0  0  0
  -24.1487  -36.7309   23.2642 C   0  0  0  0  0  0
  -25.9378  -30.8249   21.3673 C   0  0  0  0  0  0
  -26.0140  -29.4602   20.7089 C   0  0  0  0  0  0
  -27.2060  -28.6948   20.6977 C   0  0  0  0  0  0
  -26.0484  -26.9402   19.4779 C   0  0  0  0  0  0
  -24.8652  -27.7004   19.4893 C   0  0  0  0  0  0
  -23.6147  -29.8283   20.1633 C   0  0  0  0  0  0
  -25.4111  -36.3108   24.0338 C   0  0  1  0  0  0
  -20.5870  -28.3665   23.1316 C   0  0  2  0  0  0
  -20.6768  -26.9398   22.5422 C   0  0  0  0  0  0
  -19.5744  -26.6383   21.5218 C   0  0  0  0  0  0
  -18.1921  -26.7925   22.1626 C   0  0  0  0  0  0
  -19.1528  -28.8838   23.2899 C   0  0  0  0  0  0
  -18.9456  -30.1444   23.8904 C   0  0  0  0  0  0
  -17.6460  -30.6583   24.0565 C   0  0  0  0  0  0
  -25.9042  -34.9473   23.5124 C   0  0  0  0  0  0
  -16.5348  -29.9085   23.6332 C   0  0  0  0  0  0
  -16.7267  -28.6505   23.0345 C   0  0  0  0  0  0
  -26.4476  -31.6605   25.0728 C   0  0  0  0  0  0
  -25.3743  -31.3725   26.1481 C   0  0  0  0  0  0
  -27.0317  -30.3048   24.6121 C   0  0  0  0  0  0
  -27.6043  -32.4337   25.7491 C   0  0  0  0  0  0
  -27.5577  -37.1812   24.8468 C   0  0  0  0  0  0
  -21.4150  -29.3031   22.3718 N   0  0  0  0  0  0
  -26.4297  -37.3789   23.9403 N   0  0  0  0  0  0
  -24.6714  -31.0754   22.1005 N   0  0  0  0  0  0
  -23.4189  -28.8187   23.3021 O   0  0  0  0  0  0
  -28.3802  -26.6382   20.1436 O   0  0  0  0  0  0
  -26.5597  -34.8924   22.4681 O   0  0  0  0  0  0
  -23.5355  -32.1432   23.7479 O   0  0  0  0  0  0
  -29.4416  -19.3081   20.1371 C   0  0  0  0  0  0
  -29.7134  -20.5453   20.7687 C   0  0  0  0  0  0
  -30.5936  -20.5061   21.8654 C   0  0  0  0  0  0
  -30.0582  -18.1374   20.6522 C   0  0  0  0  0  0
  -29.1258  -21.8842   20.2887 C   0  0  0  0  0  0
  -30.9098  -21.7914   22.5970 C   0  0  0  0  0  0
  -29.6335  -22.6304   22.7396 C   0  0  0  0  0  0
  -28.9611  -22.9960   21.3856 C   0  0  1  0  0  0
  -29.9032  -16.7941   19.9299 C   0  0  0  0  0  0
  -29.3187  -24.4528   20.9250 C   0  0  0  0  0  0
  -28.1991  -25.2015   20.1559 C   0  0  0  0  0  0
  -31.1421  -19.3545   22.3319 N   0  0  0  0  0  0
  -30.8826  -18.1842   21.7302 N   0  0  0  0  0  0
  -29.8651  -15.5551   20.7359 N   0  0  0  0  0  0
  -31.4723  -12.3910   19.1463 H   0  0  0  0  0  0
  -30.3163  -11.2962   19.8524 H   0  0  0  0  0  0
  -29.7447  -11.7585   17.4463 H   0  0  0  0  0  0
  -29.6763  -13.4724   17.7733 H   0  0  0  0  0  0
  -27.8298  -11.3022   18.8241 H   0  0  0  0  0  0
  -27.3756  -12.6280   17.7867 H   0  0  0  0  0  0
  -27.6941  -14.2480   19.5569 H   0  0  0  0  0  0
  -28.6770  -11.9843   21.3714 H   0  0  0  0  0  0
  -28.4723  -13.6420   21.8611 H   0  0  0  0  0  0
  -25.2761   -9.5684   22.4749 H   0  0  0  0  0  0
  -24.0007   -7.4632   22.7456 H   0  0  0  0  0  0
  -21.0844   -8.8764   19.8947 H   0  0  0  0  0  0
  -22.3686  -10.9672   19.6156 H   0  0  0  0  0  0
  -21.2006   -7.6146   23.9714 H   0  0  0  0  0  0
  -21.1480   -6.0519   25.9074 H   0  0  0  0  0  0
  -22.0602   -2.7609   23.2841 H   0  0  0  0  0  0
  -22.4124  -11.9903   22.4808 H   0  0  0  0  0  0
  -21.1119  -13.1255   22.2588 H   0  0  0  0  0  0
  -24.6652  -15.8423   20.5109 H   0  0  0  0  0  0
  -26.2784  -15.6245   20.0653 H   0  0  0  0  0  0
  -26.7120  -32.5510   23.1144 H   0  0  0  0  0  0
  -25.0082  -33.9774   25.0479 H   0  0  0  0  0  0
  -22.6959  -31.3089   21.4116 H   0  0  0  0  0  0
  -23.3746  -35.9646   23.3329 H   0  0  0  0  0  0
  -24.3579  -36.8900   22.2051 H   0  0  0  0  0  0
  -23.7246  -37.6525   23.6640 H   0  0  0  0  0  0
  -26.0598  -31.5926   20.6018 H   0  0  0  0  0  0
  -26.8225  -30.8720   21.9911 H   0  0  0  0  0  0
  -28.1004  -29.0742   21.1725 H   0  0  0  0  0  0
  -26.0240  -25.9802   18.9825 H   0  0  0  0  0  0
  -23.9741  -27.3109   19.0166 H   0  0  0  0  0  0
  -23.7242  -30.6060   19.4058 H   0  0  0  0  0  0
  -22.7376  -29.2512   19.8650 H   0  0  0  0  0  0
  -25.1288  -36.1978   25.0832 H   0  0  0  0  0  0
  -20.9960  -28.3225   24.1435 H   0  0  0  0  0  0
  -20.5686  -26.2259   23.3604 H   0  0  0  0  0  0
  -21.6636  -26.7444   22.1201 H   0  0  0  0  0  0
  -19.6912  -25.6301   21.1230 H   0  0  0  0  0  0
  -19.6693  -27.3204   20.6759 H   0  0  0  0  0  0
  -17.4197  -26.6679   21.4020 H   0  0  0  0  0  0
  -18.0315  -26.0061   22.9016 H   0  0  0  0  0  0
  -19.7935  -30.7257   24.2269 H   0  0  0  0  0  0
  -17.5020  -31.6263   24.5165 H   0  0  0  0  0  0
  -15.5353  -30.2991   23.7656 H   0  0  0  0  0  0
  -15.8664  -28.0834   22.7051 H   0  0  0  0  0  0
  -24.5897  -30.7087   25.7829 H   0  0  0  0  0  0
  -24.8958  -32.2893   26.4945 H   0  0  0  0  0  0
  -25.8101  -30.8887   27.0233 H   0  0  0  0  0  0
  -26.2872  -29.6806   24.1163 H   0  0  0  0  0  0
  -27.4082  -29.7287   25.4582 H   0  0  0  0  0  0
  -27.8705  -30.4371   23.9278 H   0  0  0  0  0  0
  -27.2645  -33.3621   26.2097 H   0  0  0  0  0  0
  -28.3836  -32.6934   25.0313 H   0  0  0  0  0  0
  -28.0728  -31.8453   26.5391 H   0  0  0  0  0  0
  -28.2614  -38.0089   24.7495 H   0  0  0  0  0  0
  -28.1052  -36.2623   24.6324 H   0  0  0  0  0  0
  -27.2291  -37.1500   25.8870 H   0  0  0  0  0  0
  -20.9308  -29.8767   21.6954 H   0  0  0  0  0  0
  -26.0193  -38.2871   24.1392 H   0  0  0  0  0  0
  -28.7996  -19.2574   19.2688 H   0  0  0  0  0  0
  -28.1659  -21.7020   19.8034 H   0  0  0  0  0  0
  -29.7874  -22.2461   19.5012 H   0  0  0  0  0  0
  -31.6690  -22.3410   22.0393 H   0  0  0  0  0  0
  -31.3275  -21.5723   23.5801 H   0  0  0  0  0  0
  -29.8348  -23.5154   23.3434 H   0  0  0  0  0  0
  -28.9240  -22.0464   23.3283 H   0  0  0  0  0  0
  -27.8989  -23.0139   21.6331 H   0  0  0  0  0  0
  -30.6877  -16.7478   19.1727 H   0  0  0  0  0  0
  -28.9713  -16.8244   19.3645 H   0  0  0  0  0  0
  -30.2459  -24.4630   20.3510 H   0  0  0  0  0  0
  -29.5240  -25.0554   21.8102 H   0  0  0  0  0  0
  -27.2557  -24.9548   20.6449 H   0  0  0  0  0  0
  -28.1361  -24.8280   19.1331 H   0  0  0  0  0  0
  -28.9737  -15.3392   21.1532 H   0  0  0  0  0  0
  1 25  1  0  0  0
  1 30  2  0  0  0
  1 84  1  0  0  0
  2  3  1  0  0  0
  2 25  1  0  0  0
  2 85  1  0  0  0
  2 86  1  0  0  0
  3  4  1  0  0  0
  3 87  1  0  0  0
  3 88  1  0  0  0
  4  5  1  0  0  0
  4 89  1  0  0  0
  4 90  1  0  0  0
  5  6  1  0  0  0
  5 26  1  0  0  0
  5 91  1  0  0  0
  6 25  1  0  0  0
  6 92  1  0  0  0
  6 93  1  0  0  0
  7  8  2  0  0  0
  7 26  1  0  0  0
  7 29  1  0  0  0
  8  9  1  0  0  0
  8 22  1  0  0  0
  9 10  1  0  0  0
  9 27  2  0  0  0
 10 11  2  0  0  0
 10 15  1  0  0  0
 11 12  1  0  0  0
 11 94  1  0  0  0
 12 13  2  0  0  0
 12 95  1  0  0  0
 13 14  1  0  0  0
 13 31  1  0  0  0
 14 15  2  0  0  0
 14 96  1  0  0  0
 15 97  1  0  0  0
 16 17  2  0  0  0
 16 21  1  0  0  0
 16 31  1  0  0  0
 17 18  1  0  0  0
 17 98  1  0  0  0
 18 19  2  0  0  0
 18 99  1  0  0  0
 19 20  1  0  0  0
 19 24  1  0  0  0
 20 21  2  0  0  0
 20100  1  0  0  0
 21 23  1  0  0  0
 22 28  1  0  0  0
 22 32  2  0  0  0
 26 27  1  0  0  0
 28101  1  0  0  0
 28102  1  0  0  0
 29103  1  0  0  0
 29104  1  0  0  0
 33 34  1  0  0  0
 33 66  1  0  0  0
 33 70  2  0  0  0
 34 36  1  0  0  0
 34 59  1  0  0  0
 34105  1  0  0  0
 35 44  2  0  0  0
 35 45  1  0  0  0
 35 68  1  0  0  0
 36 56  1  0  0  0
 36106  1  0  0  0
 37 39  1  0  0  0
 37 47  1  0  0  0
 37 66  1  0  0  0
 37107  1  0  0  0
 38 43  2  0  0  0
 38 46  1  0  0  0
 38 47  1  0  0  0
 39 64  1  0  0  0
 39 67  2  0  0  0
 40 52  1  0  0  0
 40 53  2  0  0  0
 40 58  1  0  0  0
 41108  1  0  0  0
 41109  1  0  0  0
 41110  1  0  0  0
 41 48  1  0  0  0
 42 43  1  0  0  0
 42 66  1  0  0  0
 42111  1  0  0  0
 42112  1  0  0  0
 43 44  1  0  0  0
 44113  1  0  0  0
 45 46  2  0  0  0
 45114  1  0  0  0
 46115  1  0  0  0
 47116  1  0  0  0
 47117  1  0  0  0
 48 56  1  0  0  0
 48 65  1  0  0  0
 48118  1  0  0  0
 49 50  1  0  0  0
 49 53  1  0  0  0
 49 64  1  0  0  0
 49119  1  0  0  0
 50 51  1  0  0  0
 50120  1  0  0  0
 50121  1  0  0  0
 51 52  1  0  0  0
 51122  1  0  0  0
 51123  1  0  0  0
 52124  1  0  0  0
 52125  1  0  0  0
 53 54  1  0  0  0
 54 55  2  0  0  0
 54126  1  0  0  0
 55 57  1  0  0  0
 55127  1  0  0  0
 56 69  2  0  0  0
 57 58  2  0  0  0
 57128  1  0  0  0
 58129  1  0  0  0
 59 60  1  0  0  0
 59 61  1  0  0  0
 59 62  1  0  0  0
 60130  1  0  0  0
 60131  1  0  0  0
 60132  1  0  0  0
 61133  1  0  0  0
 61134  1  0  0  0
 61135  1  0  0  0
 62136  1  0  0  0
 62137  1  0  0  0
 62138  1  0  0  0
 63 65  1  0  0  0
 63139  1  0  0  0
 63140  1  0  0  0
 63141  1  0  0  0
 64142  1  0  0  0
 65143  1  0  0  0
 68 81  1  0  0  0
 71 72  2  0  0  0
 71 74  1  0  0  0
 71144  1  0  0  0
 72 73  1  0  0  0
 72 75  1  0  0  0
 73 76  1  0  0  0
 73 82  2  0  0  0
 74 79  1  0  0  0
 74 83  2  0  0  0
 75 78  1  0  0  0
 75145  1  0  0  0
 75146  1  0  0  0
 76 77  1  0  0  0
 76147  1  0  0  0
 76148  1  0  0  0
 77 78  1  0  0  0
 77149  1  0  0  0
 77150  1  0  0  0
 78 80  1  0  0  0
 78151  1  0  0  0
 79 84  1  0  0  0
 79152  1  0  0  0
 79153  1  0  0  0
 80 81  1  0  0  0
 80154  1  0  0  0
 80155  1  0  0  0
 81156  1  0  0  0
 81157  1  0  0  0
 82 83  1  0  0  0
 84158  1  0  0  0
M  ISO  4   1 100  68 101  81 101  84 100
M  END
> <chiral flag>
0

> <version>
0

> <s_m_source_file>
/data/baiqing/PycharmProjects/Reinvent-master-3.2/result/LINK_invent/BTK/process_docking_weight1_custom_sum_contain_oxygen_bond_distance_aromatic_linkinvent_7_9_3/rearranged_h_0093.sdf

> <i_m_source_file_index>
13

> <r_mmod_Potential_Energy-OPLS-2005>
-58.7702827453613

> <r_mmod_Stretch_Energy-OPLS-2005>
44.9207077026367

> <r_mmod_Bend_Energy-OPLS-2005>
105.008941650391

> <r_mmod_Torsional_Energy-OPLS-2005>
244.208633422852

> <r_mmod_Improper_Torsional_Energy-OPLS-2005>
10.2072849273682

> <r_mmod_Van_der_Waal_Energy-OPLS-2005>
164.180053710938

> <r_mmod_Electrostatic_Energy-OPLS-2005>
-397.217132568359

> <r_mmod_Solvation_Energy-OPLS-2005>
-249.214370727539

> <b_mmod_Minimization_Converged-OPLS-2005>
0

> <r_mmod_RMS_Derivative-OPLS-2005>
1.18501317501068

$$$$
13
                    3D
 Structure written by MMmdl.
172180  0  0  1  0            999 V2000
  -30.6469  -14.5627   20.4734 C   0  0  0  0  0  0
  -30.4267  -12.3356   19.4356 C   0  0  0  0  0  0
  -29.4985  -12.4776   18.2091 C   0  0  0  0  0  0
  -28.0165  -12.3472   18.6178 C   0  0  0  0  0  0
  -27.6536  -13.2120   19.8542 C   0  0  2  0  0  0
  -28.6975  -13.0517   20.9824 C   0  0  0  0  0  0
  -25.2574  -13.8180   20.5656 C   0  0  0  0  0  0
  -24.1847  -13.0443   20.9179 C   0  0  0  0  0  0
  -24.6405  -11.6905   20.8735 C   0  0  0  0  0  0
  -23.9076  -10.4284   21.0397 C   0  0  0  0  0  0
  -24.3625   -9.4200   21.9174 C   0  0  0  0  0  0
  -23.6291   -8.2246   22.0765 C   0  0  0  0  0  0
  -22.4276   -8.0286   21.3545 C   0  0  0  0  0  0
  -21.9910   -9.0265   20.4654 C   0  0  0  0  0  0
  -22.7255  -10.2132   20.3051 C   0  0  0  0  0  0
  -21.6860   -6.0731   22.5271 C   0  0  0  0  0  0
  -21.4030   -6.5632   23.8203 C   0  0  0  0  0  0
  -21.3642   -5.6787   24.9162 C   0  0  0  0  0  0
  -21.6033   -4.3054   24.7218 C   0  0  0  0  0  0
  -21.8826   -3.8137   23.4343 C   0  0  0  0  0  0
  -21.9199   -4.6949   22.3396 C   0  0  0  0  0  0
  -22.7858  -13.5225   21.1807 C   0  0  0  0  0  0
  -22.1664   -4.2129   21.0977 F   0  0  0  0  0  0
  -21.5607   -3.4539   25.7733 F   0  0  0  0  0  0
  -30.0184  -13.3560   20.4155 N   0  0  0  0  0  0
  -26.2991  -12.9347   20.3289 N   0  0  0  0  0  0
  -25.9329  -11.6512   20.5752 N   0  0  0  0  0  0
  -22.0503  -12.8241   22.0382 N   0  0  0  0  0  0
  -25.4301  -15.1895   20.3980 N   0  0  0  0  0  0
  -31.8157  -14.7194   20.1143 O   0  0  0  0  0  0
  -21.6651   -6.8879   21.4238 O   0  0  0  0  0  0
  -22.3523  -14.5502   20.6614 O   0  0  0  0  0  0
  -24.6193  -31.8628   23.2007 C   0  0  0  0  0  0
  -25.9068  -32.4804   23.8317 C   0  0  1  0  0  0
  -27.2300  -27.3730   20.1019 C   0  0  0  0  0  0
  -25.5916  -33.8597   24.2277 N   0  0  0  0  0  0
  -23.4118  -30.4886   21.5391 C   0  0  2  0  0  0
  -24.8542  -28.9428   20.1091 C   0  0  0  0  0  0
  -22.7448  -29.4656   22.4879 C   0  0  0  0  0  0
  -18.0307  -28.1377   22.8499 C   0  0  0  0  0  0
  -24.1502  -36.7303   23.2645 C   0  0  0  0  0  0
  -25.9454  -30.8106   21.3598 C   0  0  0  0  0  0
  -26.0178  -29.4395   20.7101 C   0  0  0  0  0  0
  -27.2038  -28.6621   20.7032 C   0  0  0  0  0  0
  -26.0392  -26.8998   19.5058 C   0  0  0  0  0  0
  -24.8631  -27.6733   19.5074 C   0  0  0  0  0  0
  -23.6235  -29.8205   20.1533 C   0  0  0  0  0  0
  -25.4127  -36.3101   24.0335 C   0  0  1  0  0  0
  -20.5894  -28.3676   23.1268 C   0  0  2  0  0  0
  -20.6790  -26.9394   22.5397 C   0  0  0  0  0  0
  -19.5764  -26.6368   21.5208 C   0  0  0  0  0  0
  -18.1945  -26.7938   22.1618 C   0  0  0  0  0  0
  -19.1559  -28.8833   23.2889 C   0  0  0  0  0  0
  -18.9488  -30.1438   23.8895 C   0  0  0  0  0  0
  -17.6493  -30.6572   24.0565 C   0  0  0  0  0  0
  -25.9043  -34.9479   23.5101 C   0  0  0  0  0  0
  -16.5374  -29.9090   23.6325 C   0  0  0  0  0  0
  -16.7295  -28.6506   23.0341 C   0  0  0  0  0  0
  -26.4471  -31.6606   25.0679 C   0  0  0  0  0  0
  -25.3758  -31.3774   26.1453 C   0  0  0  0  0  0
  -27.0289  -30.3054   24.6061 C   0  0  0  0  0  0
  -27.6025  -32.4343   25.7462 C   0  0  0  0  0  0
  -27.5589  -37.1809   24.8469 C   0  0  0  0  0  0
  -21.4163  -29.3047   22.3655 N   0  0  0  0  0  0
  -26.4294  -37.3792   23.9426 N   0  0  0  0  0  0
  -24.6782  -31.0706   22.0914 N   0  0  0  0  0  0
  -23.4198  -28.8181   23.2922 O   0  0  0  0  0  0
  -28.4007  -26.6236   20.1408 O   0  0  0  0  0  0
  -26.5598  -34.8931   22.4656 O   0  0  0  0  0  0
  -23.5380  -32.1354   23.7396 O   0  0  0  0  0  0
  -29.6539  -21.3636   22.2702 C   0  0  0  0  0  0
  -29.1234  -20.6856   21.2029 C   0  0  0  0  0  0
  -29.8095  -19.2008   22.7471 C   0  0  0  0  0  0
  -27.9003  -14.9746   24.9109 C   0  0  0  0  0  0
  -30.3353  -14.9592   24.2869 C   0  0  0  0  0  0
  -28.3952  -21.2815   20.0088 C   0  0  0  0  0  0
  -30.0827  -17.9757   23.5879 C   0  0  0  0  0  0
  -28.7963  -22.7381   19.5501 C   0  0  0  0  0  0
  -28.8861  -17.0202   23.7946 C   0  0  0  0  0  0
  -28.2607  -24.0297   20.2733 C   0  0  0  0  0  0
  -29.0176  -18.1105   20.6434 C   0  0  0  0  0  0
  -30.1833  -17.0580   20.4463 C   0  0  0  0  0  0
  -28.5327  -25.3470   19.4562 C   0  0  0  0  0  0
  -29.1613  -15.8390   24.7505 C   0  0  0  0  0  0
  -29.3325  -19.3196   21.4827 N   0  0  0  0  0  0
  -30.0536  -20.4380   23.1839 N   0  3  0  0  0  0
  -29.8443  -15.6323   20.7090 N   0  0  0  0  0  0
  -31.4699  -12.4435   19.1317 H   0  0  0  0  0  0
  -30.3456  -11.3389   19.8731 H   0  0  0  0  0  0
  -29.7449  -11.7211   17.4615 H   0  0  0  0  0  0
  -29.6641  -13.4443   17.7316 H   0  0  0  0  0  0
  -27.8228  -11.2951   18.8285 H   0  0  0  0  0  0
  -27.3713  -12.6078   17.7777 H   0  0  0  0  0  0
  -27.6761  -14.2481   19.5135 H   0  0  0  0  0  0
  -28.6905  -12.0358   21.3765 H   0  0  0  0  0  0
  -28.4602  -13.7030   21.8240 H   0  0  0  0  0  0
  -25.2777   -9.5651   22.4739 H   0  0  0  0  0  0
  -23.9977   -7.4639   22.7488 H   0  0  0  0  0  0
  -21.0841   -8.8781   19.8977 H   0  0  0  0  0  0
  -22.3720  -10.9654   19.6139 H   0  0  0  0  0  0
  -21.2056   -7.6152   23.9694 H   0  0  0  0  0  0
  -21.1441   -6.0527   25.9056 H   0  0  0  0  0  0
  -22.0625   -2.7603   23.2855 H   0  0  0  0  0  0
  -22.4140  -11.9914   22.4788 H   0  0  0  0  0  0
  -21.1093  -13.1228   22.2530 H   0  0  0  0  0  0
  -24.6533  -15.8353   20.4804 H   0  0  0  0  0  0
  -26.2549  -15.6155   19.9962 H   0  0  0  0  0  0
  -26.7130  -32.5454   23.1058 H   0  0  0  0  0  0
  -25.0184  -33.9775   25.0501 H   0  0  0  0  0  0
  -22.7041  -31.3063   21.3914 H   0  0  0  0  0  0
  -23.3771  -35.9620   23.3296 H   0  0  0  0  0  0
  -24.3638  -36.8922   22.2057 H   0  0  0  0  0  0
  -23.7215  -37.6492   23.6672 H   0  0  0  0  0  0
  -26.0645  -31.5703   20.5863 H   0  0  0  0  0  0
  -26.8355  -30.8622   21.9764 H   0  0  0  0  0  0
  -28.1000  -29.0453   21.1710 H   0  0  0  0  0  0
  -25.9890  -25.9206   19.0540 H   0  0  0  0  0  0
  -23.9644  -27.2789   19.0510 H   0  0  0  0  0  0
  -23.7485  -30.5970   19.3959 H   0  0  0  0  0  0
  -22.7424  -29.2523   19.8444 H   0  0  0  0  0  0
  -25.1289  -36.1953   25.0824 H   0  0  0  0  0  0
  -21.0011  -28.3254   24.1372 H   0  0  0  0  0  0
  -20.5697  -26.2280   23.3600 H   0  0  0  0  0  0
  -21.6657  -26.7416   22.1169 H   0  0  0  0  0  0
  -19.6935  -25.6282   21.1234 H   0  0  0  0  0  0
  -19.6727  -27.3191   20.6748 H   0  0  0  0  0  0
  -17.4218  -26.6701   21.4011 H   0  0  0  0  0  0
  -18.0317  -26.0074   22.8991 H   0  0  0  0  0  0
  -19.7973  -30.7256   24.2241 H   0  0  0  0  0  0
  -17.5060  -31.6259   24.5179 H   0  0  0  0  0  0
  -15.5381  -30.2997   23.7652 H   0  0  0  0  0  0
  -15.8701  -28.0845   22.7017 H   0  0  0  0  0  0
  -24.5887  -30.7159   25.7844 H   0  0  0  0  0  0
  -24.9006  -32.2957   26.4906 H   0  0  0  0  0  0
  -25.8110  -30.8957   27.0211 H   0  0  0  0  0  0
  -26.2810  -29.6844   24.1124 H   0  0  0  0  0  0
  -27.4090  -29.7261   25.4478 H   0  0  0  0  0  0
  -27.8637  -30.4410   23.9190 H   0  0  0  0  0  0
  -27.2625  -33.3653   26.2008 H   0  0  0  0  0  0
  -28.3851  -32.6887   25.0313 H   0  0  0  0  0  0
  -28.0669  -31.8494   26.5408 H   0  0  0  0  0  0
  -28.2571  -38.0137   24.7501 H   0  0  0  0  0  0
  -28.1090  -36.2648   24.6270 H   0  0  0  0  0  0
  -27.2305  -37.1389   25.8871 H   0  0  0  0  0  0
  -20.9304  -29.8825   21.6940 H   0  0  0  0  0  0
  -26.0177  -38.2864   24.1433 H   0  0  0  0  0  0
  -29.7311  -22.4226   22.4676 H   0  0  0  0  0  0
  -28.0829  -14.1184   25.5628 H   0  0  0  0  0  0
  -27.5607  -14.5846   23.9504 H   0  0  0  0  0  0
  -27.0789  -15.5463   25.3448 H   0  0  0  0  0  0
  -30.4940  -14.1211   24.9645 H   0  0  0  0  0  0
  -31.2723  -15.5145   24.2463 H   0  0  0  0  0  0
  -30.1508  -14.5409   23.3005 H   0  0  0  0  0  0
  -27.3234  -21.2331   20.2073 H   0  0  0  0  0  0
  -28.5631  -20.6220   19.1581 H   0  0  0  0  0  0
  -30.4092  -18.3391   24.5635 H   0  0  0  0  0  0
  -30.9445  -17.4750   23.1563 H   0  0  0  0  0  0
  -28.4222  -22.8241   18.5293 H   0  0  0  0  0  0
  -29.8805  -22.7933   19.4503 H   0  0  0  0  0  0
  -28.5577  -16.6069   22.8479 H   0  0  0  0  0  0
  -28.0409  -17.5954   24.1755 H   0  0  0  0  0  0
  -28.7350  -24.1173   21.2494 H   0  0  0  0  0  0
  -27.1907  -23.9434   20.4635 H   0  0  0  0  0  0
  -28.1136  -17.6540   21.0429 H   0  0  0  0  0  0
  -28.7193  -18.4660   19.6586 H   0  0  0  0  0  0
  -31.0679  -17.3314   21.0174 H   0  0  0  0  0  0
  -30.5129  -17.1174   19.4071 H   0  0  0  0  0  0
  -27.9810  -25.3349   18.5166 H   0  0  0  0  0  0
  -29.5771  -25.3210   19.1402 H   0  0  0  0  0  0
  -29.4153  -16.2426   25.7326 H   0  0  0  0  0  0
  -30.4551  -20.6622   24.0881 H   0  0  0  0  0  0
  -28.8898  -15.4162   20.9473 H   0  0  0  0  0  0
  1 25  1  0  0  0
  1 30  2  0  0  0
  1 87  1  0  0  0
  2  3  1  0  0  0
  2 25  1  0  0  0
  2 88  1  0  0  0
  2 89  1  0  0  0
  3  4  1  0  0  0
  3 90  1  0  0  0
  3 91  1  0  0  0
  4  5  1  0  0  0
  4 92  1  0  0  0
  4 93  1  0  0  0
  5  6  1  0  0  0
  5 26  1  0  0  0
  5 94  1  0  0  0
  6 25  1  0  0  0
  6 95  1  0  0  0
  6 96  1  0  0  0
  7  8  2  0  0  0
  7 26  1  0  0  0
  7 29  1  0  0  0
  8  9  1  0  0  0
  8 22  1  0  0  0
  9 10  1  0  0  0
  9 27  2  0  0  0
 10 11  2  0  0  0
 10 15  1  0  0  0
 11 12  1  0  0  0
 11 97  1  0  0  0
 12 13  2  0  0  0
 12 98  1  0  0  0
 13 14  1  0  0  0
 13 31  1  0  0  0
 14 15  2  0  0  0
 14 99  1  0  0  0
 15100  1  0  0  0
 16 17  2  0  0  0
 16 21  1  0  0  0
 16 31  1  0  0  0
 17 18  1  0  0  0
 17101  1  0  0  0
 18 19  2  0  0  0
 18102  1  0  0  0
 19 20  1  0  0  0
 19 24  1  0  0  0
 20 21  2  0  0  0
 20103  1  0  0  0
 21 23  1  0  0  0
 22 28  1  0  0  0
 22 32  2  0  0  0
 26 27  1  0  0  0
 28104  1  0  0  0
 28105  1  0  0  0
 29106  1  0  0  0
 29107  1  0  0  0
 33 34  1  0  0  0
 33 66  1  0  0  0
 33 70  2  0  0  0
 34 36  1  0  0  0
 34 59  1  0  0  0
 34108  1  0  0  0
 35 44  2  0  0  0
 35 45  1  0  0  0
 35 68  1  0  0  0
 36 56  1  0  0  0
 36109  1  0  0  0
 37 39  1  0  0  0
 37 47  1  0  0  0
 37 66  1  0  0  0
 37110  1  0  0  0
 38 43  2  0  0  0
 38 46  1  0  0  0
 38 47  1  0  0  0
 39 64  1  0  0  0
 39 67  2  0  0  0
 40 52  1  0  0  0
 40 53  2  0  0  0
 40 58  1  0  0  0
 41111  1  0  0  0
 41112  1  0  0  0
 41113  1  0  0  0
 41 48  1  0  0  0
 42 43  1  0  0  0
 42 66  1  0  0  0
 42114  1  0  0  0
 42115  1  0  0  0
 43 44  1  0  0  0
 44116  1  0  0  0
 45 46  2  0  0  0
 45117  1  0  0  0
 46118  1  0  0  0
 47119  1  0  0  0
 47120  1  0  0  0
 48 56  1  0  0  0
 48 65  1  0  0  0
 48121  1  0  0  0
 49 50  1  0  0  0
 49 53  1  0  0  0
 49 64  1  0  0  0
 49122  1  0  0  0
 50 51  1  0  0  0
 50123  1  0  0  0
 50124  1  0  0  0
 51 52  1  0  0  0
 51125  1  0  0  0
 51126  1  0  0  0
 52127  1  0  0  0
 52128  1  0  0  0
 53 54  1  0  0  0
 54 55  2  0  0  0
 54129  1  0  0  0
 55 57  1  0  0  0
 55130  1  0  0  0
 56 69  2  0  0  0
 57 58  2  0  0  0
 57131  1  0  0  0
 58132  1  0  0  0
 59 60  1  0  0  0
 59 61  1  0  0  0
 59 62  1  0  0  0
 60133  1  0  0  0
 60134  1  0  0  0
 60135  1  0  0  0
 61136  1  0  0  0
 61137  1  0  0  0
 61138  1  0  0  0
 62139  1  0  0  0
 62140  1  0  0  0
 62141  1  0  0  0
 63 65  1  0  0  0
 63142  1  0  0  0
 63143  1  0  0  0
 63144  1  0  0  0
 64145  1  0  0  0
 65146  1  0  0  0
 68 83  1  0  0  0
 71 72  2  0  0  0
 71 86  1  0  0  0
 71147  1  0  0  0
 72 76  1  0  0  0
 72 85  1  0  0  0
 73 77  1  0  0  0
 73 85  1  0  0  0
 73 86  2  0  0  0
 74148  1  0  0  0
 74149  1  0  0  0
 74150  1  0  0  0
 74 84  1  0  0  0
 75 84  1  0  0  0
 75151  1  0  0  0
 75152  1  0  0  0
 75153  1  0  0  0
 76 78  1  0  0  0
 76154  1  0  0  0
 76155  1  0  0  0
 77 79  1  0  0  0
 77156  1  0  0  0
 77157  1  0  0  0
 78 80  1  0  0  0
 78158  1  0  0  0
 78159  1  0  0  0
 79 84  1  0  0  0
 79160  1  0  0  0
 79161  1  0  0  0
 80 83  1  0  0  0
 80162  1  0  0  0
 80163  1  0  0  0
 81 82  1  0  0  0
 81 85  1  0  0  0
 81164  1  0  0  0
 81165  1  0  0  0
 82 87  1  0  0  0
 82166  1  0  0  0
 82167  1  0  0  0
 83168  1  0  0  0
 83169  1  0  0  0
 84170  1  0  0  0
 86171  1  0  0  0
 87172  1  0  0  0
M  CHG  1  86   1
M  ISO  4   1 100  68 101  83 101  87 100
M  END
> <chiral flag>
0

> <version>
0

> <s_m_source_file>
/data/baiqing/PycharmProjects/Reinvent-master-3.2/result/LINK_invent/BTK/process_docking_weight1_custom_sum_contain_oxygen_bond_distance_aromatic_linkinvent_7_9_3/rearranged_h_0093.sdf

> <i_m_source_file_index>
14

> <r_mmod_Potential_Energy-OPLS-2005>
-51.0113105773926

> <r_mmod_Stretch_Energy-OPLS-2005>
58.418758392334

> <r_mmod_Bend_Energy-OPLS-2005>
138.367080688477

> <r_mmod_Torsional_Energy-OPLS-2005>
237.237716674805

> <r_mmod_Improper_Torsional_Energy-OPLS-2005>
6.73287296295166

> <r_mmod_Van_der_Waal_Energy-OPLS-2005>
112.379493713379

> <r_mmod_Electrostatic_Energy-OPLS-2005>
-217.170227050781

> <r_mmod_Solvation_Energy-OPLS-2005>
-415.773681640625

> <b_mmod_Minimization_Converged-OPLS-2005>
0

> <r_mmod_RMS_Derivative-OPLS-2005>
3.27766084671021

$$$$
14
                    3D
 Structure written by MMmdl.
164172  0  0  1  0            999 V2000
  -30.5407  -14.9593   20.3940 C   0  0  0  0  0  0
  -30.4298  -12.5857   19.5053 C   0  0  0  0  0  0
  -29.5170  -12.5304   18.2591 C   0  0  0  0  0  0
  -28.0500  -12.3186   18.6743 C   0  0  0  0  0  0
  -27.6289  -13.2487   19.8423 C   0  0  2  0  0  0
  -28.6713  -13.2885   20.9805 C   0  0  0  0  0  0
  -25.2467  -13.8229   20.5722 C   0  0  0  0  0  0
  -24.1788  -13.0434   20.9220 C   0  0  0  0  0  0
  -24.6401  -11.6922   20.8742 C   0  0  0  0  0  0
  -23.9092  -10.4290   21.0386 C   0  0  0  0  0  0
  -24.3642   -9.4205   21.9165 C   0  0  0  0  0  0
  -23.6313   -8.2249   22.0755 C   0  0  0  0  0  0
  -22.4298   -8.0287   21.3537 C   0  0  0  0  0  0
  -21.9924   -9.0256   20.4645 C   0  0  0  0  0  0
  -22.7253  -10.2126   20.3046 C   0  0  0  0  0  0
  -21.6861   -6.0732   22.5273 C   0  0  0  0  0  0
  -21.4018   -6.5636   23.8201 C   0  0  0  0  0  0
  -21.3676   -5.6798   24.9170 C   0  0  0  0  0  0
  -21.6045   -4.3056   24.7228 C   0  0  0  0  0  0
  -21.8828   -3.8146   23.4350 C   0  0  0  0  0  0
  -21.9202   -4.6961   22.3402 C   0  0  0  0  0  0
  -22.7814  -13.5196   21.1871 C   0  0  0  0  0  0
  -22.1660   -4.2141   21.0976 F   0  0  0  0  0  0
  -21.5630   -3.4545   25.7739 F   0  0  0  0  0  0
  -29.9458  -13.6963   20.3789 N   0  0  0  0  0  0
  -26.2887  -12.9457   20.3272 N   0  0  0  0  0  0
  -25.9333  -11.6583   20.5761 N   0  0  0  0  0  0
  -22.0492  -12.8181   22.0441 N   0  0  0  0  0  0
  -25.4131  -15.1959   20.4115 N   0  0  0  0  0  0
  -31.7383  -15.0145   20.0989 O   0  0  0  0  0  0
  -21.6665   -6.8877   21.4234 O   0  0  0  0  0  0
  -22.3480  -14.5493   20.6712 O   0  0  0  0  0  0
  -24.6417  -31.8430   23.1875 C   0  0  0  0  0  0
  -25.9196  -32.4694   23.8248 C   0  0  1  0  0  0
  -27.2120  -27.1177   20.1489 C   0  0  0  0  0  0
  -25.5955  -33.8498   24.2175 N   0  0  0  0  0  0
  -23.4463  -30.4619   21.5333 C   0  0  2  0  0  0
  -24.8957  -28.8881   20.1058 C   0  0  0  0  0  0
  -22.7561  -29.4519   22.4844 C   0  0  0  0  0  0
  -18.0300  -28.1387   22.8463 C   0  0  0  0  0  0
  -24.1494  -36.7244   23.2645 C   0  0  0  0  0  0
  -26.0037  -30.7064   21.3920 C   0  0  0  0  0  0
  -26.0726  -29.3176   20.7316 C   0  0  0  0  0  0
  -27.2293  -28.4479   20.7389 C   0  0  0  0  0  0
  -26.0120  -26.8006   19.4720 C   0  0  0  0  0  0
  -24.8789  -27.6432   19.4608 C   0  0  0  0  0  0
  -23.6735  -29.7926   20.1521 C   0  0  0  0  0  0
  -25.4132  -36.3025   24.0308 C   0  0  1  0  0  0
  -20.5910  -28.3707   23.1230 C   0  0  2  0  0  0
  -20.6775  -26.9403   22.5409 C   0  0  0  0  0  0
  -19.5761  -26.6361   21.5207 C   0  0  0  0  0  0
  -18.1940  -26.7928   22.1607 C   0  0  0  0  0  0
  -19.1558  -28.8868   23.2840 C   0  0  0  0  0  0
  -18.9477  -30.1466   23.8867 C   0  0  0  0  0  0
  -17.6472  -30.6584   24.0558 C   0  0  0  0  0  0
  -25.9081  -34.9404   23.5052 C   0  0  0  0  0  0
  -16.5359  -29.9069   23.6345 C   0  0  0  0  0  0
  -16.7282  -28.6489   23.0352 C   0  0  0  0  0  0
  -26.4530  -31.6568   25.0693 C   0  0  0  0  0  0
  -25.3709  -31.3743   26.1382 C   0  0  0  0  0  0
  -27.0406  -30.2961   24.6291 C   0  0  0  0  0  0
  -27.6069  -32.4327   25.7477 C   0  0  0  0  0  0
  -27.5580  -37.1775   24.8461 C   0  0  0  0  0  0
  -21.4250  -29.3033   22.3607 N   0  0  0  0  0  0
  -26.4294  -37.3740   23.9401 N   0  0  0  0  0  0
  -24.7170  -31.0251   22.0933 N   0  0  0  0  0  0
  -23.4203  -28.8061   23.2994 O   0  0  0  0  0  0
  -28.2521  -26.1121   20.2397 O   0  0  0  0  0  0
  -26.5670  -34.8900   22.4631 O   0  0  0  0  0  0
  -23.5537  -32.1316   23.7094 O   0  0  0  0  0  0
  -28.9362  -22.3737   17.9788 C   0  0  0  0  0  0
  -28.7290  -19.6872   18.1162 C   0  0  0  0  0  0
  -28.9227  -21.8559   19.2982 C   0  0  0  0  0  0
  -29.0024  -20.3242   19.3545 C   0  0  0  0  0  0
  -28.7851  -21.5840   16.8366 C   0  0  0  0  0  0
  -27.0737  -23.1477   13.6783 C   0  0  0  0  0  0
  -29.6866  -21.5539   14.4606 C   0  0  0  0  0  0
  -28.8667  -23.1625   20.3113 C   0  0  0  0  0  0
  -29.2557  -19.1095   20.4485 C   0  0  0  0  0  0
  -27.2608  -22.2875   14.9393 C   0  0  0  0  0  0
  -30.0761  -17.6489   20.0491 C   0  0  0  0  0  0
  -27.9836  -24.5939   19.9464 C   0  0  0  0  0  0
  -28.7166  -22.2247   15.4509 C   0  0  1  0  0  0
  -28.6031  -20.2644   16.9135 N   0  0  0  0  0  0
  -29.7718  -16.1582   20.5093 N   0  0  0  0  0  0
  -31.4668  -12.7294   19.1977 H   0  0  0  0  0  0
  -30.4095  -11.6353   20.0408 H   0  0  0  0  0  0
  -29.8318  -11.7291   17.5891 H   0  0  0  0  0  0
  -29.6085  -13.4608   17.6953 H   0  0  0  0  0  0
  -27.9408  -11.2747   18.9712 H   0  0  0  0  0  0
  -27.3894  -12.4622   17.8189 H   0  0  0  0  0  0
  -27.5890  -14.2508   19.4139 H   0  0  0  0  0  0
  -28.7637  -12.3186   21.4729 H   0  0  0  0  0  0
  -28.3736  -14.0030   21.7493 H   0  0  0  0  0  0
  -25.2777   -9.5693   22.4748 H   0  0  0  0  0  0
  -24.0024   -7.4650   22.7474 H   0  0  0  0  0  0
  -21.0853   -8.8777   19.8955 H   0  0  0  0  0  0
  -22.3704  -10.9671   19.6170 H   0  0  0  0  0  0
  -21.1998   -7.6142   23.9696 H   0  0  0  0  0  0
  -21.1488   -6.0525   25.9066 H   0  0  0  0  0  0
  -22.0592   -2.7607   23.2855 H   0  0  0  0  0  0
  -22.4141  -11.9849   22.4807 H   0  0  0  0  0  0
  -21.1098  -13.1167   22.2659 H   0  0  0  0  0  0
  -24.6409  -15.8445   20.5222 H   0  0  0  0  0  0
  -26.2493  -15.6374   20.0525 H   0  0  0  0  0  0
  -26.7249  -32.5294   23.0959 H   0  0  0  0  0  0
  -25.0088  -33.9618   25.0314 H   0  0  0  0  0  0
  -22.7483  -31.2881   21.3800 H   0  0  0  0  0  0
  -23.3772  -35.9559   23.3294 H   0  0  0  0  0  0
  -24.3570  -36.8898   22.2061 H   0  0  0  0  0  0
  -23.7230  -37.6422   23.6704 H   0  0  0  0  0  0
  -26.1628  -31.4578   20.6178 H   0  0  0  0  0  0
  -26.8735  -30.7555   22.0351 H   0  0  0  0  0  0
  -28.1198  -28.7701   21.2591 H   0  0  0  0  0  0
  -25.9092  -25.8550   18.9609 H   0  0  0  0  0  0
  -23.9809  -27.3130   18.9554 H   0  0  0  0  0  0
  -23.8083  -30.5685   19.3973 H   0  0  0  0  0  0
  -22.7878  -29.2333   19.8450 H   0  0  0  0  0  0
  -25.1324  -36.1850   25.0800 H   0  0  0  0  0  0
  -21.0004  -28.3296   24.1350 H   0  0  0  0  0  0
  -20.5617  -26.2325   23.3631 H   0  0  0  0  0  0
  -21.6644  -26.7368   22.1235 H   0  0  0  0  0  0
  -19.6909  -25.6261   21.1258 H   0  0  0  0  0  0
  -19.6720  -27.3158   20.6730 H   0  0  0  0  0  0
  -17.4209  -26.6673   21.4012 H   0  0  0  0  0  0
  -18.0332  -26.0072   22.9005 H   0  0  0  0  0  0
  -19.7956  -30.7291   24.2210 H   0  0  0  0  0  0
  -17.5026  -31.6269   24.5151 H   0  0  0  0  0  0
  -15.5354  -30.2958   23.7695 H   0  0  0  0  0  0
  -15.8680  -28.0803   22.7073 H   0  0  0  0  0  0
  -24.5921  -30.7071   25.7677 H   0  0  0  0  0  0
  -24.8868  -32.2919   26.4730 H   0  0  0  0  0  0
  -25.7982  -30.8955   27.0202 H   0  0  0  0  0  0
  -26.3030  -29.6666   24.1306 H   0  0  0  0  0  0
  -27.4024  -29.7273   25.4867 H   0  0  0  0  0  0
  -27.8939  -30.4186   23.9616 H   0  0  0  0  0  0
  -27.2692  -33.3666   26.1977 H   0  0  0  0  0  0
  -28.3934  -32.6818   25.0341 H   0  0  0  0  0  0
  -28.0691  -31.8496   26.5453 H   0  0  0  0  0  0
  -28.2583  -38.0087   24.7520 H   0  0  0  0  0  0
  -28.1093  -36.2611   24.6285 H   0  0  0  0  0  0
  -27.2293  -37.1421   25.8864 H   0  0  0  0  0  0
  -20.9440  -29.8766   21.6816 H   0  0  0  0  0  0
  -26.0156  -38.2800   24.1431 H   0  0  0  0  0  0
  -29.0510  -23.4304   17.8032 H   0  0  0  0  0  0
  -28.5862  -18.6208   18.0639 H   0  0  0  0  0  0
  -27.5984  -22.7261   12.8208 H   0  0  0  0  0  0
  -27.4415  -24.1641   13.8285 H   0  0  0  0  0  0
  -26.0195  -23.2130   13.4064 H   0  0  0  0  0  0
  -30.6891  -21.4857   14.8836 H   0  0  0  0  0  0
  -29.7647  -22.1177   13.5317 H   0  0  0  0  0  0
  -29.3666  -20.5425   14.2124 H   0  0  0  0  0  0
  -29.9057  -23.4651   20.4432 H   0  0  0  0  0  0
  -28.5554  -22.8061   21.2936 H   0  0  0  0  0  0
  -28.2655  -18.8383   20.8159 H   0  0  0  0  0  0
  -29.7588  -19.5509   21.3099 H   0  0  0  0  0  0
  -26.8841  -21.2777   14.7669 H   0  0  0  0  0  0
  -26.6370  -22.7102   15.7295 H   0  0  0  0  0  0
  -31.1271  -17.8221   20.2862 H   0  0  0  0  0  0
  -30.1004  -17.5432   18.9667 H   0  0  0  0  0  0
  -26.9941  -24.3945   20.3597 H   0  0  0  0  0  0
  -27.7942  -24.6043   18.8766 H   0  0  0  0  0  0
  -29.0651  -23.2520   15.5623 H   0  0  0  0  0  0
  -28.8116  -15.9893   20.7710 H   0  0  0  0  0  0
  1 25  1  0  0  0
  1 30  2  0  0  0
  1 85  1  0  0  0
  2  3  1  0  0  0
  2 25  1  0  0  0
  2 86  1  0  0  0
  2 87  1  0  0  0
  3  4  1  0  0  0
  3 88  1  0  0  0
  3 89  1  0  0  0
  4  5  1  0  0  0
  4 90  1  0  0  0
  4 91  1  0  0  0
  5  6  1  0  0  0
  5 26  1  0  0  0
  5 92  1  0  0  0
  6 25  1  0  0  0
  6 93  1  0  0  0
  6 94  1  0  0  0
  7  8  2  0  0  0
  7 26  1  0  0  0
  7 29  1  0  0  0
  8  9  1  0  0  0
  8 22  1  0  0  0
  9 10  1  0  0  0
  9 27  2  0  0  0
 10 11  2  0  0  0
 10 15  1  0  0  0
 11 12  1  0  0  0
 11 95  1  0  0  0
 12 13  2  0  0  0
 12 96  1  0  0  0
 13 14  1  0  0  0
 13 31  1  0  0  0
 14 15  2  0  0  0
 14 97  1  0  0  0
 15 98  1  0  0  0
 16 17  2  0  0  0
 16 21  1  0  0  0
 16 31  1  0  0  0
 17 18  1  0  0  0
 17 99  1  0  0  0
 18 19  2  0  0  0
 18100  1  0  0  0
 19 20  1  0  0  0
 19 24  1  0  0  0
 20 21  2  0  0  0
 20101  1  0  0  0
 21 23  1  0  0  0
 22 28  1  0  0  0
 22 32  2  0  0  0
 26 27  1  0  0  0
 28102  1  0  0  0
 28103  1  0  0  0
 29104  1  0  0  0
 29105  1  0  0  0
 33 34  1  0  0  0
 33 66  1  0  0  0
 33 70  2  0  0  0
 34 36  1  0  0  0
 34 59  1  0  0  0
 34106  1  0  0  0
 35 44  2  0  0  0
 35 45  1  0  0  0
 35 68  1  0  0  0
 36 56  1  0  0  0
 36107  1  0  0  0
 37 39  1  0  0  0
 37 47  1  0  0  0
 37 66  1  0  0  0
 37108  1  0  0  0
 38 43  2  0  0  0
 38 46  1  0  0  0
 38 47  1  0  0  0
 39 64  1  0  0  0
 39 67  2  0  0  0
 40 52  1  0  0  0
 40 53  2  0  0  0
 40 58  1  0  0  0
 41109  1  0  0  0
 41110  1  0  0  0
 41111  1  0  0  0
 41 48  1  0  0  0
 42 43  1  0  0  0
 42 66  1  0  0  0
 42112  1  0  0  0
 42113  1  0  0  0
 43 44  1  0  0  0
 44114  1  0  0  0
 45 46  2  0  0  0
 45115  1  0  0  0
 46116  1  0  0  0
 47117  1  0  0  0
 47118  1  0  0  0
 48 56  1  0  0  0
 48 65  1  0  0  0
 48119  1  0  0  0
 49 50  1  0  0  0
 49 53  1  0  0  0
 49 64  1  0  0  0
 49120  1  0  0  0
 50 51  1  0  0  0
 50121  1  0  0  0
 50122  1  0  0  0
 51 52  1  0  0  0
 51123  1  0  0  0
 51124  1  0  0  0
 52125  1  0  0  0
 52126  1  0  0  0
 53 54  1  0  0  0
 54 55  2  0  0  0
 54127  1  0  0  0
 55 57  1  0  0  0
 55128  1  0  0  0
 56 69  2  0  0  0
 57 58  2  0  0  0
 57129  1  0  0  0
 58130  1  0  0  0
 59 60  1  0  0  0
 59 61  1  0  0  0
 59 62  1  0  0  0
 60131  1  0  0  0
 60132  1  0  0  0
 60133  1  0  0  0
 61134  1  0  0  0
 61135  1  0  0  0
 61136  1  0  0  0
 62137  1  0  0  0
 62138  1  0  0  0
 62139  1  0  0  0
 63 65  1  0  0  0
 63140  1  0  0  0
 63141  1  0  0  0
 63142  1  0  0  0
 64143  1  0  0  0
 65144  1  0  0  0
 68 82  1  0  0  0
 71 73  2  0  0  0
 71 75  1  0  0  0
 71145  1  0  0  0
 72 74  2  0  0  0
 72 84  1  0  0  0
 72146  1  0  0  0
 73 74  1  0  0  0
 73 78  1  0  0  0
 74 79  1  0  0  0
 75 83  1  0  0  0
 75 84  2  0  0  0
 76 80  1  0  0  0
 76147  1  0  0  0
 76148  1  0  0  0
 76149  1  0  0  0
 77150  1  0  0  0
 77151  1  0  0  0
 77152  1  0  0  0
 77 83  1  0  0  0
 78 82  1  0  0  0
 78153  1  0  0  0
 78154  1  0  0  0
 79 81  1  0  0  0
 79155  1  0  0  0
 79156  1  0  0  0
 80 83  1  0  0  0
 80157  1  0  0  0
 80158  1  0  0  0
 81 85  1  0  0  0
 81159  1  0  0  0
 81160  1  0  0  0
 82161  1  0  0  0
 82162  1  0  0  0
 83163  1  0  0  0
 85164  1  0  0  0
M  ISO  4   1 100  68 101  82 101  85 100
M  END
> <chiral flag>
0

> <version>
0

> <s_m_source_file>
/data/baiqing/PycharmProjects/Reinvent-master-3.2/result/LINK_invent/BTK/process_docking_weight1_custom_sum_contain_oxygen_bond_distance_aromatic_linkinvent_7_9_3/rearranged_h_0093.sdf

> <i_m_source_file_index>
15

> <r_mmod_Potential_Energy-OPLS-2005>
512.586120605469

> <r_mmod_Stretch_Energy-OPLS-2005>
321.617736816406

> <r_mmod_Bend_Energy-OPLS-2005>
352.747161865234

> <r_mmod_Torsional_Energy-OPLS-2005>
231.433700561523

> <r_mmod_Improper_Torsional_Energy-OPLS-2005>
5.84302759170532

> <r_mmod_Van_der_Waal_Energy-OPLS-2005>
148.177947998047

> <r_mmod_Electrostatic_Energy-OPLS-2005>
-528.527465820312

> <r_mmod_Solvation_Energy-OPLS-2005>
-224.806198120117

> <b_mmod_Minimization_Converged-OPLS-2005>
0

> <r_mmod_RMS_Derivative-OPLS-2005>
2.53982973098755

$$$$
15
                    3D
 Structure written by MMmdl.
151159  0  0  1  0            999 V2000
  -30.4048  -15.3839   20.3177 C   0  0  0  0  0  0
  -30.4509  -12.9040   19.4796 C   0  0  0  0  0  0
  -29.5358  -12.5902   18.2681 C   0  0  0  0  0  0
  -28.0915  -12.2961   18.7126 C   0  0  0  0  0  0
  -27.6100  -13.2826   19.8066 C   0  0  2  0  0  0
  -28.6593  -13.5063   20.9156 C   0  0  0  0  0  0
  -25.2388  -13.8243   20.5748 C   0  0  0  0  0  0
  -24.1747  -13.0420   20.9233 C   0  0  0  0  0  0
  -24.6420  -11.6928   20.8750 C   0  0  0  0  0  0
  -23.9106  -10.4277   21.0386 C   0  0  0  0  0  0
  -24.3641   -9.4188   21.9163 C   0  0  0  0  0  0
  -23.6311   -8.2236   22.0748 C   0  0  0  0  0  0
  -22.4297   -8.0277   21.3535 C   0  0  0  0  0  0
  -21.9936   -9.0250   20.4646 C   0  0  0  0  0  0
  -22.7268  -10.2120   20.3045 C   0  0  0  0  0  0
  -21.6864   -6.0724   22.5271 C   0  0  0  0  0  0
  -21.4030   -6.5625   23.8197 C   0  0  0  0  0  0
  -21.3669   -5.6774   24.9157 C   0  0  0  0  0  0
  -21.6047   -4.3036   24.7208 C   0  0  0  0  0  0
  -21.8814   -3.8137   23.4327 C   0  0  0  0  0  0
  -21.9181   -4.6955   22.3385 C   0  0  0  0  0  0
  -22.7743  -13.5174   21.1856 C   0  0  0  0  0  0
  -22.1646   -4.2145   21.0963 F   0  0  0  0  0  0
  -21.5637   -3.4516   25.7724 F   0  0  0  0  0  0
  -29.8549  -14.0607   20.2483 N   0  0  0  0  0  0
  -26.2856  -12.9544   20.3230 N   0  0  0  0  0  0
  -25.9379  -11.6637   20.5718 N   0  0  0  0  0  0
  -22.0386  -12.8219   22.0445 N   0  0  0  0  0  0
  -25.3942  -15.1984   20.4174 N   0  0  0  0  0  0
  -31.6433  -15.3637   20.2399 O   0  0  0  0  0  0
  -21.6646   -6.8888   21.4248 O   0  0  0  0  0  0
  -22.3417  -14.5435   20.6629 O   0  0  0  0  0  0
  -24.6710  -31.8171   23.1670 C   0  0  0  0  0  0
  -25.9354  -32.4576   23.8154 C   0  0  1  0  0  0
  -27.2261  -26.8431   20.1626 C   0  0  0  0  0  0
  -25.5998  -33.8393   24.2033 N   0  0  0  0  0  0
  -23.4888  -30.4272   21.5222 C   0  0  2  0  0  0
  -24.9410  -28.8079   20.1126 C   0  0  0  0  0  0
  -22.7729  -29.4378   22.4794 C   0  0  0  0  0  0
  -18.0331  -28.1416   22.8478 C   0  0  0  0  0  0
  -24.1497  -36.7212   23.2643 C   0  0  0  0  0  0
  -26.0658  -30.5886   21.4168 C   0  0  0  0  0  0
  -26.1297  -29.1740   20.7549 C   0  0  0  0  0  0
  -27.2614  -28.2188   20.7515 C   0  0  0  0  0  0
  -26.0002  -26.6699   19.4694 C   0  0  0  0  0  0
  -24.9104  -27.5783   19.4447 C   0  0  0  0  0  0
  -23.7329  -29.7505   20.1476 C   0  0  0  0  0  0
  -25.4152  -36.2980   24.0280 C   0  0  1  0  0  0
  -20.5955  -28.3748   23.1209 C   0  0  2  0  0  0
  -20.6834  -26.9438   22.5416 C   0  0  0  0  0  0
  -19.5800  -26.6371   21.5251 C   0  0  0  0  0  0
  -18.1970  -26.7951   22.1635 C   0  0  0  0  0  0
  -19.1592  -28.8914   23.2820 C   0  0  0  0  0  0
  -18.9498  -30.1507   23.8845 C   0  0  0  0  0  0
  -17.6481  -30.6608   24.0553 C   0  0  0  0  0  0
  -25.9128  -34.9358   23.4984 C   0  0  0  0  0  0
  -16.5372  -29.9085   23.6351 C   0  0  0  0  0  0
  -16.7308  -28.6505   23.0372 C   0  0  0  0  0  0
  -26.4553  -31.6571   25.0738 C   0  0  0  0  0  0
  -25.3608  -31.3880   26.1347 C   0  0  0  0  0  0
  -27.0450  -30.2910   24.6569 C   0  0  0  0  0  0
  -27.6022  -32.4406   25.7559 C   0  0  0  0  0  0
  -27.5580  -37.1794   24.8460 C   0  0  0  0  0  0
  -21.4391  -29.3011   22.3555 N   0  0  0  0  0  0
  -26.4305  -37.3718   23.9386 N   0  0  0  0  0  0
  -24.7639  -30.9732   22.0881 N   0  0  0  0  0  0
  -23.4258  -28.7963   23.3071 O   0  0  0  0  0  0
  -28.2457  -25.7071   20.1753 O   0  0  0  0  0  0
  -26.5738  -34.8905   22.4589 O   0  0  0  0  0  0
  -23.5758  -32.1181   23.6713 O   0  0  0  0  0  0
  -30.5658  -18.9875   21.2635 C   0  0  0  0  0  0
  -29.0411  -19.5094   19.8069 C   0  0  0  0  0  0
  -29.7205  -18.3043   20.3390 C   0  0  0  0  0  0
  -30.4012  -20.3823   21.2605 C   0  0  0  0  0  0
  -31.2080  -21.3065   22.1147 C   0  0  0  0  0  0
  -27.0687  -23.6587   19.0697 C   0  0  0  0  0  0
  -29.2782  -22.5789   19.9743 C   0  0  0  0  0  0
  -28.1085  -23.9998   20.1527 C   0  0  1  0  0  0
  -29.4367  -20.8860   20.3378 N   0  0  0  0  0  0
  -29.6205  -16.6647   20.1712 N   0  0  0  0  0  0
  -31.4471  -13.1544   19.1122 H   0  0  0  0  0  0
  -30.5848  -12.0285   20.1178 H   0  0  0  0  0  0
  -29.9378  -11.7518   17.6965 H   0  0  0  0  0  0
  -29.5338  -13.4465   17.5908 H   0  0  0  0  0  0
  -28.0607  -11.2774   19.0992 H   0  0  0  0  0  0
  -27.4220  -12.3173   17.8519 H   0  0  0  0  0  0
  -27.4992  -14.2356   19.2884 H   0  0  0  0  0  0
  -28.8769  -12.5809   21.4525 H   0  0  0  0  0  0
  -28.2896  -14.2165   21.6555 H   0  0  0  0  0  0
  -25.2790   -9.5662   22.4729 H   0  0  0  0  0  0
  -24.0004   -7.4636   22.7487 H   0  0  0  0  0  0
  -21.0856   -8.8763   19.8973 H   0  0  0  0  0  0
  -22.3716  -10.9645   19.6153 H   0  0  0  0  0  0
  -21.2036   -7.6132   23.9714 H   0  0  0  0  0  0
  -21.1510   -6.0494   25.9061 H   0  0  0  0  0  0
  -22.0594   -2.7607   23.2804 H   0  0  0  0  0  0
  -22.4036  -11.9955   22.4943 H   0  0  0  0  0  0
  -21.0980  -13.1242   22.2569 H   0  0  0  0  0  0
  -24.6143  -15.8391   20.5141 H   0  0  0  0  0  0
  -26.2413  -15.6520   20.1041 H   0  0  0  0  0  0
  -26.7440  -32.5052   23.0877 H   0  0  0  0  0  0
  -25.0103  -33.9486   25.0151 H   0  0  0  0  0  0
  -22.8006  -31.2591   21.3565 H   0  0  0  0  0  0
  -23.3782  -35.9530   23.3317 H   0  0  0  0  0  0
  -24.3545  -36.8857   22.2058 H   0  0  0  0  0  0
  -23.7254  -37.6400   23.6696 H   0  0  0  0  0  0
  -26.2639  -31.3284   20.6408 H   0  0  0  0  0  0
  -26.9183  -30.6349   22.0818 H   0  0  0  0  0  0
  -28.1612  -28.5132   21.2725 H   0  0  0  0  0  0
  -25.8205  -25.7772   18.9044 H   0  0  0  0  0  0
  -24.0256  -27.2998   18.8885 H   0  0  0  0  0  0
  -23.8988  -30.5267   19.3991 H   0  0  0  0  0  0
  -22.8362  -29.2200   19.8225 H   0  0  0  0  0  0
  -25.1370  -36.1786   25.0776 H   0  0  0  0  0  0
  -21.0012  -28.3358   24.1350 H   0  0  0  0  0  0
  -20.5798  -26.2361   23.3653 H   0  0  0  0  0  0
  -21.6690  -26.7493   22.1169 H   0  0  0  0  0  0
  -19.6970  -25.6273   21.1323 H   0  0  0  0  0  0
  -19.6745  -27.3160   20.6772 H   0  0  0  0  0  0
  -17.4264  -26.6712   21.4010 H   0  0  0  0  0  0
  -18.0332  -26.0104   22.9035 H   0  0  0  0  0  0
  -19.7961  -30.7347   24.2193 H   0  0  0  0  0  0
  -17.5024  -31.6290   24.5156 H   0  0  0  0  0  0
  -15.5366  -30.2963   23.7713 H   0  0  0  0  0  0
  -15.8713  -28.0808   22.7114 H   0  0  0  0  0  0
  -24.5789  -30.7256   25.7628 H   0  0  0  0  0  0
  -24.8794  -32.3106   26.4593 H   0  0  0  0  0  0
  -25.7746  -30.9135   27.0249 H   0  0  0  0  0  0
  -26.3124  -29.6570   24.1558 H   0  0  0  0  0  0
  -27.3898  -29.7327   25.5284 H   0  0  0  0  0  0
  -27.9124  -30.4067   24.0066 H   0  0  0  0  0  0
  -27.2570  -33.3750   26.2003 H   0  0  0  0  0  0
  -28.3912  -32.6902   25.0454 H   0  0  0  0  0  0
  -28.0609  -31.8623   26.5591 H   0  0  0  0  0  0
  -28.2605  -38.0082   24.7492 H   0  0  0  0  0  0
  -28.1073  -36.2610   24.6326 H   0  0  0  0  0  0
  -27.2285  -37.1502   25.8860 H   0  0  0  0  0  0
  -20.9669  -29.8642   21.6618 H   0  0  0  0  0  0
  -26.0152  -38.2796   24.1337 H   0  0  0  0  0  0
  -31.2713  -18.4907   21.9172 H   0  0  0  0  0  0
  -28.2929  -19.5279   19.0248 H   0  0  0  0  0  0
  -31.7028  -20.7485   22.9130 H   0  0  0  0  0  0
  -30.5895  -22.0737   22.5836 H   0  0  0  0  0  0
  -31.9971  -21.7849   21.5328 H   0  0  0  0  0  0
  -26.0483  -23.7547   19.4368 H   0  0  0  0  0  0
  -27.1599  -22.6286   18.7210 H   0  0  0  0  0  0
  -27.2010  -24.2846   18.1859 H   0  0  0  0  0  0
  -30.1908  -23.0052   20.3915 H   0  0  0  0  0  0
  -29.5169  -22.6059   18.9095 H   0  0  0  0  0  0
  -27.6417  -23.8004   21.1171 H   0  0  0  0  0  0
  -28.6915  -16.3973   19.8813 H   0  0  0  0  0  0
  1 25  1  0  0  0
  1 30  2  0  0  0
  1 80  1  0  0  0
  2  3  1  0  0  0
  2 25  1  0  0  0
  2 81  1  0  0  0
  2 82  1  0  0  0
  3  4  1  0  0  0
  3 83  1  0  0  0
  3 84  1  0  0  0
  4  5  1  0  0  0
  4 85  1  0  0  0
  4 86  1  0  0  0
  5  6  1  0  0  0
  5 26  1  0  0  0
  5 87  1  0  0  0
  6 25  1  0  0  0
  6 88  1  0  0  0
  6 89  1  0  0  0
  7  8  2  0  0  0
  7 26  1  0  0  0
  7 29  1  0  0  0
  8  9  1  0  0  0
  8 22  1  0  0  0
  9 10  1  0  0  0
  9 27  2  0  0  0
 10 11  2  0  0  0
 10 15  1  0  0  0
 11 12  1  0  0  0
 11 90  1  0  0  0
 12 13  2  0  0  0
 12 91  1  0  0  0
 13 14  1  0  0  0
 13 31  1  0  0  0
 14 15  2  0  0  0
 14 92  1  0  0  0
 15 93  1  0  0  0
 16 17  2  0  0  0
 16 21  1  0  0  0
 16 31  1  0  0  0
 17 18  1  0  0  0
 17 94  1  0  0  0
 18 19  2  0  0  0
 18 95  1  0  0  0
 19 20  1  0  0  0
 19 24  1  0  0  0
 20 21  2  0  0  0
 20 96  1  0  0  0
 21 23  1  0  0  0
 22 28  1  0  0  0
 22 32  2  0  0  0
 26 27  1  0  0  0
 28 97  1  0  0  0
 28 98  1  0  0  0
 29 99  1  0  0  0
 29100  1  0  0  0
 33 34  1  0  0  0
 33 66  1  0  0  0
 33 70  2  0  0  0
 34 36  1  0  0  0
 34 59  1  0  0  0
 34101  1  0  0  0
 35 44  2  0  0  0
 35 45  1  0  0  0
 35 68  1  0  0  0
 36 56  1  0  0  0
 36102  1  0  0  0
 37 39  1  0  0  0
 37 47  1  0  0  0
 37 66  1  0  0  0
 37103  1  0  0  0
 38 43  2  0  0  0
 38 46  1  0  0  0
 38 47  1  0  0  0
 39 64  1  0  0  0
 39 67  2  0  0  0
 40 52  1  0  0  0
 40 53  2  0  0  0
 40 58  1  0  0  0
 41104  1  0  0  0
 41105  1  0  0  0
 41106  1  0  0  0
 41 48  1  0  0  0
 42 43  1  0  0  0
 42 66  1  0  0  0
 42107  1  0  0  0
 42108  1  0  0  0
 43 44  1  0  0  0
 44109  1  0  0  0
 45 46  2  0  0  0
 45110  1  0  0  0
 46111  1  0  0  0
 47112  1  0  0  0
 47113  1  0  0  0
 48 56  1  0  0  0
 48 65  1  0  0  0
 48114  1  0  0  0
 49 50  1  0  0  0
 49 53  1  0  0  0
 49 64  1  0  0  0
 49115  1  0  0  0
 50 51  1  0  0  0
 50116  1  0  0  0
 50117  1  0  0  0
 51 52  1  0  0  0
 51118  1  0  0  0
 51119  1  0  0  0
 52120  1  0  0  0
 52121  1  0  0  0
 53 54  1  0  0  0
 54 55  2  0  0  0
 54122  1  0  0  0
 55 57  1  0  0  0
 55123  1  0  0  0
 56 69  2  0  0  0
 57 58  2  0  0  0
 57124  1  0  0  0
 58125  1  0  0  0
 59 60  1  0  0  0
 59 61  1  0  0  0
 59 62  1  0  0  0
 60126  1  0  0  0
 60127  1  0  0  0
 60128  1  0  0  0
 61129  1  0  0  0
 61130  1  0  0  0
 61131  1  0  0  0
 62132  1  0  0  0
 62133  1  0  0  0
 62134  1  0  0  0
 63 65  1  0  0  0
 63135  1  0  0  0
 63136  1  0  0  0
 63137  1  0  0  0
 64138  1  0  0  0
 65139  1  0  0  0
 68 78  1  0  0  0
 71 73  1  0  0  0
 71 74  2  0  0  0
 71140  1  0  0  0
 72 73  2  0  0  0
 72 79  1  0  0  0
 72141  1  0  0  0
 73 80  1  0  0  0
 74 75  1  0  0  0
 74 79  1  0  0  0
 75142  1  0  0  0
 75143  1  0  0  0
 75144  1  0  0  0
 76145  1  0  0  0
 76146  1  0  0  0
 76147  1  0  0  0
 76 78  1  0  0  0
 77 78  1  0  0  0
 77 79  1  0  0  0
 77148  1  0  0  0
 77149  1  0  0  0
 78150  1  0  0  0
 80151  1  0  0  0
M  ISO  4   1 100  68 101  78 101  80 100
M  END
> <chiral flag>
0

> <version>
0

> <s_m_source_file>
/data/baiqing/PycharmProjects/Reinvent-master-3.2/result/LINK_invent/BTK/process_docking_weight1_custom_sum_contain_oxygen_bond_distance_aromatic_linkinvent_7_9_3/rearranged_h_0093.sdf

> <i_m_source_file_index>
16

> <r_mmod_Potential_Energy-OPLS-2005>
1679.2060546875

> <r_mmod_Stretch_Energy-OPLS-2005>
731.250366210938

> <r_mmod_Bend_Energy-OPLS-2005>
544.114135742188

> <r_mmod_Torsional_Energy-OPLS-2005>
255.212219238281

> <r_mmod_Improper_Torsional_Energy-OPLS-2005>
10.3635187149048

> <r_mmod_Van_der_Waal_Energy-OPLS-2005>
115.883575439453

> <r_mmod_Electrostatic_Energy-OPLS-2005>
-344.190338134766

> <r_mmod_Solvation_Energy-OPLS-2005>
-219.444610595703

> <b_mmod_Minimization_Converged-OPLS-2005>
0

> <r_mmod_RMS_Derivative-OPLS-2005>
4.14027404785156

$$$$
16
                    3D
 Structure written by MMmdl.
167175  0  0  1  0            999 V2000
  -30.7575  -14.4322   20.6097 C   0  0  0  0  0  0
  -30.4151  -12.2911   19.4308 C   0  0  0  0  0  0
  -29.4988  -12.5148   18.2125 C   0  0  0  0  0  0
  -28.0181  -12.3760   18.6166 C   0  0  0  0  0  0
  -27.6628  -13.2088   19.8786 C   0  0  2  0  0  0
  -28.7047  -12.9892   21.0013 C   0  0  0  0  0  0
  -25.2499  -13.8022   20.5614 C   0  0  0  0  0  0
  -24.1783  -13.0323   20.9180 C   0  0  0  0  0  0
  -24.6399  -11.6820   20.8769 C   0  0  0  0  0  0
  -23.9077  -10.4220   21.0409 C   0  0  0  0  0  0
  -24.3634   -9.4147   21.9194 C   0  0  0  0  0  0
  -23.6290   -8.2195   22.0768 C   0  0  0  0  0  0
  -22.4275   -8.0256   21.3552 C   0  0  0  0  0  0
  -21.9904   -9.0229   20.4649 C   0  0  0  0  0  0
  -22.7249  -10.2086   20.3063 C   0  0  0  0  0  0
  -21.6832   -6.0737   22.5290 C   0  0  0  0  0  0
  -21.3999   -6.5643   23.8224 C   0  0  0  0  0  0
  -21.3666   -5.6797   24.9189 C   0  0  0  0  0  0
  -21.6057   -4.3056   24.7215 C   0  0  0  0  0  0
  -21.8812   -3.8146   23.4326 C   0  0  0  0  0  0
  -21.9169   -4.6969   22.3391 C   0  0  0  0  0  0
  -22.7821  -13.5146   21.1840 C   0  0  0  0  0  0
  -22.1615   -4.2165   21.0959 F   0  0  0  0  0  0
  -21.5661   -3.4528   25.7720 F   0  0  0  0  0  0
  -30.0467  -13.2772   20.4604 N   0  0  0  0  0  0
  -26.3021  -12.9271   20.3369 N   0  0  0  0  0  0
  -25.9342  -11.6428   20.5820 N   0  0  0  0  0  0
  -22.0452  -12.8188   22.0421 N   0  0  0  0  0  0
  -25.4022  -15.1677   20.3866 N   0  0  0  0  0  0
  -31.8150  -14.6398   20.0045 O   0  0  0  0  0  0
  -21.6619   -6.8870   21.4254 O   0  0  0  0  0  0
  -22.3500  -14.5462   20.6674 O   0  0  0  0  0  0
  -24.6075  -31.8705   23.2101 C   0  0  0  0  0  0
  -25.8985  -32.4842   23.8389 C   0  0  1  0  0  0
  -27.2701  -27.4806   20.1242 C   0  0  0  0  0  0
  -25.5859  -33.8636   24.2343 N   0  0  0  0  0  0
  -23.3932  -30.4882   21.5491 C   0  0  2  0  0  0
  -24.8475  -28.9493   20.1227 C   0  0  0  0  0  0
  -22.7371  -29.4663   22.5034 C   0  0  0  0  0  0
  -18.0259  -28.1376   22.8498 C   0  0  0  0  0  0
  -24.1480  -36.7333   23.2642 C   0  0  0  0  0  0
  -25.9089  -30.8585   21.3447 C   0  0  0  0  0  0
  -25.9959  -29.4866   20.7135 C   0  0  0  0  0  0
  -27.2039  -28.7657   20.7064 C   0  0  0  0  0  0
  -26.1088  -26.9544   19.5172 C   0  0  0  0  0  0
  -24.8966  -27.6786   19.5182 C   0  0  0  0  0  0
  -23.6009  -29.8057   20.1674 C   0  0  0  0  0  0
  -25.4100  -36.3132   24.0350 C   0  0  1  0  0  0
  -20.5837  -28.3645   23.1354 C   0  0  2  0  0  0
  -20.6749  -26.9390   22.5437 C   0  0  0  0  0  0
  -19.5739  -26.6390   21.5220 C   0  0  0  0  0  0
  -18.1912  -26.7927   22.1620 C   0  0  0  0  0  0
  -19.1504  -28.8827   23.2921 C   0  0  0  0  0  0
  -18.9441  -30.1438   23.8927 C   0  0  0  0  0  0
  -17.6444  -30.6581   24.0573 C   0  0  0  0  0  0
  -25.9017  -34.9496   23.5149 C   0  0  0  0  0  0
  -16.5334  -29.9091   23.6321 C   0  0  0  0  0  0
  -16.7252  -28.6508   23.0343 C   0  0  0  0  0  0
  -26.4463  -31.6594   25.0679 C   0  0  0  0  0  0
  -25.3771  -31.3659   26.1458 C   0  0  0  0  0  0
  -27.0273  -30.3060   24.5958 C   0  0  0  0  0  0
  -27.6067  -32.4291   25.7425 C   0  0  0  0  0  0
  -27.5585  -37.1810   24.8464 C   0  0  0  0  0  0
  -21.4105  -29.3015   22.3765 N   0  0  0  0  0  0
  -26.4292  -37.3813   23.9416 N   0  0  0  0  0  0
  -24.6548  -31.0858   22.0958 N   0  0  0  0  0  0
  -23.4164  -28.8230   23.3069 O   0  0  0  0  0  0
  -28.4368  -26.7472   20.0612 O   0  0  0  0  0  0
  -26.5589  -34.8942   22.4714 O   0  0  0  0  0  0
  -23.5287  -32.1420   23.7543 O   0  0  0  0  0  0
  -27.3797  -20.2383   19.3131 C   0  0  0  0  0  0
  -28.1197  -21.4092   19.5065 C   0  0  0  0  0  0
  -27.7867  -19.0660   19.9732 C   0  0  0  0  0  0
  -29.2371  -21.3770   20.3605 C   0  0  0  0  0  0
  -28.9391  -19.1007   20.7909 C   0  0  0  0  0  0
  -26.9601  -17.8097   19.8056 C   0  0  0  0  0  0
  -30.0737  -27.6003   21.7374 C   0  0  0  0  0  0
  -30.2175  -15.3455   22.7763 C   0  0  0  0  0  0
  -30.0292  -22.6463   20.6618 C   0  0  0  0  0  0
  -29.3987  -17.8642   21.5717 C   0  0  0  0  0  0
  -29.1533  -23.9062   20.8654 C   0  0  0  0  0  0
  -29.9790  -25.1873   21.0549 C   0  0  0  0  0  0
  -30.1762  -16.8038   20.7437 C   0  0  0  0  0  0
  -29.1359  -26.4617   21.2861 C   0  0  2  0  0  0
  -29.6513  -20.2389   20.9700 N   0  0  0  0  0  0
  -30.1720  -15.4303   21.3126 N   0  0  0  0  0  0
  -31.4666  -12.3600   19.1389 H   0  0  0  0  0  0
  -30.2831  -11.2805   19.8256 H   0  0  0  0  0  0
  -29.7459  -11.8072   17.4207 H   0  0  0  0  0  0
  -29.6701  -13.5090   17.7964 H   0  0  0  0  0  0
  -27.8150  -11.3200   18.8014 H   0  0  0  0  0  0
  -27.3772  -12.6661   17.7841 H   0  0  0  0  0  0
  -27.7042  -14.2601   19.5925 H   0  0  0  0  0  0
  -28.6736  -11.9568   21.3499 H   0  0  0  0  0  0
  -28.4530  -13.5931   21.8726 H   0  0  0  0  0  0
  -25.2801   -9.5616   22.4742 H   0  0  0  0  0  0
  -24.0010   -7.4595   22.7501 H   0  0  0  0  0  0
  -21.0827   -8.8764   19.8960 H   0  0  0  0  0  0
  -22.3749  -10.9641   19.6168 H   0  0  0  0  0  0
  -21.1987   -7.6154   23.9726 H   0  0  0  0  0  0
  -21.1514   -6.0526   25.9099 H   0  0  0  0  0  0
  -22.0592   -2.7607   23.2820 H   0  0  0  0  0  0
  -22.4076  -11.9891   22.4897 H   0  0  0  0  0  0
  -21.1098  -13.1281   22.2633 H   0  0  0  0  0  0
  -24.6204  -15.8066   20.4890 H   0  0  0  0  0  0
  -26.2330  -15.6007   20.0109 H   0  0  0  0  0  0
  -26.7064  -32.5605   23.1177 H   0  0  0  0  0  0
  -24.9997  -33.9805   25.0481 H   0  0  0  0  0  0
  -22.6788  -31.3009   21.4051 H   0  0  0  0  0  0
  -23.3739  -35.9666   23.3313 H   0  0  0  0  0  0
  -24.3578  -36.8934   22.2052 H   0  0  0  0  0  0
  -23.7227  -37.6545   23.6642 H   0  0  0  0  0  0
  -25.9882  -31.6126   20.5604 H   0  0  0  0  0  0
  -26.8078  -30.9416   21.9421 H   0  0  0  0  0  0
  -28.0791  -29.2391   21.1130 H   0  0  0  0  0  0
  -26.1475  -25.9823   19.0460 H   0  0  0  0  0  0
  -24.0181  -27.2569   19.0503 H   0  0  0  0  0  0
  -23.6992  -30.5724   19.3985 H   0  0  0  0  0  0
  -22.7305  -29.2125   19.8807 H   0  0  0  0  0  0
  -25.1270  -36.2010   25.0843 H   0  0  0  0  0  0
  -20.9930  -28.3204   24.1474 H   0  0  0  0  0  0
  -20.5647  -26.2250   23.3614 H   0  0  0  0  0  0
  -21.6624  -26.7442   22.1230 H   0  0  0  0  0  0
  -19.6901  -25.6311   21.1226 H   0  0  0  0  0  0
  -19.6690  -27.3223   20.6769 H   0  0  0  0  0  0
  -17.4191  -26.6690   21.4010 H   0  0  0  0  0  0
  -18.0300  -26.0057   22.9000 H   0  0  0  0  0  0
  -19.7918  -30.7244   24.2310 H   0  0  0  0  0  0
  -17.5003  -31.6266   24.5170 H   0  0  0  0  0  0
  -15.5337  -30.3006   23.7632 H   0  0  0  0  0  0
  -15.8650  -28.0842   22.7041 H   0  0  0  0  0  0
  -24.5930  -30.7026   25.7791 H   0  0  0  0  0  0
  -24.8981  -32.2799   26.4977 H   0  0  0  0  0  0
  -25.8162  -30.8775   27.0165 H   0  0  0  0  0  0
  -26.2755  -29.6815   24.1118 H   0  0  0  0  0  0
  -27.4205  -29.7294   25.4337 H   0  0  0  0  0  0
  -27.8515  -30.4416   23.8951 H   0  0  0  0  0  0
  -27.2711  -33.3565   26.2077 H   0  0  0  0  0  0
  -28.3833  -32.6889   25.0220 H   0  0  0  0  0  0
  -28.0787  -31.8366   26.5273 H   0  0  0  0  0  0
  -28.2613  -38.0098   24.7518 H   0  0  0  0  0  0
  -28.1068  -36.2635   24.6271 H   0  0  0  0  0  0
  -27.2312  -37.1447   25.8870 H   0  0  0  0  0  0
  -20.9264  -29.8712   21.6970 H   0  0  0  0  0  0
  -26.0193  -38.2892   24.1430 H   0  0  0  0  0  0
  -26.5018  -20.2509   18.6824 H   0  0  0  0  0  0
  -27.8079  -22.3142   19.0055 H   0  0  0  0  0  0
  -27.4749  -17.0814   19.1806 H   0  0  0  0  0  0
  -25.9945  -18.0243   19.3458 H   0  0  0  0  0  0
  -26.7605  -17.3654   20.7786 H   0  0  0  0  0  0
  -30.7922  -27.2452   22.4762 H   0  0  0  0  0  0
  -29.5498  -28.4106   22.2375 H   0  0  0  0  0  0
  -30.6398  -28.0075   20.8993 H   0  0  0  0  0  0
  -30.5293  -14.3600   23.1294 H   0  0  0  0  0  0
  -29.2333  -15.5421   23.2001 H   0  0  0  0  0  0
  -30.9244  -16.0682   23.1850 H   0  0  0  0  0  0
  -30.7339  -22.8093   19.8480 H   0  0  0  0  0  0
  -30.6300  -22.4814   21.5577 H   0  0  0  0  0  0
  -28.5256  -17.4189   22.0426 H   0  0  0  0  0  0
  -30.0280  -18.1910   22.4007 H   0  0  0  0  0  0
  -28.4940  -23.7520   21.7210 H   0  0  0  0  0  0
  -28.5085  -24.0625   20.0032 H   0  0  0  0  0  0
  -30.6244  -25.3372   20.1880 H   0  0  0  0  0  0
  -30.6491  -25.0387   21.9027 H   0  0  0  0  0  0
  -31.2005  -17.1506   20.5907 H   0  0  0  0  0  0
  -29.7333  -16.7463   19.7488 H   0  0  0  0  0  0
  -28.4202  -26.2617   22.0837 H   0  0  0  0  0  0
  1 25  1  0  0  0
  1 30  2  0  0  0
  1 86  1  0  0  0
  2  3  1  0  0  0
  2 25  1  0  0  0
  2 87  1  0  0  0
  2 88  1  0  0  0
  3  4  1  0  0  0
  3 89  1  0  0  0
  3 90  1  0  0  0
  4  5  1  0  0  0
  4 91  1  0  0  0
  4 92  1  0  0  0
  5  6  1  0  0  0
  5 26  1  0  0  0
  5 93  1  0  0  0
  6 25  1  0  0  0
  6 94  1  0  0  0
  6 95  1  0  0  0
  7  8  2  0  0  0
  7 26  1  0  0  0
  7 29  1  0  0  0
  8  9  1  0  0  0
  8 22  1  0  0  0
  9 10  1  0  0  0
  9 27  2  0  0  0
 10 11  2  0  0  0
 10 15  1  0  0  0
 11 12  1  0  0  0
 11 96  1  0  0  0
 12 13  2  0  0  0
 12 97  1  0  0  0
 13 14  1  0  0  0
 13 31  1  0  0  0
 14 15  2  0  0  0
 14 98  1  0  0  0
 15 99  1  0  0  0
 16 17  2  0  0  0
 16 21  1  0  0  0
 16 31  1  0  0  0
 17 18  1  0  0  0
 17100  1  0  0  0
 18 19  2  0  0  0
 18101  1  0  0  0
 19 20  1  0  0  0
 19 24  1  0  0  0
 20 21  2  0  0  0
 20102  1  0  0  0
 21 23  1  0  0  0
 22 28  1  0  0  0
 22 32  2  0  0  0
 26 27  1  0  0  0
 28103  1  0  0  0
 28104  1  0  0  0
 29105  1  0  0  0
 29106  1  0  0  0
 33 34  1  0  0  0
 33 66  1  0  0  0
 33 70  2  0  0  0
 34 36  1  0  0  0
 34 59  1  0  0  0
 34107  1  0  0  0
 35 44  2  0  0  0
 35 45  1  0  0  0
 35 68  1  0  0  0
 36 56  1  0  0  0
 36108  1  0  0  0
 37 39  1  0  0  0
 37 47  1  0  0  0
 37 66  1  0  0  0
 37109  1  0  0  0
 38 43  2  0  0  0
 38 46  1  0  0  0
 38 47  1  0  0  0
 39 64  1  0  0  0
 39 67  2  0  0  0
 40 52  1  0  0  0
 40 53  2  0  0  0
 40 58  1  0  0  0
 41110  1  0  0  0
 41111  1  0  0  0
 41112  1  0  0  0
 41 48  1  0  0  0
 42 43  1  0  0  0
 42 66  1  0  0  0
 42113  1  0  0  0
 42114  1  0  0  0
 43 44  1  0  0  0
 44115  1  0  0  0
 45 46  2  0  0  0
 45116  1  0  0  0
 46117  1  0  0  0
 47118  1  0  0  0
 47119  1  0  0  0
 48 56  1  0  0  0
 48 65  1  0  0  0
 48120  1  0  0  0
 49 50  1  0  0  0
 49 53  1  0  0  0
 49 64  1  0  0  0
 49121  1  0  0  0
 50 51  1  0  0  0
 50122  1  0  0  0
 50123  1  0  0  0
 51 52  1  0  0  0
 51124  1  0  0  0
 51125  1  0  0  0
 52126  1  0  0  0
 52127  1  0  0  0
 53 54  1  0  0  0
 54 55  2  0  0  0
 54128  1  0  0  0
 55 57  1  0  0  0
 55129  1  0  0  0
 56 69  2  0  0  0
 57 58  2  0  0  0
 57130  1  0  0  0
 58131  1  0  0  0
 59 60  1  0  0  0
 59 61  1  0  0  0
 59 62  1  0  0  0
 60132  1  0  0  0
 60133  1  0  0  0
 60134  1  0  0  0
 61135  1  0  0  0
 61136  1  0  0  0
 61137  1  0  0  0
 62138  1  0  0  0
 62139  1  0  0  0
 62140  1  0  0  0
 63 65  1  0  0  0
 63141  1  0  0  0
 63142  1  0  0  0
 63143  1  0  0  0
 64144  1  0  0  0
 65145  1  0  0  0
 68 84  1  0  0  0
 71 72  2  0  0  0
 71 73  1  0  0  0
 71146  1  0  0  0
 72 74  1  0  0  0
 72147  1  0  0  0
 73 75  2  0  0  0
 73 76  1  0  0  0
 74 79  1  0  0  0
 74 85  2  0  0  0
 75 80  1  0  0  0
 75 85  1  0  0  0
 76148  1  0  0  0
 76149  1  0  0  0
 76150  1  0  0  0
 77151  1  0  0  0
 77152  1  0  0  0
 77153  1  0  0  0
 77 84  1  0  0  0
 78 86  1  0  0  0
 78154  1  0  0  0
 78155  1  0  0  0
 78156  1  0  0  0
 79 81  1  0  0  0
 79157  1  0  0  0
 79158  1  0  0  0
 80 83  1  0  0  0
 80159  1  0  0  0
 80160  1  0  0  0
 81 82  1  0  0  0
 81161  1  0  0  0
 81162  1  0  0  0
 82 84  1  0  0  0
 82163  1  0  0  0
 82164  1  0  0  0
 83 86  1  0  0  0
 83165  1  0  0  0
 83166  1  0  0  0
 84167  1  0  0  0
M  ISO  4   1 100  68 101  84 101  86 100
M  END
> <chiral flag>
0

> <version>
0

> <s_m_source_file>
/data/baiqing/PycharmProjects/Reinvent-master-3.2/result/LINK_invent/BTK/process_docking_weight1_custom_sum_contain_oxygen_bond_distance_aromatic_linkinvent_7_9_3/rearranged_h_0093.sdf

> <i_m_source_file_index>
17

> <r_mmod_Potential_Energy-OPLS-2005>
-51.2687568664551

> <r_mmod_Stretch_Energy-OPLS-2005>
38.6687278747559

> <r_mmod_Bend_Energy-OPLS-2005>
102.010536193848

> <r_mmod_Torsional_Energy-OPLS-2005>
292.399291992188

> <r_mmod_Improper_Torsional_Energy-OPLS-2005>
6.62222337722778

> <r_mmod_Van_der_Waal_Energy-OPLS-2005>
162.101852416992

> <r_mmod_Electrostatic_Energy-OPLS-2005>
-458.231689453125

> <r_mmod_Solvation_Energy-OPLS-2005>
-202.984909057617

> <b_mmod_Minimization_Converged-OPLS-2005>
0

> <r_mmod_RMS_Derivative-OPLS-2005>
2.69870734214783

$$$$
17
                    3D
 Structure written by MMmdl.
173181  0  0  1  0            999 V2000
  -30.6434  -14.7165   20.4377 C   0  0  0  0  0  0
  -30.4281  -12.4323   19.4736 C   0  0  0  0  0  0
  -29.5019  -12.4931   18.2389 C   0  0  0  0  0  0
  -28.0313  -12.3290   18.6633 C   0  0  0  0  0  0
  -27.6465  -13.2346   19.8623 C   0  0  2  0  0  0
  -28.6972  -13.1682   20.9948 C   0  0  0  0  0  0
  -25.2526  -13.8218   20.5764 C   0  0  0  0  0  0
  -24.1815  -13.0464   20.9254 C   0  0  0  0  0  0
  -24.6408  -11.6936   20.8797 C   0  0  0  0  0  0
  -23.9089  -10.4299   21.0429 C   0  0  0  0  0  0
  -24.3628   -9.4201   21.9198 C   0  0  0  0  0  0
  -23.6300   -8.2235   22.0746 C   0  0  0  0  0  0
  -22.4281   -8.0278   21.3534 C   0  0  0  0  0  0
  -21.9934   -9.0266   20.4639 C   0  0  0  0  0  0
  -22.7267  -10.2148   20.3066 C   0  0  0  0  0  0
  -21.6846   -6.0738   22.5273 C   0  0  0  0  0  0
  -21.4002   -6.5639   23.8204 C   0  0  0  0  0  0
  -21.3662   -5.6794   24.9168 C   0  0  0  0  0  0
  -21.6049   -4.3055   24.7223 C   0  0  0  0  0  0
  -21.8817   -3.8148   23.4341 C   0  0  0  0  0  0
  -21.9187   -4.6965   22.3395 C   0  0  0  0  0  0
  -22.7819  -13.5210   21.1905 C   0  0  0  0  0  0
  -22.1657   -4.2149   21.0974 F   0  0  0  0  0  0
  -21.5641   -3.4539   25.7733 F   0  0  0  0  0  0
  -30.0001  -13.5004   20.4071 N   0  0  0  0  0  0
  -26.2973  -12.9444   20.3393 N   0  0  0  0  0  0
  -25.9347  -11.6587   20.5848 N   0  0  0  0  0  0
  -22.0471  -12.8182   22.0446 N   0  0  0  0  0  0
  -25.4272  -15.1942   20.4148 N   0  0  0  0  0  0
  -31.8238  -14.7896   20.0893 O   0  0  0  0  0  0
  -21.6636   -6.8885   21.4235 O   0  0  0  0  0  0
  -22.3492  -14.5512   20.6735 O   0  0  0  0  0  0
  -24.6282  -31.8568   23.2040 C   0  0  0  0  0  0
  -25.9107  -32.4758   23.8396 C   0  0  1  0  0  0
  -27.2169  -27.2724   20.1257 C   0  0  0  0  0  0
  -25.5901  -33.8572   24.2320 N   0  0  0  0  0  0
  -23.4261  -30.4781   21.5473 C   0  0  2  0  0  0
  -24.8719  -28.9283   20.1134 C   0  0  0  0  0  0
  -22.7501  -29.4585   22.4940 C   0  0  0  0  0  0
  -18.0297  -28.1333   22.8490 C   0  0  0  0  0  0
  -24.1480  -36.7298   23.2650 C   0  0  0  0  0  0
  -25.9725  -30.7695   21.3869 C   0  0  0  0  0  0
  -26.0433  -29.3947   20.7231 C   0  0  0  0  0  0
  -27.2218  -28.5814   20.7137 C   0  0  0  0  0  0
  -26.0247  -26.8735   19.4830 C   0  0  0  0  0  0
  -24.8673  -27.6750   19.4803 C   0  0  0  0  0  0
  -23.6436  -29.8171   20.1621 C   0  0  0  0  0  0
  -25.4103  -36.3076   24.0332 C   0  0  1  0  0  0
  -20.5893  -28.3658   23.1266 C   0  0  2  0  0  0
  -20.6771  -26.9381   22.5397 C   0  0  0  0  0  0
  -19.5755  -26.6355   21.5190 C   0  0  0  0  0  0
  -18.1943  -26.7888   22.1606 C   0  0  0  0  0  0
  -19.1547  -28.8812   23.2863 C   0  0  0  0  0  0
  -18.9471  -30.1411   23.8880 C   0  0  0  0  0  0
  -17.6471  -30.6550   24.0539 C   0  0  0  0  0  0
  -25.9035  -34.9443   23.5130 C   0  0  0  0  0  0
  -16.5357  -29.9048   23.6318 C   0  0  0  0  0  0
  -16.7284  -28.6449   23.0370 C   0  0  0  0  0  0
  -26.4476  -31.6587   25.0795 C   0  0  0  0  0  0
  -25.3723  -31.3686   26.1542 C   0  0  0  0  0  0
  -27.0343  -30.3009   24.6295 C   0  0  0  0  0  0
  -27.6034  -32.4358   25.7548 C   0  0  0  0  0  0
  -27.5583  -37.1794   24.8457 C   0  0  0  0  0  0
  -21.4215  -29.3010   22.3666 N   0  0  0  0  0  0
  -26.4284  -37.3771   23.9415 N   0  0  0  0  0  0
  -24.6944  -31.0527   22.1017 N   0  0  0  0  0  0
  -23.4196  -28.8136   23.3055 O   0  0  0  0  0  0
  -28.3192  -26.3916   20.1393 O   0  0  0  0  0  0
  -26.5620  -34.8889   22.4711 O   0  0  0  0  0  0
  -23.5428  -32.1407   23.7318 O   0  0  0  0  0  0
  -29.9563  -21.6048   17.9587 C   0  0  0  0  0  0
  -29.7136  -21.1781   19.2840 C   0  0  0  0  0  0
  -30.3919  -19.9304   19.6623 C   0  0  0  0  0  0
  -31.6327  -19.7346   18.9931 C   0  0  0  0  0  0
  -31.8026  -20.2719   17.6984 C   0  0  0  0  0  0
  -33.0008  -19.9772   16.8112 C   0  0  0  0  0  0
  -36.1330  -20.8039   20.9358 C   0  0  0  0  0  0
  -34.5739  -19.4693   22.4193 C   0  0  0  0  0  0
  -28.8532  -22.1990   20.1493 C   0  0  0  0  0  0
  -29.8966  -18.7020   20.5532 C   0  0  0  0  0  0
  -32.8241  -19.1175   19.7318 C   0  0  0  0  0  0
  -28.9990  -23.7963   19.7982 C   0  0  0  0  0  0
  -33.8325  -20.2225   20.1016 C   0  0  0  0  0  0
  -30.1958  -17.2188   19.9203 C   0  0  0  0  0  0
  -28.1046  -24.9438   20.4876 C   0  0  0  0  0  0
  -35.0113  -19.7544   20.9723 C   0  0  0  0  0  0
  -30.9111  -21.1108   17.1544 N   0  0  0  0  0  0
  -29.8998  -15.8761   20.5956 N   0  0  0  0  0  0
  -31.4687  -12.5347   19.1609 H   0  0  0  0  0  0
  -30.3624  -11.4572   19.9588 H   0  0  0  0  0  0
  -29.7690  -11.7117   17.5261 H   0  0  0  0  0  0
  -29.6331  -13.4419   17.7164 H   0  0  0  0  0  0
  -27.8884  -11.2840   18.9389 H   0  0  0  0  0  0
  -27.3652  -12.5132   17.8200 H   0  0  0  0  0  0
  -27.6445  -14.2562   19.4801 H   0  0  0  0  0  0
  -28.7296  -12.1733   21.4419 H   0  0  0  0  0  0
  -28.4496  -13.8598   21.8015 H   0  0  0  0  0  0
  -25.2772   -9.5653   22.4779 H   0  0  0  0  0  0
  -24.0001   -7.4610   22.7446 H   0  0  0  0  0  0
  -21.0878   -8.8798   19.8927 H   0  0  0  0  0  0
  -22.3744  -10.9695   19.6172 H   0  0  0  0  0  0
  -21.1985   -7.6146   23.9705 H   0  0  0  0  0  0
  -21.1493   -6.0525   25.9075 H   0  0  0  0  0  0
  -22.0596   -2.7609   23.2841 H   0  0  0  0  0  0
  -22.4112  -11.9861   22.4849 H   0  0  0  0  0  0
  -21.1067  -13.1154   22.2627 H   0  0  0  0  0  0
  -24.6747  -15.8619   20.5390 H   0  0  0  0  0  0
  -26.2787  -15.6214   20.0745 H   0  0  0  0  0  0
  -26.7190  -32.5396   23.1145 H   0  0  0  0  0  0
  -25.0001  -33.9731   25.0435 H   0  0  0  0  0  0
  -22.7189  -31.2982   21.4060 H   0  0  0  0  0  0
  -23.3734  -35.9641   23.3304 H   0  0  0  0  0  0
  -24.3570  -36.8952   22.2071 H   0  0  0  0  0  0
  -23.7244  -37.6496   23.6685 H   0  0  0  0  0  0
  -26.1209  -31.5330   20.6216 H   0  0  0  0  0  0
  -26.8442  -30.8102   22.0275 H   0  0  0  0  0  0
  -28.1223  -28.9375   21.1932 H   0  0  0  0  0  0
  -25.9724  -25.9220   18.9743 H   0  0  0  0  0  0
  -23.9731  -27.3190   18.9880 H   0  0  0  0  0  0
  -23.7662  -30.5956   19.4084 H   0  0  0  0  0  0
  -22.7602  -29.2525   19.8602 H   0  0  0  0  0  0
  -25.1284  -36.1950   25.0818 H   0  0  0  0  0  0
  -20.9979  -28.3227   24.1387 H   0  0  0  0  0  0
  -20.5658  -26.2274   23.3596 H   0  0  0  0  0  0
  -21.6646  -26.7390   22.1219 H   0  0  0  0  0  0
  -19.6913  -25.6273   21.1217 H   0  0  0  0  0  0
  -19.6690  -27.3140   20.6706 H   0  0  0  0  0  0
  -17.4223  -26.6627   21.3996 H   0  0  0  0  0  0
  -18.0330  -26.0005   22.8974 H   0  0  0  0  0  0
  -19.7946  -30.7200   24.2271 H   0  0  0  0  0  0
  -17.5037  -31.6241   24.5118 H   0  0  0  0  0  0
  -15.5358  -30.2940   23.7649 H   0  0  0  0  0  0
  -15.8680  -28.0740   22.7137 H   0  0  0  0  0  0
  -24.5911  -30.6998   25.7876 H   0  0  0  0  0  0
  -24.8873  -32.2813   26.5014 H   0  0  0  0  0  0
  -25.8094  -30.8862   27.0306 H   0  0  0  0  0  0
  -26.2914  -29.6701   24.1380 H   0  0  0  0  0  0
  -27.4065  -29.7319   25.4830 H   0  0  0  0  0  0
  -27.8786  -30.4282   23.9514 H   0  0  0  0  0  0
  -27.2652  -33.3693   26.2064 H   0  0  0  0  0  0
  -28.3843  -32.6886   25.0355 H   0  0  0  0  0  0
  -28.0691  -31.8549   26.5510 H   0  0  0  0  0  0
  -28.2577  -38.0118   24.7552 H   0  0  0  0  0  0
  -28.1118  -36.2654   24.6237 H   0  0  0  0  0  0
  -27.2308  -37.1389   25.8863 H   0  0  0  0  0  0
  -20.9391  -29.8775   21.6906 H   0  0  0  0  0  0
  -26.0167  -38.2844   24.1433 H   0  0  0  0  0  0
  -29.3971  -22.4097   17.5111 H   0  0  0  0  0  0
  -33.6323  -20.8622   16.7348 H   0  0  0  0  0  0
  -32.6651  -19.7094   15.8091 H   0  0  0  0  0  0
  -33.6175  -19.1521   17.1608 H   0  0  0  0  0  0
  -36.9707  -20.5196   21.5723 H   0  0  0  0  0  0
  -35.7745  -21.7777   21.2717 H   0  0  0  0  0  0
  -36.5209  -20.9269   19.9245 H   0  0  0  0  0  0
  -35.4228  -19.1670   23.0330 H   0  0  0  0  0  0
  -33.8401  -18.6649   22.4706 H   0  0  0  0  0  0
  -34.1287  -20.3504   22.8837 H   0  0  0  0  0  0
  -29.1131  -22.0469   21.1994 H   0  0  0  0  0  0
  -27.8079  -21.9078   20.0557 H   0  0  0  0  0  0
  -28.8253  -18.8185   20.7173 H   0  0  0  0  0  0
  -30.3608  -18.7805   21.5358 H   0  0  0  0  0  0
  -33.2985  -18.3311   19.1450 H   0  0  0  0  0  0
  -32.5023  -18.6415   20.6550 H   0  0  0  0  0  0
  -28.8067  -23.9440   18.7386 H   0  0  0  0  0  0
  -30.0442  -24.0734   19.9375 H   0  0  0  0  0  0
  -33.3098  -21.0264   20.6231 H   0  0  0  0  0  0
  -34.2178  -20.6759   19.1881 H   0  0  0  0  0  0
  -31.2398  -17.1593   19.6312 H   0  0  0  0  0  0
  -29.6710  -17.1811   18.9657 H   0  0  0  0  0  0
  -28.2506  -24.8736   21.5664 H   0  0  0  0  0  0
  -27.0655  -24.6570   20.3415 H   0  0  0  0  0  0
  -35.4131  -18.8341   20.5482 H   0  0  0  0  0  0
  -28.9563  -15.7435   20.9273 H   0  0  0  0  0  0
  1 25  1  0  0  0
  1 30  2  0  0  0
  1 88  1  0  0  0
  2  3  1  0  0  0
  2 25  1  0  0  0
  2 89  1  0  0  0
  2 90  1  0  0  0
  3  4  1  0  0  0
  3 91  1  0  0  0
  3 92  1  0  0  0
  4  5  1  0  0  0
  4 93  1  0  0  0
  4 94  1  0  0  0
  5  6  1  0  0  0
  5 26  1  0  0  0
  5 95  1  0  0  0
  6 25  1  0  0  0
  6 96  1  0  0  0
  6 97  1  0  0  0
  7  8  2  0  0  0
  7 26  1  0  0  0
  7 29  1  0  0  0
  8  9  1  0  0  0
  8 22  1  0  0  0
  9 10  1  0  0  0
  9 27  2  0  0  0
 10 11  2  0  0  0
 10 15  1  0  0  0
 11 12  1  0  0  0
 11 98  1  0  0  0
 12 13  2  0  0  0
 12 99  1  0  0  0
 13 14  1  0  0  0
 13 31  1  0  0  0
 14 15  2  0  0  0
 14100  1  0  0  0
 15101  1  0  0  0
 16 17  2  0  0  0
 16 21  1  0  0  0
 16 31  1  0  0  0
 17 18  1  0  0  0
 17102  1  0  0  0
 18 19  2  0  0  0
 18103  1  0  0  0
 19 20  1  0  0  0
 19 24  1  0  0  0
 20 21  2  0  0  0
 20104  1  0  0  0
 21 23  1  0  0  0
 22 28  1  0  0  0
 22 32  2  0  0  0
 26 27  1  0  0  0
 28105  1  0  0  0
 28106  1  0  0  0
 29107  1  0  0  0
 29108  1  0  0  0
 33 34  1  0  0  0
 33 66  1  0  0  0
 33 70  2  0  0  0
 34 36  1  0  0  0
 34 59  1  0  0  0
 34109  1  0  0  0
 35 44  2  0  0  0
 35 45  1  0  0  0
 35 68  1  0  0  0
 36 56  1  0  0  0
 36110  1  0  0  0
 37 39  1  0  0  0
 37 47  1  0  0  0
 37 66  1  0  0  0
 37111  1  0  0  0
 38 43  2  0  0  0
 38 46  1  0  0  0
 38 47  1  0  0  0
 39 64  1  0  0  0
 39 67  2  0  0  0
 40 52  1  0  0  0
 40 53  2  0  0  0
 40 58  1  0  0  0
 41112  1  0  0  0
 41113  1  0  0  0
 41114  1  0  0  0
 41 48  1  0  0  0
 42 43  1  0  0  0
 42 66  1  0  0  0
 42115  1  0  0  0
 42116  1  0  0  0
 43 44  1  0  0  0
 44117  1  0  0  0
 45 46  2  0  0  0
 45118  1  0  0  0
 46119  1  0  0  0
 47120  1  0  0  0
 47121  1  0  0  0
 48 56  1  0  0  0
 48 65  1  0  0  0
 48122  1  0  0  0
 49 50  1  0  0  0
 49 53  1  0  0  0
 49 64  1  0  0  0
 49123  1  0  0  0
 50 51  1  0  0  0
 50124  1  0  0  0
 50125  1  0  0  0
 51 52  1  0  0  0
 51126  1  0  0  0
 51127  1  0  0  0
 52128  1  0  0  0
 52129  1  0  0  0
 53 54  1  0  0  0
 54 55  2  0  0  0
 54130  1  0  0  0
 55 57  1  0  0  0
 55131  1  0  0  0
 56 69  2  0  0  0
 57 58  2  0  0  0
 57132  1  0  0  0
 58133  1  0  0  0
 59 60  1  0  0  0
 59 61  1  0  0  0
 59 62  1  0  0  0
 60134  1  0  0  0
 60135  1  0  0  0
 60136  1  0  0  0
 61137  1  0  0  0
 61138  1  0  0  0
 61139  1  0  0  0
 62140  1  0  0  0
 62141  1  0  0  0
 62142  1  0  0  0
 63 65  1  0  0  0
 63143  1  0  0  0
 63144  1  0  0  0
 63145  1  0  0  0
 64146  1  0  0  0
 65147  1  0  0  0
 68 85  1  0  0  0
 71 72  2  0  0  0
 71 87  1  0  0  0
 71148  1  0  0  0
 72 73  1  0  0  0
 72 79  1  0  0  0
 73 74  2  0  0  0
 73 80  1  0  0  0
 74 75  1  0  0  0
 74 81  1  0  0  0
 75 76  1  0  0  0
 75 87  2  0  0  0
 76149  1  0  0  0
 76150  1  0  0  0
 76151  1  0  0  0
 77152  1  0  0  0
 77153  1  0  0  0
 77154  1  0  0  0
 77 86  1  0  0  0
 78 86  1  0  0  0
 78155  1  0  0  0
 78156  1  0  0  0
 78157  1  0  0  0
 79 82  1  0  0  0
 79158  1  0  0  0
 79159  1  0  0  0
 80 84  1  0  0  0
 80160  1  0  0  0
 80161  1  0  0  0
 81 83  1  0  0  0
 81162  1  0  0  0
 81163  1  0  0  0
 82 85  1  0  0  0
 82164  1  0  0  0
 82165  1  0  0  0
 83 86  1  0  0  0
 83166  1  0  0  0
 83167  1  0  0  0
 84 88  1  0  0  0
 84168  1  0  0  0
 84169  1  0  0  0
 85170  1  0  0  0
 85171  1  0  0  0
 86172  1  0  0  0
 88173  1  0  0  0
M  ISO  4   1 100  68 101  85 101  88 100
M  END
> <chiral flag>
0

> <version>
0

> <s_m_source_file>
/data/baiqing/PycharmProjects/Reinvent-master-3.2/result/LINK_invent/BTK/process_docking_weight1_custom_sum_contain_oxygen_bond_distance_aromatic_linkinvent_7_9_3/rearranged_h_0093.sdf

> <i_m_source_file_index>
18

> <r_mmod_Potential_Energy-OPLS-2005>
176.962799072266

> <r_mmod_Stretch_Energy-OPLS-2005>
135.117858886719

> <r_mmod_Bend_Energy-OPLS-2005>
189.862014770508

> <r_mmod_Torsional_Energy-OPLS-2005>
334.413604736328

> <r_mmod_Improper_Torsional_Energy-OPLS-2005>
8.94817543029785

> <r_mmod_Van_der_Waal_Energy-OPLS-2005>
157.2646484375

> <r_mmod_Electrostatic_Energy-OPLS-2005>
-500.661804199219

> <r_mmod_Solvation_Energy-OPLS-2005>
-223.00471496582

> <b_mmod_Minimization_Converged-OPLS-2005>
0

> <r_mmod_RMS_Derivative-OPLS-2005>
2.73722577095032

$$$$
18
                    3D
 Structure written by MMmdl.
157165  0  0  1  0            999 V2000
  -30.7126  -14.4882   20.6085 C   0  0  0  0  0  0
  -30.4246  -12.3343   19.4193 C   0  0  0  0  0  0
  -29.4918  -12.5092   18.2047 C   0  0  0  0  0  0
  -28.0154  -12.3605   18.6210 C   0  0  0  0  0  0
  -27.6593  -13.2077   19.8731 C   0  0  2  0  0  0
  -28.7022  -13.0002   20.9927 C   0  0  0  0  0  0
  -25.2601  -13.8158   20.5667 C   0  0  0  0  0  0
  -24.1855  -13.0432   20.9155 C   0  0  0  0  0  0
  -24.6397  -11.6902   20.8718 C   0  0  0  0  0  0
  -23.9042  -10.4293   21.0389 C   0  0  0  0  0  0
  -24.3591   -9.4207   21.9169 C   0  0  0  0  0  0
  -23.6285   -8.2229   22.0738 C   0  0  0  0  0  0
  -22.4256   -8.0275   21.3535 C   0  0  0  0  0  0
  -21.9886   -9.0243   20.4632 C   0  0  0  0  0  0
  -22.7207  -10.2127   20.3048 C   0  0  0  0  0  0
  -21.6851   -6.0730   22.5282 C   0  0  0  0  0  0
  -21.4018   -6.5629   23.8212 C   0  0  0  0  0  0
  -21.3655   -5.6781   24.9174 C   0  0  0  0  0  0
  -21.6048   -4.3057   24.7217 C   0  0  0  0  0  0
  -21.8826   -3.8136   23.4342 C   0  0  0  0  0  0
  -21.9191   -4.6951   22.3402 C   0  0  0  0  0  0
  -22.7884  -13.5261   21.1823 C   0  0  0  0  0  0
  -22.1668   -4.2141   21.0975 F   0  0  0  0  0  0
  -21.5618   -3.4536   25.7734 F   0  0  0  0  0  0
  -30.0257  -13.3231   20.4356 N   0  0  0  0  0  0
  -26.3023  -12.9313   20.3362 N   0  0  0  0  0  0
  -25.9329  -11.6473   20.5743 N   0  0  0  0  0  0
  -22.0504  -12.8284   22.0370 N   0  0  0  0  0  0
  -25.4402  -15.1868   20.4074 N   0  0  0  0  0  0
  -31.8351  -14.6674   20.1303 O   0  0  0  0  0  0
  -21.6636   -6.8870   21.4237 O   0  0  0  0  0  0
  -22.3588  -14.5570   20.6668 O   0  0  0  0  0  0
  -24.6181  -31.8639   23.2142 C   0  0  0  0  0  0
  -25.9065  -32.4822   23.8423 C   0  0  1  0  0  0
  -27.2361  -27.3919   20.0893 C   0  0  0  0  0  0
  -25.5936  -33.8618   24.2347 N   0  0  0  0  0  0
  -23.4096  -30.4891   21.5517 C   0  0  2  0  0  0
  -24.8585  -28.9625   20.1069 C   0  0  0  0  0  0
  -22.7454  -29.4593   22.4938 C   0  0  0  0  0  0
  -18.0290  -28.1391   22.8501 C   0  0  0  0  0  0
  -24.1489  -36.7286   23.2627 C   0  0  0  0  0  0
  -25.9436  -30.8190   21.3741 C   0  0  0  0  0  0
  -26.0214  -29.4519   20.7125 C   0  0  0  0  0  0
  -27.2095  -28.6751   20.7016 C   0  0  0  0  0  0
  -26.0523  -26.9461   19.4516 C   0  0  0  0  0  0
  -24.8732  -27.7126   19.4685 C   0  0  0  0  0  0
  -23.6277  -29.8400   20.1588 C   0  0  0  0  0  0
  -25.4113  -36.3066   24.0312 C   0  0  1  0  0  0
  -20.5874  -28.3639   23.1357 C   0  0  2  0  0  0
  -20.6734  -26.9375   22.5416 C   0  0  0  0  0  0
  -19.5723  -26.6388   21.5196 C   0  0  0  0  0  0
  -18.1917  -26.7955   22.1624 C   0  0  0  0  0  0
  -19.1530  -28.8837   23.2945 C   0  0  0  0  0  0
  -18.9431  -30.1456   23.8944 C   0  0  0  0  0  0
  -17.6420  -30.6582   24.0563 C   0  0  0  0  0  0
  -25.9051  -34.9448   23.5105 C   0  0  0  0  0  0
  -16.5327  -29.9070   23.6308 C   0  0  0  0  0  0
  -16.7267  -28.6498   23.0327 C   0  0  0  0  0  0
  -26.4512  -31.6607   25.0744 C   0  0  0  0  0  0
  -25.3834  -31.3623   26.1517 C   0  0  0  0  0  0
  -27.0278  -30.3046   24.6065 C   0  0  0  0  0  0
  -27.6100  -32.4328   25.7516 C   0  0  0  0  0  0
  -27.5578  -37.1798   24.8474 C   0  0  0  0  0  0
  -21.4159  -29.3022   22.3760 N   0  0  0  0  0  0
  -26.4285  -37.3764   23.9422 N   0  0  0  0  0  0
  -24.6760  -31.0692   22.1069 N   0  0  0  0  0  0
  -23.4221  -28.8090   23.2944 O   0  0  0  0  0  0
  -28.3951  -26.6209   20.1387 O   0  0  0  0  0  0
  -26.5585  -34.8894   22.4654 O   0  0  0  0  0  0
  -23.5374  -32.1417   23.7507 O   0  0  0  0  0  0
  -29.3509  -18.3289   20.0800 C   0  0  0  0  0  0
  -29.0895  -19.6742   19.9972 C   0  0  0  0  0  0
  -30.2424  -19.3007   21.8663 C   0  0  0  0  0  0
  -30.0976  -18.0682   21.2664 C   0  0  0  0  0  0
  -30.6596  -24.7970   20.7926 C   0  0  0  0  0  0
  -30.6712  -16.7327   21.7724 C   0  0  0  0  0  0
  -29.1459  -22.7521   20.3364 C   0  0  0  0  0  0
  -29.6439  -21.7489   21.4329 C   0  0  0  0  0  0
  -28.3621  -25.2066   19.7846 C   0  0  0  0  0  0
  -29.2108  -24.2824   20.7198 C   0  0  2  0  0  0
  -29.6560  -20.3043   21.0931 N   0  0  0  0  0  0
  -30.0725  -15.4753   21.2731 N   0  0  0  0  0  0
  -31.4668  -12.4444   19.1136 H   0  0  0  0  0  0
  -30.3414  -11.3242   19.8237 H   0  0  0  0  0  0
  -29.7376  -11.7748   17.4365 H   0  0  0  0  0  0
  -29.6531  -13.4906   17.7539 H   0  0  0  0  0  0
  -27.8378  -11.3044   18.8280 H   0  0  0  0  0  0
  -27.3610  -12.6176   17.7890 H   0  0  0  0  0  0
  -27.7026  -14.2533   19.5703 H   0  0  0  0  0  0
  -28.6880  -11.9624   21.3311 H   0  0  0  0  0  0
  -28.4551  -13.5959   21.8707 H   0  0  0  0  0  0
  -25.2723   -9.5710   22.4760 H   0  0  0  0  0  0
  -23.9995   -7.4629   22.7477 H   0  0  0  0  0  0
  -21.0806   -8.8745   19.8957 H   0  0  0  0  0  0
  -22.3636  -10.9657   19.6162 H   0  0  0  0  0  0
  -21.2018   -7.6140   23.9723 H   0  0  0  0  0  0
  -21.1473   -6.0505   25.9079 H   0  0  0  0  0  0
  -22.0611   -2.7600   23.2843 H   0  0  0  0  0  0
  -22.4082  -11.9940   22.4791 H   0  0  0  0  0  0
  -21.1133  -13.1367   22.2541 H   0  0  0  0  0  0
  -24.6879  -15.8575   20.5232 H   0  0  0  0  0  0
  -26.3044  -15.6128   20.0962 H   0  0  0  0  0  0
  -26.7125  -32.5524   23.1179 H   0  0  0  0  0  0
  -25.0119  -33.9831   25.0501 H   0  0  0  0  0  0
  -22.7012  -31.3081   21.4176 H   0  0  0  0  0  0
  -23.3747  -35.9629   23.3299 H   0  0  0  0  0  0
  -24.3557  -36.8909   22.2041 H   0  0  0  0  0  0
  -23.7276  -37.6493   23.6665 H   0  0  0  0  0  0
  -26.0567  -31.5953   20.6155 H   0  0  0  0  0  0
  -26.8297  -30.8711   21.9927 H   0  0  0  0  0  0
  -28.1031  -29.0543   21.1785 H   0  0  0  0  0  0
  -26.0006  -26.0116   18.9147 H   0  0  0  0  0  0
  -23.9864  -27.3429   18.9723 H   0  0  0  0  0  0
  -23.7708  -30.6347   19.4262 H   0  0  0  0  0  0
  -22.7482  -29.2864   19.8255 H   0  0  0  0  0  0
  -25.1289  -36.1875   25.0798 H   0  0  0  0  0  0
  -20.9990  -28.3149   24.1473 H   0  0  0  0  0  0
  -20.5570  -26.2224   23.3570 H   0  0  0  0  0  0
  -21.6605  -26.7361   22.1242 H   0  0  0  0  0  0
  -19.6835  -25.6285   21.1242 H   0  0  0  0  0  0
  -19.6697  -27.3177   20.6712 H   0  0  0  0  0  0
  -17.4164  -26.6728   21.4048 H   0  0  0  0  0  0
  -18.0345  -26.0106   22.9032 H   0  0  0  0  0  0
  -19.7874  -30.7295   24.2350 H   0  0  0  0  0  0
  -17.4925  -31.6267   24.5145 H   0  0  0  0  0  0
  -15.5311  -30.2948   23.7593 H   0  0  0  0  0  0
  -15.8695  -28.0804   22.7001 H   0  0  0  0  0  0
  -24.6063  -30.6906   25.7852 H   0  0  0  0  0  0
  -24.8972  -32.2717   26.5059 H   0  0  0  0  0  0
  -25.8286  -30.8760   27.0211 H   0  0  0  0  0  0
  -26.2706  -29.6882   24.1209 H   0  0  0  0  0  0
  -27.4110  -29.7223   25.4449 H   0  0  0  0  0  0
  -27.8562  -30.4340   23.9103 H   0  0  0  0  0  0
  -27.2722  -33.3621   26.2123 H   0  0  0  0  0  0
  -28.3923  -32.6920   25.0366 H   0  0  0  0  0  0
  -28.0767  -31.8447   26.5433 H   0  0  0  0  0  0
  -28.2568  -38.0112   24.7485 H   0  0  0  0  0  0
  -28.1092  -36.2633   24.6320 H   0  0  0  0  0  0
  -27.2298  -37.1457   25.8876 H   0  0  0  0  0  0
  -20.9267  -29.8894   21.7148 H   0  0  0  0  0  0
  -26.0143  -38.2816   24.1475 H   0  0  0  0  0  0
  -29.0469  -17.5972   19.3423 H   0  0  0  0  0  0
  -28.5568  -20.2447   19.2468 H   0  0  0  0  0  0
  -30.7391  -19.5617   22.7944 H   0  0  0  0  0  0
  -31.2714  -24.2052   21.4719 H   0  0  0  0  0  0
  -30.6897  -25.8219   21.1649 H   0  0  0  0  0  0
  -31.1350  -24.7920   19.8110 H   0  0  0  0  0  0
  -30.5839  -16.7175   22.8592 H   0  0  0  0  0  0
  -31.7447  -16.7430   21.5789 H   0  0  0  0  0  0
  -28.1117  -22.4955   20.1053 H   0  0  0  0  0  0
  -29.7051  -22.5882   19.4152 H   0  0  0  0  0  0
  -29.0321  -21.8708   22.3276 H   0  0  0  0  0  0
  -30.6585  -22.0149   21.7293 H   0  0  0  0  0  0
  -27.3590  -24.7893   19.8160 H   0  0  0  0  0  0
  -28.7063  -25.1127   18.7532 H   0  0  0  0  0  0
  -28.7822  -24.3761   21.7198 H   0  0  0  0  0  0
  -29.1374  -15.2641   21.5857 H   0  0  0  0  0  0
  1 25  1  0  0  0
  1 30  2  0  0  0
  1 82  1  0  0  0
  2  3  1  0  0  0
  2 25  1  0  0  0
  2 83  1  0  0  0
  2 84  1  0  0  0
  3  4  1  0  0  0
  3 85  1  0  0  0
  3 86  1  0  0  0
  4  5  1  0  0  0
  4 87  1  0  0  0
  4 88  1  0  0  0
  5  6  1  0  0  0
  5 26  1  0  0  0
  5 89  1  0  0  0
  6 25  1  0  0  0
  6 90  1  0  0  0
  6 91  1  0  0  0
  7  8  2  0  0  0
  7 26  1  0  0  0
  7 29  1  0  0  0
  8  9  1  0  0  0
  8 22  1  0  0  0
  9 10  1  0  0  0
  9 27  2  0  0  0
 10 11  2  0  0  0
 10 15  1  0  0  0
 11 12  1  0  0  0
 11 92  1  0  0  0
 12 13  2  0  0  0
 12 93  1  0  0  0
 13 14  1  0  0  0
 13 31  1  0  0  0
 14 15  2  0  0  0
 14 94  1  0  0  0
 15 95  1  0  0  0
 16 17  2  0  0  0
 16 21  1  0  0  0
 16 31  1  0  0  0
 17 18  1  0  0  0
 17 96  1  0  0  0
 18 19  2  0  0  0
 18 97  1  0  0  0
 19 20  1  0  0  0
 19 24  1  0  0  0
 20 21  2  0  0  0
 20 98  1  0  0  0
 21 23  1  0  0  0
 22 28  1  0  0  0
 22 32  2  0  0  0
 26 27  1  0  0  0
 28 99  1  0  0  0
 28100  1  0  0  0
 29101  1  0  0  0
 29102  1  0  0  0
 33 34  1  0  0  0
 33 66  1  0  0  0
 33 70  2  0  0  0
 34 36  1  0  0  0
 34 59  1  0  0  0
 34103  1  0  0  0
 35 44  2  0  0  0
 35 45  1  0  0  0
 35 68  1  0  0  0
 36 56  1  0  0  0
 36104  1  0  0  0
 37 39  1  0  0  0
 37 47  1  0  0  0
 37 66  1  0  0  0
 37105  1  0  0  0
 38 43  2  0  0  0
 38 46  1  0  0  0
 38 47  1  0  0  0
 39 64  1  0  0  0
 39 67  2  0  0  0
 40 52  1  0  0  0
 40 53  2  0  0  0
 40 58  1  0  0  0
 41106  1  0  0  0
 41107  1  0  0  0
 41108  1  0  0  0
 41 48  1  0  0  0
 42 43  1  0  0  0
 42 66  1  0  0  0
 42109  1  0  0  0
 42110  1  0  0  0
 43 44  1  0  0  0
 44111  1  0  0  0
 45 46  2  0  0  0
 45112  1  0  0  0
 46113  1  0  0  0
 47114  1  0  0  0
 47115  1  0  0  0
 48 56  1  0  0  0
 48 65  1  0  0  0
 48116  1  0  0  0
 49 50  1  0  0  0
 49 53  1  0  0  0
 49 64  1  0  0  0
 49117  1  0  0  0
 50 51  1  0  0  0
 50118  1  0  0  0
 50119  1  0  0  0
 51 52  1  0  0  0
 51120  1  0  0  0
 51121  1  0  0  0
 52122  1  0  0  0
 52123  1  0  0  0
 53 54  1  0  0  0
 54 55  2  0  0  0
 54124  1  0  0  0
 55 57  1  0  0  0
 55125  1  0  0  0
 56 69  2  0  0  0
 57 58  2  0  0  0
 57126  1  0  0  0
 58127  1  0  0  0
 59 60  1  0  0  0
 59 61  1  0  0  0
 59 62  1  0  0  0
 60128  1  0  0  0
 60129  1  0  0  0
 60130  1  0  0  0
 61131  1  0  0  0
 61132  1  0  0  0
 61133  1  0  0  0
 62134  1  0  0  0
 62135  1  0  0  0
 62136  1  0  0  0
 63 65  1  0  0  0
 63137  1  0  0  0
 63138  1  0  0  0
 63139  1  0  0  0
 64140  1  0  0  0
 65141  1  0  0  0
 68 79  1  0  0  0
 71 72  2  0  0  0
 71 74  1  0  0  0
 71142  1  0  0  0
 72 81  1  0  0  0
 72143  1  0  0  0
 73 74  2  0  0  0
 73 81  1  0  0  0
 73144  1  0  0  0
 74 76  1  0  0  0
 75145  1  0  0  0
 75146  1  0  0  0
 75147  1  0  0  0
 75 80  1  0  0  0
 76 82  1  0  0  0
 76148  1  0  0  0
 76149  1  0  0  0
 77 78  1  0  0  0
 77 80  1  0  0  0
 77150  1  0  0  0
 77151  1  0  0  0
 78 81  1  0  0  0
 78152  1  0  0  0
 78153  1  0  0  0
 79 80  1  0  0  0
 79154  1  0  0  0
 79155  1  0  0  0
 80156  1  0  0  0
 82157  1  0  0  0
M  ISO  4   1 100  68 101  79 101  82 100
M  END
> <chiral flag>
0

> <version>
0

> <s_m_source_file>
/data/baiqing/PycharmProjects/Reinvent-master-3.2/result/LINK_invent/BTK/process_docking_weight1_custom_sum_contain_oxygen_bond_distance_aromatic_linkinvent_7_9_3/rearranged_h_0093.sdf

> <i_m_source_file_index>
19

> <r_mmod_Potential_Energy-OPLS-2005>
-93.8403625488281

> <r_mmod_Stretch_Energy-OPLS-2005>
48.5411338806152

> <r_mmod_Bend_Energy-OPLS-2005>
115.24430847168

> <r_mmod_Torsional_Energy-OPLS-2005>
204.735275268555

> <r_mmod_Improper_Torsional_Energy-OPLS-2005>
2.23037385940552

> <r_mmod_Van_der_Waal_Energy-OPLS-2005>
129.5615234375

> <r_mmod_Electrostatic_Energy-OPLS-2005>
-401.546203613281

> <r_mmod_Solvation_Energy-OPLS-2005>
-211.104537963867

> <b_mmod_Minimization_Converged-OPLS-2005>
0

> <r_mmod_RMS_Derivative-OPLS-2005>
3.53059816360474

$$$$
19
                    3D
 Structure written by MMmdl.
171179  0  0  1  0            999 V2000
  -30.5562  -14.7909   20.4461 C   0  0  0  0  0  0
  -30.4480  -12.4902   19.4461 C   0  0  0  0  0  0
  -29.5106  -12.5059   18.2184 C   0  0  0  0  0  0
  -28.0365  -12.3207   18.6388 C   0  0  0  0  0  0
  -27.6352  -13.2247   19.8338 C   0  0  2  0  0  0
  -28.6862  -13.1674   20.9601 C   0  0  0  0  0  0
  -25.2502  -13.8179   20.5683 C   0  0  0  0  0  0
  -24.1800  -13.0429   20.9218 C   0  0  0  0  0  0
  -24.6389  -11.6907   20.8750 C   0  0  0  0  0  0
  -23.9064  -10.4290   21.0409 C   0  0  0  0  0  0
  -24.3616   -9.4211   21.9187 C   0  0  0  0  0  0
  -23.6290   -8.2245   22.0757 C   0  0  0  0  0  0
  -22.4272   -8.0281   21.3548 C   0  0  0  0  0  0
  -21.9911   -9.0255   20.4649 C   0  0  0  0  0  0
  -22.7237  -10.2133   20.3056 C   0  0  0  0  0  0
  -21.6848   -6.0738   22.5284 C   0  0  0  0  0  0
  -21.4016   -6.5643   23.8218 C   0  0  0  0  0  0
  -21.3656   -5.6794   24.9178 C   0  0  0  0  0  0
  -21.6041   -4.3057   24.7228 C   0  0  0  0  0  0
  -21.8815   -3.8150   23.4348 C   0  0  0  0  0  0
  -21.9198   -4.6968   22.3407 C   0  0  0  0  0  0
  -22.7822  -13.5222   21.1878 C   0  0  0  0  0  0
  -22.1661   -4.2152   21.0983 F   0  0  0  0  0  0
  -21.5627   -3.4539   25.7741 F   0  0  0  0  0  0
  -29.9727  -13.5470   20.3626 N   0  0  0  0  0  0
  -26.2905  -12.9363   20.3200 N   0  0  0  0  0  0
  -25.9306  -11.6517   20.5710 N   0  0  0  0  0  0
  -22.0461  -12.8213   22.0428 N   0  0  0  0  0  0
  -25.4178  -15.1910   20.4109 N   0  0  0  0  0  0
  -31.7725  -14.9147   20.2871 O   0  0  0  0  0  0
  -21.6636   -6.8880   21.4243 O   0  0  0  0  0  0
  -22.3510  -14.5524   20.6714 O   0  0  0  0  0  0
  -24.6322  -31.8509   23.1938 C   0  0  0  0  0  0
  -25.9125  -32.4730   23.8308 C   0  0  1  0  0  0
  -27.2237  -27.2273   20.1544 C   0  0  0  0  0  0
  -25.5915  -33.8534   24.2228 N   0  0  0  0  0  0
  -23.4322  -30.4713   21.5354 C   0  0  2  0  0  0
  -24.8803  -28.8963   20.1275 C   0  0  0  0  0  0
  -22.7516  -29.4582   22.4887 C   0  0  0  0  0  0
  -18.0309  -28.1394   22.8490 C   0  0  0  0  0  0
  -24.1491  -36.7277   23.2646 C   0  0  0  0  0  0
  -25.9799  -30.7529   21.3769 C   0  0  0  0  0  0
  -26.0529  -29.3643   20.7375 C   0  0  0  0  0  0
  -27.2296  -28.5438   20.7356 C   0  0  0  0  0  0
  -26.0288  -26.8210   19.5321 C   0  0  0  0  0  0
  -24.8724  -27.6310   19.5171 C   0  0  0  0  0  0
  -23.6563  -29.7943   20.1565 C   0  0  0  0  0  0
  -25.4114  -36.3050   24.0328 C   0  0  1  0  0  0
  -20.5911  -28.3687   23.1264 C   0  0  2  0  0  0
  -20.6787  -26.9398   22.5403 C   0  0  0  0  0  0
  -19.5754  -26.6373   21.5220 C   0  0  0  0  0  0
  -18.1938  -26.7938   22.1630 C   0  0  0  0  0  0
  -19.1560  -28.8861   23.2877 C   0  0  0  0  0  0
  -18.9483  -30.1472   23.8887 C   0  0  0  0  0  0
  -17.6476  -30.6590   24.0558 C   0  0  0  0  0  0
  -25.9048  -34.9425   23.5082 C   0  0  0  0  0  0
  -16.5373  -29.9073   23.6330 C   0  0  0  0  0  0
  -16.7292  -28.6495   23.0341 C   0  0  0  0  0  0
  -26.4493  -31.6571   25.0704 C   0  0  0  0  0  0
  -25.3720  -31.3735   26.1424 C   0  0  0  0  0  0
  -27.0341  -30.2990   24.6197 C   0  0  0  0  0  0
  -27.6036  -32.4315   25.7488 C   0  0  0  0  0  0
  -27.5574  -37.1800   24.8469 C   0  0  0  0  0  0
  -21.4220  -29.3037   22.3650 N   0  0  0  0  0  0
  -26.4282  -37.3753   23.9412 N   0  0  0  0  0  0
  -24.7008  -31.0463   22.0916 N   0  0  0  0  0  0
  -23.4214  -28.8129   23.2992 O   0  0  0  0  0  0
  -28.3482  -26.3849   19.9967 O   0  0  0  0  0  0
  -26.5640  -34.8906   22.4662 O   0  0  0  0  0  0
  -23.5460  -32.1329   23.7215 O   0  0  0  0  0  0
  -26.8082  -23.4312   20.8657 C   0  0  0  0  0  0
  -28.9497  -22.4704   20.2716 C   0  0  0  0  0  0
  -28.1555  -23.6704   20.5579 C   0  0  0  0  0  0
  -26.2739  -22.1276   20.9540 C   0  0  0  0  0  0
  -28.4396  -21.0965   20.3263 C   0  0  0  0  0  0
  -27.0719  -20.9683   20.7182 C   0  0  0  0  0  0
  -24.8012  -22.0170   21.3236 C   0  0  0  0  0  0
  -26.5023  -19.0862   22.3365 C   0  0  0  0  0  0
  -30.2112  -25.1930   20.9045 C   0  0  0  0  0  0
  -31.3622  -18.3995   19.6506 C   0  0  0  0  0  0
  -30.7071  -19.5024   21.7859 C   0  0  0  0  0  0
  -29.2088  -19.7848   19.7696 C   0  0  0  0  0  0
  -26.4278  -19.5856   20.8879 C   0  0  0  0  0  0
  -29.6760  -17.2577   21.1485 C   0  0  0  0  0  0
  -28.6796  -25.1711   20.8229 C   0  0  1  0  0  0
  -30.1687  -18.7182   20.5737 C   0  0  0  0  0  0
  -29.6943  -15.8862   20.4528 N   0  0  0  0  0  0
  -31.4800  -12.6601   19.1338 H   0  0  0  0  0  0
  -30.4334  -11.5181   19.9391 H   0  0  0  0  0  0
  -29.8005  -11.7275   17.5116 H   0  0  0  0  0  0
  -29.6215  -13.4530   17.6880 H   0  0  0  0  0  0
  -27.9017  -11.2725   18.9082 H   0  0  0  0  0  0
  -27.3771  -12.5026   17.7893 H   0  0  0  0  0  0
  -27.6203  -14.2415   19.4427 H   0  0  0  0  0  0
  -28.7410  -12.1681   21.3940 H   0  0  0  0  0  0
  -28.4177  -13.8438   21.7735 H   0  0  0  0  0  0
  -25.2761   -9.5687   22.4753 H   0  0  0  0  0  0
  -24.0005   -7.4637   22.7470 H   0  0  0  0  0  0
  -21.0845   -8.8764   19.8950 H   0  0  0  0  0  0
  -22.3695  -10.9666   19.6160 H   0  0  0  0  0  0
  -21.2001   -7.6151   23.9724 H   0  0  0  0  0  0
  -21.1479   -6.0523   25.9082 H   0  0  0  0  0  0
  -22.0596   -2.7612   23.2847 H   0  0  0  0  0  0
  -22.4076  -11.9883   22.4826 H   0  0  0  0  0  0
  -21.1069  -13.1227   22.2611 H   0  0  0  0  0  0
  -24.6422  -15.8351   20.5215 H   0  0  0  0  0  0
  -26.2524  -15.6384   20.0580 H   0  0  0  0  0  0
  -26.7190  -32.5366   23.1045 H   0  0  0  0  0  0
  -25.0064  -33.9674   25.0375 H   0  0  0  0  0  0
  -22.7310  -31.2939   21.3797 H   0  0  0  0  0  0
  -23.3745  -35.9615   23.3293 H   0  0  0  0  0  0
  -24.3597  -36.8914   22.2067 H   0  0  0  0  0  0
  -23.7256  -37.6478   23.6678 H   0  0  0  0  0  0
  -26.1200  -31.5024   20.5966 H   0  0  0  0  0  0
  -26.8577  -30.8123   22.0087 H   0  0  0  0  0  0
  -28.1406  -28.9129   21.1853 H   0  0  0  0  0  0
  -25.9959  -25.8593   19.0394 H   0  0  0  0  0  0
  -23.9767  -27.2674   19.0321 H   0  0  0  0  0  0
  -23.7920  -30.5621   19.3943 H   0  0  0  0  0  0
  -22.7731  -29.2317   19.8482 H   0  0  0  0  0  0
  -25.1309  -36.1883   25.0819 H   0  0  0  0  0  0
  -21.0037  -28.3258   24.1365 H   0  0  0  0  0  0
  -20.5684  -26.2301   23.3612 H   0  0  0  0  0  0
  -21.6660  -26.7404   22.1206 H   0  0  0  0  0  0
  -19.6901  -25.6278   21.1247 H   0  0  0  0  0  0
  -19.6691  -27.3186   20.6757 H   0  0  0  0  0  0
  -17.4213  -26.6696   21.4022 H   0  0  0  0  0  0
  -18.0316  -26.0096   22.9041 H   0  0  0  0  0  0
  -19.7962  -30.7300   24.2230 H   0  0  0  0  0  0
  -17.5025  -31.6261   24.5170 H   0  0  0  0  0  0
  -15.5366  -30.2968   23.7652 H   0  0  0  0  0  0
  -15.8706  -28.0813   22.7037 H   0  0  0  0  0  0
  -24.5907  -30.7057   25.7778 H   0  0  0  0  0  0
  -24.8897  -32.2904   26.4820 H   0  0  0  0  0  0
  -25.8043  -30.8955   27.0226 H   0  0  0  0  0  0
  -26.2923  -29.6741   24.1204 H   0  0  0  0  0  0
  -27.4015  -29.7242   25.4715 H   0  0  0  0  0  0
  -27.8803  -30.4279   23.9442 H   0  0  0  0  0  0
  -27.2639  -33.3631   26.2032 H   0  0  0  0  0  0
  -28.3870  -32.6856   25.0329 H   0  0  0  0  0  0
  -28.0672  -31.8458   26.5439 H   0  0  0  0  0  0
  -28.2587  -38.0105   24.7511 H   0  0  0  0  0  0
  -28.1079  -36.2633   24.6292 H   0  0  0  0  0  0
  -27.2307  -37.1461   25.8880 H   0  0  0  0  0  0
  -20.9385  -29.8787   21.6893 H   0  0  0  0  0  0
  -26.0148  -38.2818   24.1417 H   0  0  0  0  0  0
  -26.1816  -24.2785   21.1085 H   0  0  0  0  0  0
  -29.9886  -22.6019   20.0045 H   0  0  0  0  0  0
  -24.3669  -22.9934   21.5403 H   0  0  0  0  0  0
  -24.6592  -21.4032   22.2116 H   0  0  0  0  0  0
  -24.2269  -21.5864   20.5027 H   0  0  0  0  0  0
  -26.0772  -18.0859   22.4207 H   0  0  0  0  0  0
  -25.9526  -19.7355   23.0156 H   0  0  0  0  0  0
  -27.5324  -19.0462   22.6884 H   0  0  0  0  0  0
  -30.5746  -26.1747   21.2079 H   0  0  0  0  0  0
  -30.5782  -24.4690   21.6329 H   0  0  0  0  0  0
  -30.6593  -24.9601   19.9380 H   0  0  0  0  0  0
  -31.8948  -19.2991   19.3400 H   0  0  0  0  0  0
  -31.0277  -17.8857   18.7488 H   0  0  0  0  0  0
  -32.0919  -17.7548   20.1419 H   0  0  0  0  0  0
  -31.1292  -20.4615   21.4848 H   0  0  0  0  0  0
  -31.4961  -18.9593   22.3072 H   0  0  0  0  0  0
  -29.9176  -19.7079   22.5088 H   0  0  0  0  0  0
  -29.8641  -20.2607   19.0394 H   0  0  0  0  0  0
  -28.5559  -19.2231   19.1063 H   0  0  0  0  0  0
  -26.8660  -18.8308   20.2426 H   0  0  0  0  0  0
  -25.3889  -19.6120   20.5621 H   0  0  0  0  0  0
  -28.6555  -17.3842   21.5072 H   0  0  0  0  0  0
  -30.2395  -17.0637   22.0625 H   0  0  0  0  0  0
  -28.3187  -25.4101   21.8246 H   0  0  0  0  0  0
  -28.7583  -15.5796   20.2393 H   0  0  0  0  0  0
  1 25  1  0  0  0
  1 30  2  0  0  0
  1 87  1  0  0  0
  2  3  1  0  0  0
  2 25  1  0  0  0
  2 88  1  0  0  0
  2 89  1  0  0  0
  3  4  1  0  0  0
  3 90  1  0  0  0
  3 91  1  0  0  0
  4  5  1  0  0  0
  4 92  1  0  0  0
  4 93  1  0  0  0
  5  6  1  0  0  0
  5 26  1  0  0  0
  5 94  1  0  0  0
  6 25  1  0  0  0
  6 95  1  0  0  0
  6 96  1  0  0  0
  7  8  2  0  0  0
  7 26  1  0  0  0
  7 29  1  0  0  0
  8  9  1  0  0  0
  8 22  1  0  0  0
  9 10  1  0  0  0
  9 27  2  0  0  0
 10 11  2  0  0  0
 10 15  1  0  0  0
 11 12  1  0  0  0
 11 97  1  0  0  0
 12 13  2  0  0  0
 12 98  1  0  0  0
 13 14  1  0  0  0
 13 31  1  0  0  0
 14 15  2  0  0  0
 14 99  1  0  0  0
 15100  1  0  0  0
 16 17  2  0  0  0
 16 21  1  0  0  0
 16 31  1  0  0  0
 17 18  1  0  0  0
 17101  1  0  0  0
 18 19  2  0  0  0
 18102  1  0  0  0
 19 20  1  0  0  0
 19 24  1  0  0  0
 20 21  2  0  0  0
 20103  1  0  0  0
 21 23  1  0  0  0
 22 28  1  0  0  0
 22 32  2  0  0  0
 26 27  1  0  0  0
 28104  1  0  0  0
 28105  1  0  0  0
 29106  1  0  0  0
 29107  1  0  0  0
 33 34  1  0  0  0
 33 66  1  0  0  0
 33 70  2  0  0  0
 34 36  1  0  0  0
 34 59  1  0  0  0
 34108  1  0  0  0
 35 44  2  0  0  0
 35 45  1  0  0  0
 35 68  1  0  0  0
 36 56  1  0  0  0
 36109  1  0  0  0
 37 39  1  0  0  0
 37 47  1  0  0  0
 37 66  1  0  0  0
 37110  1  0  0  0
 38 43  2  0  0  0
 38 46  1  0  0  0
 38 47  1  0  0  0
 39 64  1  0  0  0
 39 67  2  0  0  0
 40 52  1  0  0  0
 40 53  2  0  0  0
 40 58  1  0  0  0
 41111  1  0  0  0
 41112  1  0  0  0
 41113  1  0  0  0
 41 48  1  0  0  0
 42 43  1  0  0  0
 42 66  1  0  0  0
 42114  1  0  0  0
 42115  1  0  0  0
 43 44  1  0  0  0
 44116  1  0  0  0
 45 46  2  0  0  0
 45117  1  0  0  0
 46118  1  0  0  0
 47119  1  0  0  0
 47120  1  0  0  0
 48 56  1  0  0  0
 48 65  1  0  0  0
 48121  1  0  0  0
 49 50  1  0  0  0
 49 53  1  0  0  0
 49 64  1  0  0  0
 49122  1  0  0  0
 50 51  1  0  0  0
 50123  1  0  0  0
 50124  1  0  0  0
 51 52  1  0  0  0
 51125  1  0  0  0
 51126  1  0  0  0
 52127  1  0  0  0
 52128  1  0  0  0
 53 54  1  0  0  0
 54 55  2  0  0  0
 54129  1  0  0  0
 55 57  1  0  0  0
 55130  1  0  0  0
 56 69  2  0  0  0
 57 58  2  0  0  0
 57131  1  0  0  0
 58132  1  0  0  0
 59 60  1  0  0  0
 59 61  1  0  0  0
 59 62  1  0  0  0
 60133  1  0  0  0
 60134  1  0  0  0
 60135  1  0  0  0
 61136  1  0  0  0
 61137  1  0  0  0
 61138  1  0  0  0
 62139  1  0  0  0
 62140  1  0  0  0
 62141  1  0  0  0
 63 65  1  0  0  0
 63142  1  0  0  0
 63143  1  0  0  0
 63144  1  0  0  0
 64145  1  0  0  0
 65146  1  0  0  0
 68 85  1  0  0  0
 71 73  2  0  0  0
 71 74  1  0  0  0
 71147  1  0  0  0
 72 73  1  0  0  0
 72 75  2  0  0  0
 72148  1  0  0  0
 73 85  1  0  0  0
 74 76  2  0  0  0
 74 77  1  0  0  0
 75 76  1  0  0  0
 75 82  1  0  0  0
 76 83  1  0  0  0
 77149  1  0  0  0
 77150  1  0  0  0
 77151  1  0  0  0
 78 83  1  0  0  0
 78152  1  0  0  0
 78153  1  0  0  0
 78154  1  0  0  0
 79155  1  0  0  0
 79156  1  0  0  0
 79157  1  0  0  0
 79 85  1  0  0  0
 80158  1  0  0  0
 80159  1  0  0  0
 80160  1  0  0  0
 80 86  1  0  0  0
 81 86  1  0  0  0
 81161  1  0  0  0
 81162  1  0  0  0
 81163  1  0  0  0
 82 86  1  0  0  0
 82164  1  0  0  0
 82165  1  0  0  0
 83166  1  0  0  0
 83167  1  0  0  0
 84 86  1  0  0  0
 84 87  1  0  0  0
 84168  1  0  0  0
 84169  1  0  0  0
 85170  1  0  0  0
 87171  1  0  0  0
M  ISO  4   1 100  68 101  85 101  87 100
M  END
> <chiral flag>
0

> <version>
0

> <s_m_source_file>
/data/baiqing/PycharmProjects/Reinvent-master-3.2/result/LINK_invent/BTK/process_docking_weight1_custom_sum_contain_oxygen_bond_distance_aromatic_linkinvent_7_9_3/rearranged_h_0093.sdf

> <i_m_source_file_index>
20

> <r_mmod_Potential_Energy-OPLS-2005>
342.70361328125

> <r_mmod_Stretch_Energy-OPLS-2005>
155.624008178711

> <r_mmod_Bend_Energy-OPLS-2005>
274.221771240234

> <r_mmod_Torsional_Energy-OPLS-2005>
290.271270751953

> <r_mmod_Improper_Torsional_Energy-OPLS-2005>
10.7417793273926

> <r_mmod_Van_der_Waal_Energy-OPLS-2005>
126.64249420166

> <r_mmod_Electrostatic_Energy-OPLS-2005>
-424.634490966797

> <r_mmod_Solvation_Energy-OPLS-2005>
-195.295669555664

> <b_mmod_Minimization_Converged-OPLS-2005>
0

> <r_mmod_RMS_Derivative-OPLS-2005>
1.95069003105164

$$$$
20
                    3D
 Structure written by MMmdl.
162170  0  0  1  0            999 V2000
  -30.6455  -14.5450   20.5290 C   0  0  0  0  0  0
  -30.4407  -12.3389   19.4338 C   0  0  0  0  0  0
  -29.5002  -12.4941   18.2164 C   0  0  0  0  0  0
  -28.0238  -12.3482   18.6362 C   0  0  0  0  0  0
  -27.6653  -13.1987   19.8821 C   0  0  2  0  0  0
  -28.7113  -12.9938   21.0038 C   0  0  0  0  0  0
  -25.2649  -13.8146   20.5725 C   0  0  0  0  0  0
  -24.1865  -13.0440   20.9206 C   0  0  0  0  0  0
  -24.6379  -11.6909   20.8736 C   0  0  0  0  0  0
  -23.9012  -10.4309   21.0402 C   0  0  0  0  0  0
  -24.3573   -9.4231   21.9182 C   0  0  0  0  0  0
  -23.6280   -8.2247   22.0748 C   0  0  0  0  0  0
  -22.4266   -8.0274   21.3531 C   0  0  0  0  0  0
  -21.9876   -9.0233   20.4632 C   0  0  0  0  0  0
  -22.7181  -10.2133   20.3060 C   0  0  0  0  0  0
  -21.6861   -6.0731   22.5279 C   0  0  0  0  0  0
  -21.4005   -6.5635   23.8204 C   0  0  0  0  0  0
  -21.3658   -5.6794   24.9175 C   0  0  0  0  0  0
  -21.6052   -4.3056   24.7227 C   0  0  0  0  0  0
  -21.8826   -3.8148   23.4349 C   0  0  0  0  0  0
  -21.9202   -4.6960   22.3407 C   0  0  0  0  0  0
  -22.7895  -13.5252   21.1884 C   0  0  0  0  0  0
  -22.1682   -4.2157   21.0987 F   0  0  0  0  0  0
  -21.5630   -3.4539   25.7741 F   0  0  0  0  0  0
  -30.0362  -13.3263   20.4513 N   0  0  0  0  0  0
  -26.3056  -12.9273   20.3429 N   0  0  0  0  0  0
  -25.9314  -11.6449   20.5792 N   0  0  0  0  0  0
  -22.0530  -12.8194   22.0415 N   0  0  0  0  0  0
  -25.4468  -15.1849   20.4139 N   0  0  0  0  0  0
  -31.7709  -14.7593   20.0715 O   0  0  0  0  0  0
  -21.6647   -6.8866   21.4239 O   0  0  0  0  0  0
  -22.3581  -14.5570   20.6780 O   0  0  0  0  0  0
  -24.6189  -31.8640   23.2080 C   0  0  0  0  0  0
  -25.9064  -32.4796   23.8376 C   0  0  1  0  0  0
  -27.2200  -27.3669   20.1258 C   0  0  0  0  0  0
  -25.5910  -33.8599   24.2301 N   0  0  0  0  0  0
  -23.4095  -30.4874   21.5511 C   0  0  2  0  0  0
  -24.8577  -28.9541   20.1072 C   0  0  0  0  0  0
  -22.7424  -29.4626   22.4979 C   0  0  0  0  0  0
  -18.0278  -28.1355   22.8487 C   0  0  0  0  0  0
  -24.1483  -36.7309   23.2637 C   0  0  0  0  0  0
  -25.9444  -30.8081   21.3726 C   0  0  0  0  0  0
  -26.0212  -29.4400   20.7172 C   0  0  0  0  0  0
  -27.2060  -28.6546   20.7251 C   0  0  0  0  0  0
  -26.0486  -26.9296   19.4682 C   0  0  0  0  0  0
  -24.8710  -27.7010   19.4711 C   0  0  0  0  0  0
  -23.6205  -29.8260   20.1633 C   0  0  0  0  0  0
  -25.4103  -36.3096   24.0331 C   0  0  1  0  0  0
  -20.5870  -28.3651   23.1310 C   0  0  2  0  0  0
  -20.6784  -26.9388   22.5416 C   0  0  0  0  0  0
  -19.5769  -26.6373   21.5205 C   0  0  0  0  0  0
  -18.1938  -26.7901   22.1610 C   0  0  0  0  0  0
  -19.1532  -28.8814   23.2891 C   0  0  0  0  0  0
  -18.9458  -30.1422   23.8907 C   0  0  0  0  0  0
  -17.6468  -30.6573   24.0552 C   0  0  0  0  0  0
  -25.9045  -34.9463   23.5114 C   0  0  0  0  0  0
  -16.5354  -29.9074   23.6328 C   0  0  0  0  0  0
  -16.7272  -28.6481   23.0356 C   0  0  0  0  0  0
  -26.4501  -31.6577   25.0710 C   0  0  0  0  0  0
  -25.3763  -31.3688   26.1465 C   0  0  0  0  0  0
  -27.0346  -30.3023   24.6088 C   0  0  0  0  0  0
  -27.6075  -32.4291   25.7485 C   0  0  0  0  0  0
  -27.5577  -37.1799   24.8462 C   0  0  0  0  0  0
  -21.4145  -29.3014   22.3716 N   0  0  0  0  0  0
  -26.4293  -37.3784   23.9405 N   0  0  0  0  0  0
  -24.6763  -31.0673   22.1020 N   0  0  0  0  0  0
  -23.4172  -28.8166   23.3037 O   0  0  0  0  0  0
  -28.3209  -26.5148   20.2040 O   0  0  0  0  0  0
  -26.5614  -34.8928   22.4682 O   0  0  0  0  0  0
  -23.5374  -32.1438   23.7444 O   0  0  0  0  0  0
  -29.6287  -20.4842   20.6771 C   0  0  0  0  0  0
  -28.9226  -21.3373   21.5094 C   0  0  0  0  0  0
  -28.8517  -20.5704   22.7210 C   0  0  0  0  0  0
  -29.1725  -20.9260   25.1957 C   0  0  0  0  0  0
  -26.9909  -19.9301   24.3033 C   0  0  0  0  0  0
  -28.2017  -22.6883   21.2471 C   0  0  0  0  0  0
  -28.9574  -23.9898   20.7712 C   0  0  0  0  0  0
  -30.6369  -18.0653   20.9699 C   0  0  0  0  0  0
  -29.7433  -16.9320   20.3657 C   0  0  0  0  0  0
  -28.0386  -25.2685   20.9212 C   0  0  0  0  0  0
  -28.1650  -20.8897   24.0335 C   0  0  0  0  0  0
  -29.4494  -19.3872   22.6221 N   0  0  0  0  0  0
  -29.9174  -19.3027   21.3656 N   0  0  0  0  0  0
  -29.8402  -15.5552   20.9295 N   0  0  0  0  0  0
  -31.4782  -12.4695   19.1211 H   0  0  0  0  0  0
  -30.3792  -11.3294   19.8439 H   0  0  0  0  0  0
  -29.7403  -11.7479   17.4575 H   0  0  0  0  0  0
  -29.6562  -13.4686   17.7501 H   0  0  0  0  0  0
  -27.8438  -11.2920   18.8450 H   0  0  0  0  0  0
  -27.3697  -12.6114   17.8051 H   0  0  0  0  0  0
  -27.7011  -14.2423   19.5736 H   0  0  0  0  0  0
  -28.7066  -11.9573   21.3451 H   0  0  0  0  0  0
  -28.4719  -13.5910   21.8851 H   0  0  0  0  0  0
  -25.2731   -9.5736   22.4732 H   0  0  0  0  0  0
  -24.0046   -7.4630   22.7419 H   0  0  0  0  0  0
  -21.0837   -8.8686   19.8895 H   0  0  0  0  0  0
  -22.3621  -10.9642   19.6159 H   0  0  0  0  0  0
  -21.1973   -7.6142   23.9698 H   0  0  0  0  0  0
  -21.1478   -6.0536   25.9071 H   0  0  0  0  0  0
  -22.0605   -2.7617   23.2848 H   0  0  0  0  0  0
  -22.4190  -11.9852   22.4758 H   0  0  0  0  0  0
  -21.1135  -13.1165   22.2617 H   0  0  0  0  0  0
  -24.6955  -15.8563   20.5262 H   0  0  0  0  0  0
  -26.3056  -15.6043   20.0823 H   0  0  0  0  0  0
  -26.7126  -32.5529   23.1128 H   0  0  0  0  0  0
  -25.0055  -33.9746   25.0445 H   0  0  0  0  0  0
  -22.7011  -31.3064   21.4129 H   0  0  0  0  0  0
  -23.3740  -35.9651   23.3303 H   0  0  0  0  0  0
  -24.3582  -36.8931   22.2054 H   0  0  0  0  0  0
  -23.7236  -37.6513   23.6661 H   0  0  0  0  0  0
  -26.0637  -31.5679   20.5994 H   0  0  0  0  0  0
  -26.8283  -30.8620   21.9948 H   0  0  0  0  0  0
  -28.0937  -29.0078   21.2309 H   0  0  0  0  0  0
  -26.0295  -25.9727   18.9661 H   0  0  0  0  0  0
  -23.9820  -27.3255   18.9820 H   0  0  0  0  0  0
  -23.7357  -30.6077   19.4116 H   0  0  0  0  0  0
  -22.7373  -29.2581   19.8638 H   0  0  0  0  0  0
  -25.1270  -36.1969   25.0824 H   0  0  0  0  0  0
  -20.9961  -28.3232   24.1431 H   0  0  0  0  0  0
  -20.5698  -26.2249   23.3604 H   0  0  0  0  0  0
  -21.6650  -26.7450   22.1200 H   0  0  0  0  0  0
  -19.6954  -25.6290   21.1223 H   0  0  0  0  0  0
  -19.6717  -27.3189   20.6742 H   0  0  0  0  0  0
  -17.4211  -26.6643   21.4006 H   0  0  0  0  0  0
  -18.0345  -26.0029   22.8993 H   0  0  0  0  0  0
  -19.7947  -30.7208   24.2293 H   0  0  0  0  0  0
  -17.5040  -31.6263   24.5124 H   0  0  0  0  0  0
  -15.5360  -30.2978   23.7646 H   0  0  0  0  0  0
  -15.8673  -28.0797   22.7086 H   0  0  0  0  0  0
  -24.5915  -30.7055   25.7809 H   0  0  0  0  0  0
  -24.8979  -32.2846   26.4949 H   0  0  0  0  0  0
  -25.8118  -30.8833   27.0202 H   0  0  0  0  0  0
  -26.2896  -29.6759   24.1172 H   0  0  0  0  0  0
  -27.4163  -29.7282   25.4535 H   0  0  0  0  0  0
  -27.8708  -30.4351   23.9218 H   0  0  0  0  0  0
  -27.2696  -33.3573   26.2112 H   0  0  0  0  0  0
  -28.3886  -32.6872   25.0316 H   0  0  0  0  0  0
  -28.0752  -31.8376   26.5373 H   0  0  0  0  0  0
  -28.2587  -38.0101   24.7516 H   0  0  0  0  0  0
  -28.1071  -36.2630   24.6272 H   0  0  0  0  0  0
  -27.2295  -37.1436   25.8865 H   0  0  0  0  0  0
  -20.9313  -29.8732   21.6937 H   0  0  0  0  0  0
  -26.0182  -38.2864   24.1408 H   0  0  0  0  0  0
  -29.9149  -20.6004   19.6418 H   0  0  0  0  0  0
  -29.9337  -21.6877   25.0221 H   0  0  0  0  0  0
  -29.6842  -19.9703   25.3181 H   0  0  0  0  0  0
  -28.6816  -21.1668   26.1373 H   0  0  0  0  0  0
  -26.2334  -20.0121   23.5240 H   0  0  0  0  0  0
  -26.5057  -20.1556   25.2514 H   0  0  0  0  0  0
  -27.3187  -18.8909   24.3374 H   0  0  0  0  0  0
  -27.6696  -22.9773   22.1508 H   0  0  0  0  0  0
  -27.3930  -22.5133   20.5383 H   0  0  0  0  0  0
  -29.2738  -23.8670   19.7352 H   0  0  0  0  0  0
  -29.8651  -24.1363   21.3595 H   0  0  0  0  0  0
  -31.3960  -18.3429   20.2373 H   0  0  0  0  0  0
  -31.1913  -17.6908   21.8325 H   0  0  0  0  0  0
  -29.9222  -16.8790   19.2910 H   0  0  0  0  0  0
  -28.6985  -17.2295   20.4581 H   0  0  0  0  0  0
  -28.0082  -25.5257   21.9825 H   0  0  0  0  0  0
  -27.0253  -24.9408   20.6947 H   0  0  0  0  0  0
  -27.7337  -21.8873   23.9826 H   0  0  0  0  0  0
  -28.9892  -15.2281   21.3621 H   0  0  0  0  0  0
  1 25  1  0  0  0
  1 30  2  0  0  0
  1 84  1  0  0  0
  2  3  1  0  0  0
  2 25  1  0  0  0
  2 85  1  0  0  0
  2 86  1  0  0  0
  3  4  1  0  0  0
  3 87  1  0  0  0
  3 88  1  0  0  0
  4  5  1  0  0  0
  4 89  1  0  0  0
  4 90  1  0  0  0
  5  6  1  0  0  0
  5 26  1  0  0  0
  5 91  1  0  0  0
  6 25  1  0  0  0
  6 92  1  0  0  0
  6 93  1  0  0  0
  7  8  2  0  0  0
  7 26  1  0  0  0
  7 29  1  0  0  0
  8  9  1  0  0  0
  8 22  1  0  0  0
  9 10  1  0  0  0
  9 27  2  0  0  0
 10 11  2  0  0  0
 10 15  1  0  0  0
 11 12  1  0  0  0
 11 94  1  0  0  0
 12 13  2  0  0  0
 12 95  1  0  0  0
 13 14  1  0  0  0
 13 31  1  0  0  0
 14 15  2  0  0  0
 14 96  1  0  0  0
 15 97  1  0  0  0
 16 17  2  0  0  0
 16 21  1  0  0  0
 16 31  1  0  0  0
 17 18  1  0  0  0
 17 98  1  0  0  0
 18 19  2  0  0  0
 18 99  1  0  0  0
 19 20  1  0  0  0
 19 24  1  0  0  0
 20 21  2  0  0  0
 20100  1  0  0  0
 21 23  1  0  0  0
 22 28  1  0  0  0
 22 32  2  0  0  0
 26 27  1  0  0  0
 28101  1  0  0  0
 28102  1  0  0  0
 29103  1  0  0  0
 29104  1  0  0  0
 33 34  1  0  0  0
 33 66  1  0  0  0
 33 70  2  0  0  0
 34 36  1  0  0  0
 34 59  1  0  0  0
 34105  1  0  0  0
 35 44  2  0  0  0
 35 45  1  0  0  0
 35 68  1  0  0  0
 36 56  1  0  0  0
 36106  1  0  0  0
 37 39  1  0  0  0
 37 47  1  0  0  0
 37 66  1  0  0  0
 37107  1  0  0  0
 38 43  2  0  0  0
 38 46  1  0  0  0
 38 47  1  0  0  0
 39 64  1  0  0  0
 39 67  2  0  0  0
 40 52  1  0  0  0
 40 53  2  0  0  0
 40 58  1  0  0  0
 41108  1  0  0  0
 41109  1  0  0  0
 41110  1  0  0  0
 41 48  1  0  0  0
 42 43  1  0  0  0
 42 66  1  0  0  0
 42111  1  0  0  0
 42112  1  0  0  0
 43 44  1  0  0  0
 44113  1  0  0  0
 45 46  2  0  0  0
 45114  1  0  0  0
 46115  1  0  0  0
 47116  1  0  0  0
 47117  1  0  0  0
 48 56  1  0  0  0
 48 65  1  0  0  0
 48118  1  0  0  0
 49 50  1  0  0  0
 49 53  1  0  0  0
 49 64  1  0  0  0
 49119  1  0  0  0
 50 51  1  0  0  0
 50120  1  0  0  0
 50121  1  0  0  0
 51 52  1  0  0  0
 51122  1  0  0  0
 51123  1  0  0  0
 52124  1  0  0  0
 52125  1  0  0  0
 53 54  1  0  0  0
 54 55  2  0  0  0
 54126  1  0  0  0
 55 57  1  0  0  0
 55127  1  0  0  0
 56 69  2  0  0  0
 57 58  2  0  0  0
 57128  1  0  0  0
 58129  1  0  0  0
 59 60  1  0  0  0
 59 61  1  0  0  0
 59 62  1  0  0  0
 60130  1  0  0  0
 60131  1  0  0  0
 60132  1  0  0  0
 61133  1  0  0  0
 61134  1  0  0  0
 61135  1  0  0  0
 62136  1  0  0  0
 62137  1  0  0  0
 62138  1  0  0  0
 63 65  1  0  0  0
 63139  1  0  0  0
 63140  1  0  0  0
 63141  1  0  0  0
 64142  1  0  0  0
 65143  1  0  0  0
 68 80  1  0  0  0
 71 72  2  0  0  0
 71 83  1  0  0  0
 71144  1  0  0  0
 72 73  1  0  0  0
 72 76  1  0  0  0
 73 81  1  0  0  0
 73 82  2  0  0  0
 74145  1  0  0  0
 74146  1  0  0  0
 74147  1  0  0  0
 74 81  1  0  0  0
 75 81  1  0  0  0
 75148  1  0  0  0
 75149  1  0  0  0
 75150  1  0  0  0
 76 77  1  0  0  0
 76151  1  0  0  0
 76152  1  0  0  0
 77 80  1  0  0  0
 77153  1  0  0  0
 77154  1  0  0  0
 78 79  1  0  0  0
 78 83  1  0  0  0
 78155  1  0  0  0
 78156  1  0  0  0
 79 84  1  0  0  0
 79157  1  0  0  0
 79158  1  0  0  0
 80159  1  0  0  0
 80160  1  0  0  0
 81161  1  0  0  0
 82 83  1  0  0  0
 84162  1  0  0  0
M  ISO  4   1 100  68 101  80 101  84 100
M  END
> <chiral flag>
0

> <version>
0

> <s_m_source_file>
/data/baiqing/PycharmProjects/Reinvent-master-3.2/result/LINK_invent/BTK/process_docking_weight1_custom_sum_contain_oxygen_bond_distance_aromatic_linkinvent_7_9_3/rearranged_h_0093.sdf

> <i_m_source_file_index>
21

> <r_mmod_Potential_Energy-OPLS-2005>
-28.4408321380615

> <r_mmod_Stretch_Energy-OPLS-2005>
55.8671875

> <r_mmod_Bend_Energy-OPLS-2005>
128.379119873047

> <r_mmod_Torsional_Energy-OPLS-2005>
245.77458190918

> <r_mmod_Improper_Torsional_Energy-OPLS-2005>
8.09074401855469

> <r_mmod_Van_der_Waal_Energy-OPLS-2005>
123.244415283203

> <r_mmod_Electrostatic_Energy-OPLS-2005>
-403.302703857422

> <r_mmod_Solvation_Energy-OPLS-2005>
-217.326507568359

> <b_mmod_Minimization_Converged-OPLS-2005>
0

> <r_mmod_RMS_Derivative-OPLS-2005>
3.25337767601013

$$$$
21
                    3D
 Structure written by MMmdl.
166174  0  0  1  0            999 V2000
  -30.7386  -14.4534   20.5102 C   0  0  0  0  0  0
  -30.4094  -12.2818   19.4244 C   0  0  0  0  0  0
  -29.4839  -12.4712   18.2055 C   0  0  0  0  0  0
  -28.0098  -12.3411   18.6296 C   0  0  0  0  0  0
  -27.6577  -13.2064   19.8712 C   0  0  2  0  0  0
  -28.7076  -13.0185   20.9911 C   0  0  0  0  0  0
  -25.2595  -13.8164   20.5735 C   0  0  0  0  0  0
  -24.1838  -13.0446   20.9187 C   0  0  0  0  0  0
  -24.6376  -11.6899   20.8733 C   0  0  0  0  0  0
  -23.9048  -10.4288   21.0382 C   0  0  0  0  0  0
  -24.3596   -9.4205   21.9158 C   0  0  0  0  0  0
  -23.6284   -8.2238   22.0741 C   0  0  0  0  0  0
  -22.4264   -8.0274   21.3541 C   0  0  0  0  0  0
  -21.9889   -9.0238   20.4635 C   0  0  0  0  0  0
  -22.7216  -10.2117   20.3037 C   0  0  0  0  0  0
  -21.6864   -6.0728   22.5272 C   0  0  0  0  0  0
  -21.4024   -6.5640   23.8198 C   0  0  0  0  0  0
  -21.3656   -5.6802   24.9167 C   0  0  0  0  0  0
  -21.6038   -4.3064   24.7234 C   0  0  0  0  0  0
  -21.8819   -3.8144   23.4359 C   0  0  0  0  0  0
  -21.9203   -4.6952   22.3408 C   0  0  0  0  0  0
  -22.7861  -13.5222   21.1860 C   0  0  0  0  0  0
  -22.1681   -4.2132   21.0995 F   0  0  0  0  0  0
  -21.5610   -3.4551   25.7749 F   0  0  0  0  0  0
  -30.0274  -13.3019   20.4108 N   0  0  0  0  0  0
  -26.3027  -12.9331   20.3395 N   0  0  0  0  0  0
  -25.9309  -11.6497   20.5786 N   0  0  0  0  0  0
  -22.0554  -12.8151   22.0415 N   0  0  0  0  0  0
  -25.4380  -15.1879   20.4186 N   0  0  0  0  0  0
  -31.9148  -14.5471   20.1684 O   0  0  0  0  0  0
  -21.6650   -6.8862   21.4231 O   0  0  0  0  0  0
  -22.3531  -14.5561   20.6771 O   0  0  0  0  0  0
  -24.6141  -31.8683   23.2148 C   0  0  0  0  0  0
  -25.9045  -32.4834   23.8417 C   0  0  1  0  0  0
  -27.2082  -27.4273   20.1129 C   0  0  0  0  0  0
  -25.5886  -33.8627   24.2347 N   0  0  0  0  0  0
  -23.4007  -30.4990   21.5529 C   0  0  2  0  0  0
  -24.8438  -28.9683   20.1128 C   0  0  0  0  0  0
  -22.7428  -29.4688   22.4976 C   0  0  0  0  0  0
  -18.0291  -28.1364   22.8536 C   0  0  0  0  0  0
  -24.1474  -36.7339   23.2625 C   0  0  0  0  0  0
  -25.9294  -30.8375   21.3688 C   0  0  0  0  0  0
  -26.0038  -29.4723   20.7148 C   0  0  0  0  0  0
  -27.1932  -28.7083   20.7101 C   0  0  0  0  0  0
  -26.0403  -26.9453   19.4869 C   0  0  0  0  0  0
  -24.8569  -27.7059   19.4955 C   0  0  0  0  0  0
  -23.6071  -29.8370   20.1649 C   0  0  0  0  0  0
  -25.4097  -36.3125   24.0329 C   0  0  1  0  0  0
  -20.5897  -28.3674   23.1354 C   0  0  2  0  0  0
  -20.6827  -26.9367   22.5532 C   0  0  0  0  0  0
  -19.5795  -26.6298   21.5376 C   0  0  0  0  0  0
  -18.1957  -26.7896   22.1734 C   0  0  0  0  0  0
  -19.1542  -28.8834   23.2922 C   0  0  0  0  0  0
  -18.9457  -30.1466   23.8871 C   0  0  0  0  0  0
  -17.6468  -30.6624   24.0520 C   0  0  0  0  0  0
  -25.9017  -34.9479   23.5136 C   0  0  0  0  0  0
  -16.5373  -29.9090   23.6302 C   0  0  0  0  0  0
  -16.7285  -28.6510   23.0354 C   0  0  0  0  0  0
  -26.4469  -31.6605   25.0746 C   0  0  0  0  0  0
  -25.3756  -31.3722   26.1517 C   0  0  0  0  0  0
  -27.0297  -30.3033   24.6156 C   0  0  0  0  0  0
  -27.6036  -32.4326   25.7531 C   0  0  0  0  0  0
  -27.5588  -37.1826   24.8463 C   0  0  0  0  0  0
  -21.4142  -29.3056   22.3750 N   0  0  0  0  0  0
  -26.4304  -37.3811   23.9390 N   0  0  0  0  0  0
  -24.6669  -31.0817   22.1034 N   0  0  0  0  0  0
  -23.4224  -28.8211   23.2964 O   0  0  0  0  0  0
  -28.3433  -26.6512   20.1461 O   0  0  0  0  0  0
  -26.5587  -34.8932   22.4701 O   0  0  0  0  0  0
  -23.5333  -32.1394   23.7548 O   0  0  0  0  0  0
  -29.1056  -18.3827   19.9718 C   0  0  0  0  0  0
  -28.5637  -18.5951   22.2724 C   0  0  0  0  0  0
  -29.0129  -17.7672   21.2295 C   0  0  0  0  0  0
  -28.2458  -20.3332   20.8085 C   0  0  0  0  0  0
  -22.4454  -22.3849   19.3300 C   0  0  0  0  0  0
  -29.2982  -16.2800   21.4824 C   0  0  0  0  0  0
  -23.5090  -21.6862   20.1849 C   0  0  0  0  0  0
  -24.9371  -22.2330   19.9922 C   0  0  0  0  0  0
  -27.8714  -24.2013   20.3108 C   0  0  0  0  0  0
  -25.9671  -21.3734   20.7532 C   0  0  0  0  0  0
  -28.0730  -22.9033   21.1426 C   0  0  0  0  0  0
  -28.2669  -25.5128   21.0280 C   0  0  0  0  0  0
  -27.4768  -21.6255   20.4848 C   0  0  2  0  0  0
  -28.7221  -19.6558   19.7696 N   0  0  0  0  0  0
  -28.1873  -19.8735   22.0569 N   0  0  0  0  0  0
  -30.0351  -15.5939   20.4175 N   0  0  0  0  0  0
  -31.4549  -12.3590   19.1207 H   0  0  0  0  0  0
  -30.2954  -11.2824   19.8500 H   0  0  0  0  0  0
  -29.7184  -11.7339   17.4348 H   0  0  0  0  0  0
  -29.6487  -13.4519   17.7560 H   0  0  0  0  0  0
  -27.8333  -11.2886   18.8567 H   0  0  0  0  0  0
  -27.3493  -12.5873   17.7976 H   0  0  0  0  0  0
  -27.6938  -14.2464   19.5472 H   0  0  0  0  0  0
  -28.6842  -11.9939   21.3648 H   0  0  0  0  0  0
  -28.4976  -13.6525   21.8510 H   0  0  0  0  0  0
  -25.2730   -9.5700   22.4734 H   0  0  0  0  0  0
  -24.0016   -7.4629   22.7434 H   0  0  0  0  0  0
  -21.0830   -8.8726   19.8934 H   0  0  0  0  0  0
  -22.3643  -10.9650   19.6157 H   0  0  0  0  0  0
  -21.2025   -7.6142   23.9697 H   0  0  0  0  0  0
  -21.1479   -6.0535   25.9063 H   0  0  0  0  0  0
  -22.0603   -2.7608   23.2870 H   0  0  0  0  0  0
  -22.4236  -11.9804   22.4726 H   0  0  0  0  0  0
  -21.1179  -13.1119   22.2708 H   0  0  0  0  0  0
  -24.6880  -15.8568   20.5451 H   0  0  0  0  0  0
  -26.3052  -15.6123   20.1157 H   0  0  0  0  0  0
  -26.7116  -32.5530   23.1174 H   0  0  0  0  0  0
  -25.0002  -33.9779   25.0470 H   0  0  0  0  0  0
  -22.6900  -31.3176   21.4241 H   0  0  0  0  0  0
  -23.3727  -35.9691   23.3305 H   0  0  0  0  0  0
  -24.3566  -36.8942   22.2042 H   0  0  0  0  0  0
  -23.7260  -37.6557   23.6634 H   0  0  0  0  0  0
  -26.0424  -31.6096   20.6050 H   0  0  0  0  0  0
  -26.8175  -30.8828   21.9889 H   0  0  0  0  0  0
  -28.0919  -29.0869   21.1755 H   0  0  0  0  0  0
  -26.0365  -25.9875   18.9886 H   0  0  0  0  0  0
  -23.9626  -27.3166   19.0284 H   0  0  0  0  0  0
  -23.7176  -30.6131   19.4067 H   0  0  0  0  0  0
  -22.7254  -29.2635   19.8699 H   0  0  0  0  0  0
  -25.1283  -36.1981   25.0836 H   0  0  0  0  0  0
  -21.0021  -28.3328   24.1456 H   0  0  0  0  0  0
  -20.5802  -26.2204   23.3730 H   0  0  0  0  0  0
  -21.6694  -26.7449   22.1284 H   0  0  0  0  0  0
  -19.6927  -25.6162   21.1520 H   0  0  0  0  0  0
  -19.6846  -27.3049   20.6875 H   0  0  0  0  0  0
  -17.4242  -26.6700   21.4119 H   0  0  0  0  0  0
  -18.0327  -26.0056   22.9155 H   0  0  0  0  0  0
  -19.7924  -30.7285   24.2225 H   0  0  0  0  0  0
  -17.5035  -31.6326   24.5045 H   0  0  0  0  0  0
  -15.5384  -30.3018   23.7643 H   0  0  0  0  0  0
  -15.8685  -28.0782   22.7115 H   0  0  0  0  0  0
  -24.5872  -30.7136   25.7864 H   0  0  0  0  0  0
  -24.9015  -32.2883   26.5039 H   0  0  0  0  0  0
  -25.8101  -30.8819   27.0237 H   0  0  0  0  0  0
  -26.2845  -29.6805   24.1191 H   0  0  0  0  0  0
  -27.4001  -29.7275   25.4649 H   0  0  0  0  0  0
  -27.8716  -30.4317   23.9354 H   0  0  0  0  0  0
  -27.2618  -33.3572   26.2201 H   0  0  0  0  0  0
  -28.3813  -32.6979   25.0361 H   0  0  0  0  0  0
  -28.0749  -31.8404   26.5385 H   0  0  0  0  0  0
  -28.2622  -38.0111   24.7508 H   0  0  0  0  0  0
  -28.1063  -36.2640   24.6282 H   0  0  0  0  0  0
  -27.2294  -37.1493   25.8868 H   0  0  0  0  0  0
  -20.9277  -29.8830   21.7037 H   0  0  0  0  0  0
  -26.0181  -38.2891   24.1388 H   0  0  0  0  0  0
  -29.4568  -17.8462   19.1025 H   0  0  0  0  0  0
  -28.4525  -18.2080   23.2755 H   0  0  0  0  0  0
  -21.4558  -21.9827   19.5477 H   0  0  0  0  0  0
  -22.6293  -22.2262   18.2671 H   0  0  0  0  0  0
  -22.4147  -23.4592   19.5158 H   0  0  0  0  0  0
  -28.3236  -15.8079   21.6024 H   0  0  0  0  0  0
  -29.8292  -16.1686   22.4303 H   0  0  0  0  0  0
  -23.4784  -20.6205   19.9523 H   0  0  0  0  0  0
  -23.2310  -21.7778   21.2347 H   0  0  0  0  0  0
  -24.9673  -23.2603   20.3492 H   0  0  0  0  0  0
  -25.1841  -22.2493   18.9280 H   0  0  0  0  0  0
  -28.4461  -24.1137   19.3882 H   0  0  0  0  0  0
  -26.8325  -24.2725   20.0094 H   0  0  0  0  0  0
  -25.7718  -20.3418   20.4556 H   0  0  0  0  0  0
  -25.7685  -21.4006   21.8266 H   0  0  0  0  0  0
  -27.6795  -23.0098   22.1540 H   0  0  0  0  0  0
  -29.1485  -22.7586   21.2571 H   0  0  0  0  0  0
  -29.2438  -25.3902   21.4954 H   0  0  0  0  0  0
  -27.5770  -25.6995   21.8534 H   0  0  0  0  0  0
  -27.5859  -21.7617   19.4064 H   0  0  0  0  0  0
  -30.6061  -16.2331   19.8852 H   0  0  0  0  0  0
  1 25  1  0  0  0
  1 30  2  0  0  0
  1 86  1  0  0  0
  2  3  1  0  0  0
  2 25  1  0  0  0
  2 87  1  0  0  0
  2 88  1  0  0  0
  3  4  1  0  0  0
  3 89  1  0  0  0
  3 90  1  0  0  0
  4  5  1  0  0  0
  4 91  1  0  0  0
  4 92  1  0  0  0
  5  6  1  0  0  0
  5 26  1  0  0  0
  5 93  1  0  0  0
  6 25  1  0  0  0
  6 94  1  0  0  0
  6 95  1  0  0  0
  7  8  2  0  0  0
  7 26  1  0  0  0
  7 29  1  0  0  0
  8  9  1  0  0  0
  8 22  1  0  0  0
  9 10  1  0  0  0
  9 27  2  0  0  0
 10 11  2  0  0  0
 10 15  1  0  0  0
 11 12  1  0  0  0
 11 96  1  0  0  0
 12 13  2  0  0  0
 12 97  1  0  0  0
 13 14  1  0  0  0
 13 31  1  0  0  0
 14 15  2  0  0  0
 14 98  1  0  0  0
 15 99  1  0  0  0
 16 17  2  0  0  0
 16 21  1  0  0  0
 16 31  1  0  0  0
 17 18  1  0  0  0
 17100  1  0  0  0
 18 19  2  0  0  0
 18101  1  0  0  0
 19 20  1  0  0  0
 19 24  1  0  0  0
 20 21  2  0  0  0
 20102  1  0  0  0
 21 23  1  0  0  0
 22 28  1  0  0  0
 22 32  2  0  0  0
 26 27  1  0  0  0
 28103  1  0  0  0
 28104  1  0  0  0
 29105  1  0  0  0
 29106  1  0  0  0
 33 34  1  0  0  0
 33 66  1  0  0  0
 33 70  2  0  0  0
 34 36  1  0  0  0
 34 59  1  0  0  0
 34107  1  0  0  0
 35 44  2  0  0  0
 35 45  1  0  0  0
 35 68  1  0  0  0
 36 56  1  0  0  0
 36108  1  0  0  0
 37 39  1  0  0  0
 37 47  1  0  0  0
 37 66  1  0  0  0
 37109  1  0  0  0
 38 43  2  0  0  0
 38 46  1  0  0  0
 38 47  1  0  0  0
 39 64  1  0  0  0
 39 67  2  0  0  0
 40 52  1  0  0  0
 40 53  2  0  0  0
 40 58  1  0  0  0
 41110  1  0  0  0
 41111  1  0  0  0
 41112  1  0  0  0
 41 48  1  0  0  0
 42 43  1  0  0  0
 42 66  1  0  0  0
 42113  1  0  0  0
 42114  1  0  0  0
 43 44  1  0  0  0
 44115  1  0  0  0
 45 46  2  0  0  0
 45116  1  0  0  0
 46117  1  0  0  0
 47118  1  0  0  0
 47119  1  0  0  0
 48 56  1  0  0  0
 48 65  1  0  0  0
 48120  1  0  0  0
 49 50  1  0  0  0
 49 53  1  0  0  0
 49 64  1  0  0  0
 49121  1  0  0  0
 50 51  1  0  0  0
 50122  1  0  0  0
 50123  1  0  0  0
 51 52  1  0  0  0
 51124  1  0  0  0
 51125  1  0  0  0
 52126  1  0  0  0
 52127  1  0  0  0
 53 54  1  0  0  0
 54 55  2  0  0  0
 54128  1  0  0  0
 55 57  1  0  0  0
 55129  1  0  0  0
 56 69  2  0  0  0
 57 58  2  0  0  0
 57130  1  0  0  0
 58131  1  0  0  0
 59 60  1  0  0  0
 59 61  1  0  0  0
 59 62  1  0  0  0
 60132  1  0  0  0
 60133  1  0  0  0
 60134  1  0  0  0
 61135  1  0  0  0
 61136  1  0  0  0
 61137  1  0  0  0
 62138  1  0  0  0
 62139  1  0  0  0
 62140  1  0  0  0
 63 65  1  0  0  0
 63141  1  0  0  0
 63142  1  0  0  0
 63143  1  0  0  0
 64144  1  0  0  0
 65145  1  0  0  0
 68 82  1  0  0  0
 71 73  2  0  0  0
 71 84  1  0  0  0
 71146  1  0  0  0
 72 73  1  0  0  0
 72 85  2  0  0  0
 72147  1  0  0  0
 73 76  1  0  0  0
 74 83  1  0  0  0
 74 84  2  0  0  0
 74 85  1  0  0  0
 75 77  1  0  0  0
 75148  1  0  0  0
 75149  1  0  0  0
 75150  1  0  0  0
 76 86  1  0  0  0
 76151  1  0  0  0
 76152  1  0  0  0
 77 78  1  0  0  0
 77153  1  0  0  0
 77154  1  0  0  0
 78 80  1  0  0  0
 78155  1  0  0  0
 78156  1  0  0  0
 79 81  1  0  0  0
 79 82  1  0  0  0
 79157  1  0  0  0
 79158  1  0  0  0
 80159  1  0  0  0
 80160  1  0  0  0
 80 83  1  0  0  0
 81 83  1  0  0  0
 81161  1  0  0  0
 81162  1  0  0  0
 82163  1  0  0  0
 82164  1  0  0  0
 83165  1  0  0  0
 86166  1  0  0  0
M  ISO  4   1 100  68 101  82 101  86 100
M  END
> <chiral flag>
0

> <version>
0

> <s_m_source_file>
/data/baiqing/PycharmProjects/Reinvent-master-3.2/result/LINK_invent/BTK/process_docking_weight1_custom_sum_contain_oxygen_bond_distance_aromatic_linkinvent_7_9_3/rearranged_h_0093.sdf

> <i_m_source_file_index>
22

> <r_mmod_Potential_Energy-OPLS-2005>
-269.760925292969

> <r_mmod_Stretch_Energy-OPLS-2005>
35.5314521789551

> <r_mmod_Bend_Energy-OPLS-2005>
121.874099731445

> <r_mmod_Torsional_Energy-OPLS-2005>
271.603118896484

> <r_mmod_Improper_Torsional_Energy-OPLS-2005>
24.8084506988525

> <r_mmod_Van_der_Waal_Energy-OPLS-2005>
148.933135986328

> <r_mmod_Electrostatic_Energy-OPLS-2005>
-679.291381835938

> <r_mmod_Solvation_Energy-OPLS-2005>
-214.136901855469

> <b_mmod_Minimization_Converged-OPLS-2005>
0

> <r_mmod_RMS_Derivative-OPLS-2005>
4.46177673339844

$$$$
22
                    3D
 Structure written by MMmdl.
169177  0  0  1  0            999 V2000
  -30.6542  -14.5522   20.5515 C   0  0  0  0  0  0
  -30.4417  -12.3569   19.4147 C   0  0  0  0  0  0
  -29.4937  -12.5026   18.2032 C   0  0  0  0  0  0
  -28.0160  -12.3603   18.6215 C   0  0  0  0  0  0
  -27.6601  -13.2077   19.8705 C   0  0  2  0  0  0
  -28.7107  -13.0037   20.9854 C   0  0  0  0  0  0
  -25.2591  -13.8159   20.5700 C   0  0  0  0  0  0
  -24.1847  -13.0436   20.9194 C   0  0  0  0  0  0
  -24.6406  -11.6905   20.8747 C   0  0  0  0  0  0
  -23.9073  -10.4292   21.0409 C   0  0  0  0  0  0
  -24.3623   -9.4205   21.9184 C   0  0  0  0  0  0
  -23.6298   -8.2242   22.0756 C   0  0  0  0  0  0
  -22.4280   -8.0276   21.3544 C   0  0  0  0  0  0
  -21.9912   -9.0256   20.4650 C   0  0  0  0  0  0
  -22.7244  -10.2136   20.3061 C   0  0  0  0  0  0
  -21.6845   -6.0738   22.5283 C   0  0  0  0  0  0
  -21.4004   -6.5641   23.8213 C   0  0  0  0  0  0
  -21.3652   -5.6793   24.9173 C   0  0  0  0  0  0
  -21.6040   -4.3061   24.7226 C   0  0  0  0  0  0
  -21.8820   -3.8154   23.4346 C   0  0  0  0  0  0
  -21.9194   -4.6967   22.3404 C   0  0  0  0  0  0
  -22.7866  -13.5220   21.1860 C   0  0  0  0  0  0
  -22.1663   -4.2156   21.0981 F   0  0  0  0  0  0
  -21.5630   -3.4543   25.7739 F   0  0  0  0  0  0
  -30.0299  -13.3447   20.4252 N   0  0  0  0  0  0
  -26.3029  -12.9332   20.3372 N   0  0  0  0  0  0
  -25.9334  -11.6493   20.5786 N   0  0  0  0  0  0
  -22.0521  -12.8203   22.0426 N   0  0  0  0  0  0
  -25.4308  -15.1878   20.4127 N   0  0  0  0  0  0
  -31.8011  -14.7578   20.1476 O   0  0  0  0  0  0
  -21.6635   -6.8878   21.4244 O   0  0  0  0  0  0
  -22.3542  -14.5522   20.6713 O   0  0  0  0  0  0
  -24.6178  -31.8636   23.2080 C   0  0  0  0  0  0
  -25.9041  -32.4802   23.8385 C   0  0  1  0  0  0
  -27.2354  -27.3890   20.1065 C   0  0  0  0  0  0
  -25.5871  -33.8603   24.2297 N   0  0  0  0  0  0
  -23.4101  -30.4882   21.5476 C   0  0  2  0  0  0
  -24.8595  -28.9468   20.1150 C   0  0  0  0  0  0
  -22.7444  -29.4645   22.4962 C   0  0  0  0  0  0
  -18.0294  -28.1371   22.8494 C   0  0  0  0  0  0
  -24.1483  -36.7334   23.2643 C   0  0  0  0  0  0
  -25.9446  -30.8153   21.3685 C   0  0  0  0  0  0
  -26.0232  -29.4468   20.7129 C   0  0  0  0  0  0
  -27.2175  -28.6787   20.6994 C   0  0  0  0  0  0
  -26.0534  -26.9154   19.4976 C   0  0  0  0  0  0
  -24.8702  -27.6814   19.5025 C   0  0  0  0  0  0
  -23.6217  -29.8193   20.1635 C   0  0  0  0  0  0
  -25.4107  -36.3103   24.0324 C   0  0  1  0  0  0
  -20.5887  -28.3676   23.1305 C   0  0  2  0  0  0
  -20.6795  -26.9408   22.5421 C   0  0  0  0  0  0
  -19.5762  -26.6380   21.5223 C   0  0  0  0  0  0
  -18.1931  -26.7919   22.1620 C   0  0  0  0  0  0
  -19.1546  -28.8839   23.2890 C   0  0  0  0  0  0
  -18.9464  -30.1438   23.8911 C   0  0  0  0  0  0
  -17.6470  -30.6583   24.0568 C   0  0  0  0  0  0
  -25.9028  -34.9460   23.5115 C   0  0  0  0  0  0
  -16.5359  -29.9086   23.6331 C   0  0  0  0  0  0
  -16.7285  -28.6495   23.0366 C   0  0  0  0  0  0
  -26.4441  -31.6614   25.0745 C   0  0  0  0  0  0
  -25.3710  -31.3714   26.1506 C   0  0  0  0  0  0
  -27.0289  -30.3054   24.6158 C   0  0  0  0  0  0
  -27.5990  -32.4366   25.7520 C   0  0  0  0  0  0
  -27.5583  -37.1810   24.8456 C   0  0  0  0  0  0
  -21.4169  -29.3029   22.3700 N   0  0  0  0  0  0
  -26.4296  -37.3788   23.9399 N   0  0  0  0  0  0
  -24.6753  -31.0705   22.0987 N   0  0  0  0  0  0
  -23.4200  -28.8203   23.3035 O   0  0  0  0  0  0
  -28.3751  -26.5961   20.1017 O   0  0  0  0  0  0
  -26.5624  -34.8908   22.4700 O   0  0  0  0  0  0
  -23.5358  -32.1417   23.7444 O   0  0  0  0  0  0
  -29.7987  -20.3811   20.6647 C   0  0  0  0  0  0
  -29.6756  -19.2609   19.8656 C   0  0  0  0  0  0
  -28.7445  -19.6334   18.8421 C   0  0  0  0  0  0
  -28.3130  -20.9170   19.0816 C   0  0  0  0  0  0
  -27.2914  -21.7186   18.3322 C   0  0  0  0  0  0
  -29.8277  -17.9638   14.1638 C   0  0  0  0  0  0
  -30.3852  -17.8846   19.9636 C   0  0  0  0  0  0
  -28.3008  -18.7549   17.6915 C   0  0  0  0  0  0
  -28.8313  -17.9391   15.3277 C   0  0  0  0  0  0
  -29.2808  -18.8128   16.5086 C   0  0  0  0  0  0
  -28.8785  -24.0604   20.0369 C   0  0  0  0  0  0
  -28.7471  -22.7257   20.8686 C   0  0  0  0  0  0
  -30.0827  -17.0053   21.2187 C   0  0  0  0  0  0
  -28.2566  -25.3047   20.7633 C   0  0  0  0  0  0
  -28.9775  -21.4149   20.1961 N   0  0  0  0  0  0
  -29.8573  -15.5503   20.9993 N   0  0  0  0  0  0
  -31.4771  -12.4964   19.0973 H   0  0  0  0  0  0
  -30.3896  -11.3485   19.8293 H   0  0  0  0  0  0
  -29.7347  -11.7549   17.4465 H   0  0  0  0  0  0
  -29.6455  -13.4744   17.7311 H   0  0  0  0  0  0
  -27.8283  -11.3053   18.8259 H   0  0  0  0  0  0
  -27.3624  -12.6283   17.7907 H   0  0  0  0  0  0
  -27.6948  -14.2523   19.5605 H   0  0  0  0  0  0
  -28.7110  -11.9657   21.3195 H   0  0  0  0  0  0
  -28.4698  -13.5937   21.8705 H   0  0  0  0  0  0
  -25.2767   -9.5670   22.4763 H   0  0  0  0  0  0
  -24.0004   -7.4623   22.7466 H   0  0  0  0  0  0
  -21.0846   -8.8779   19.8953 H   0  0  0  0  0  0
  -22.3703  -10.9683   19.6179 H   0  0  0  0  0  0
  -21.1989   -7.6146   23.9715 H   0  0  0  0  0  0
  -21.1466   -6.0524   25.9072 H   0  0  0  0  0  0
  -22.0605   -2.7620   23.2847 H   0  0  0  0  0  0
  -22.4166  -11.9866   22.4803 H   0  0  0  0  0  0
  -21.1148  -13.1219   22.2675 H   0  0  0  0  0  0
  -24.6662  -15.8429   20.5291 H   0  0  0  0  0  0
  -26.2825  -15.6294   20.0923 H   0  0  0  0  0  0
  -26.7128  -32.5497   23.1160 H   0  0  0  0  0  0
  -24.9955  -33.9759   25.0394 H   0  0  0  0  0  0
  -22.6999  -31.3057   21.4064 H   0  0  0  0  0  0
  -23.3717  -35.9694   23.3304 H   0  0  0  0  0  0
  -24.3571  -36.8978   22.2059 H   0  0  0  0  0  0
  -23.7273  -37.6541   23.6698 H   0  0  0  0  0  0
  -26.0667  -31.5805   20.6008 H   0  0  0  0  0  0
  -26.8282  -30.8654   21.9948 H   0  0  0  0  0  0
  -28.1157  -29.0595   21.1642 H   0  0  0  0  0  0
  -26.0474  -25.9455   19.0208 H   0  0  0  0  0  0
  -23.9771  -27.2913   19.0328 H   0  0  0  0  0  0
  -23.7332  -30.5958   19.4053 H   0  0  0  0  0  0
  -22.7442  -29.2443   19.8661 H   0  0  0  0  0  0
  -25.1283  -36.1961   25.0817 H   0  0  0  0  0  0
  -20.9976  -28.3278   24.1431 H   0  0  0  0  0  0
  -20.5725  -26.2286   23.3621 H   0  0  0  0  0  0
  -21.6653  -26.7483   22.1184 H   0  0  0  0  0  0
  -19.6929  -25.6291   21.1257 H   0  0  0  0  0  0
  -19.6701  -27.3183   20.6746 H   0  0  0  0  0  0
  -17.4210  -26.6678   21.4011 H   0  0  0  0  0  0
  -18.0313  -26.0056   22.9008 H   0  0  0  0  0  0
  -19.7945  -30.7236   24.2302 H   0  0  0  0  0  0
  -17.5032  -31.6270   24.5154 H   0  0  0  0  0  0
  -15.5354  -30.2987   23.7665 H   0  0  0  0  0  0
  -15.8681  -28.0823   22.7093 H   0  0  0  0  0  0
  -24.5874  -30.7071   25.7860 H   0  0  0  0  0  0
  -24.8892  -32.2846   26.5000 H   0  0  0  0  0  0
  -25.8048  -30.8870   27.0260 H   0  0  0  0  0  0
  -26.2834  -29.6785   24.1266 H   0  0  0  0  0  0
  -27.4094  -29.7333   25.4627 H   0  0  0  0  0  0
  -27.8646  -30.4348   23.9281 H   0  0  0  0  0  0
  -27.2584  -33.3661   26.2107 H   0  0  0  0  0  0
  -28.3799  -32.6966   25.0361 H   0  0  0  0  0  0
  -28.0666  -31.8504   26.5446 H   0  0  0  0  0  0
  -28.2588  -38.0118   24.7519 H   0  0  0  0  0  0
  -28.1082  -36.2648   24.6263 H   0  0  0  0  0  0
  -27.2292  -37.1454   25.8853 H   0  0  0  0  0  0
  -20.9351  -29.8749   21.6908 H   0  0  0  0  0  0
  -26.0172  -38.2862   24.1391 H   0  0  0  0  0  0
  -30.3980  -20.5313   21.5550 H   0  0  0  0  0  0
  -27.7642  -22.3110   17.5485 H   0  0  0  0  0  0
  -26.7399  -22.3887   18.9894 H   0  0  0  0  0  0
  -26.5501  -21.0805   17.8548 H   0  0  0  0  0  0
  -29.4750  -17.3497   13.3340 H   0  0  0  0  0  0
  -30.8017  -17.5769   14.4658 H   0  0  0  0  0  0
  -29.9704  -18.9783   13.7892 H   0  0  0  0  0  0
  -31.4607  -18.0618   19.9150 H   0  0  0  0  0  0
  -30.1617  -17.3096   19.0662 H   0  0  0  0  0  0
  -27.3071  -19.0516   17.3592 H   0  0  0  0  0  0
  -28.1918  -17.7293   18.0436 H   0  0  0  0  0  0
  -28.6909  -16.9099   15.6621 H   0  0  0  0  0  0
  -27.8580  -18.2805   14.9720 H   0  0  0  0  0  0
  -30.2698  -18.4963   16.8425 H   0  0  0  0  0  0
  -29.3876  -19.8467   16.1764 H   0  0  0  0  0  0
  -28.3983  -23.9726   19.0664 H   0  0  0  0  0  0
  -29.9315  -24.2461   19.8251 H   0  0  0  0  0  0
  -27.7430  -22.6762   21.2902 H   0  0  0  0  0  0
  -29.4114  -22.7864   21.7317 H   0  0  0  0  0  0
  -29.1668  -17.3776   21.6796 H   0  0  0  0  0  0
  -30.8617  -17.1490   21.9684 H   0  0  0  0  0  0
  -28.7429  -25.4112   21.7331 H   0  0  0  0  0  0
  -27.2162  -25.0741   20.9983 H   0  0  0  0  0  0
  -28.9352  -15.2301   21.2558 H   0  0  0  0  0  0
  1 25  1  0  0  0
  1 30  2  0  0  0
  1 86  1  0  0  0
  2  3  1  0  0  0
  2 25  1  0  0  0
  2 87  1  0  0  0
  2 88  1  0  0  0
  3  4  1  0  0  0
  3 89  1  0  0  0
  3 90  1  0  0  0
  4  5  1  0  0  0
  4 91  1  0  0  0
  4 92  1  0  0  0
  5  6  1  0  0  0
  5 26  1  0  0  0
  5 93  1  0  0  0
  6 25  1  0  0  0
  6 94  1  0  0  0
  6 95  1  0  0  0
  7  8  2  0  0  0
  7 26  1  0  0  0
  7 29  1  0  0  0
  8  9  1  0  0  0
  8 22  1  0  0  0
  9 10  1  0  0  0
  9 27  2  0  0  0
 10 11  2  0  0  0
 10 15  1  0  0  0
 11 12  1  0  0  0
 11 96  1  0  0  0
 12 13  2  0  0  0
 12 97  1  0  0  0
 13 14  1  0  0  0
 13 31  1  0  0  0
 14 15  2  0  0  0
 14 98  1  0  0  0
 15 99  1  0  0  0
 16 17  2  0  0  0
 16 21  1  0  0  0
 16 31  1  0  0  0
 17 18  1  0  0  0
 17100  1  0  0  0
 18 19  2  0  0  0
 18101  1  0  0  0
 19 20  1  0  0  0
 19 24  1  0  0  0
 20 21  2  0  0  0
 20102  1  0  0  0
 21 23  1  0  0  0
 22 28  1  0  0  0
 22 32  2  0  0  0
 26 27  1  0  0  0
 28103  1  0  0  0
 28104  1  0  0  0
 29105  1  0  0  0
 29106  1  0  0  0
 33 34  1  0  0  0
 33 66  1  0  0  0
 33 70  2  0  0  0
 34 36  1  0  0  0
 34 59  1  0  0  0
 34107  1  0  0  0
 35 44  2  0  0  0
 35 45  1  0  0  0
 35 68  1  0  0  0
 36 56  1  0  0  0
 36108  1  0  0  0
 37 39  1  0  0  0
 37 47  1  0  0  0
 37 66  1  0  0  0
 37109  1  0  0  0
 38 43  2  0  0  0
 38 46  1  0  0  0
 38 47  1  0  0  0
 39 64  1  0  0  0
 39 67  2  0  0  0
 40 52  1  0  0  0
 40 53  2  0  0  0
 40 58  1  0  0  0
 41110  1  0  0  0
 41111  1  0  0  0
 41112  1  0  0  0
 41 48  1  0  0  0
 42 43  1  0  0  0
 42 66  1  0  0  0
 42113  1  0  0  0
 42114  1  0  0  0
 43 44  1  0  0  0
 44115  1  0  0  0
 45 46  2  0  0  0
 45116  1  0  0  0
 46117  1  0  0  0
 47118  1  0  0  0
 47119  1  0  0  0
 48 56  1  0  0  0
 48 65  1  0  0  0
 48120  1  0  0  0
 49 50  1  0  0  0
 49 53  1  0  0  0
 49 64  1  0  0  0
 49121  1  0  0  0
 50 51  1  0  0  0
 50122  1  0  0  0
 50123  1  0  0  0
 51 52  1  0  0  0
 51124  1  0  0  0
 51125  1  0  0  0
 52126  1  0  0  0
 52127  1  0  0  0
 53 54  1  0  0  0
 54 55  2  0  0  0
 54128  1  0  0  0
 55 57  1  0  0  0
 55129  1  0  0  0
 56 69  2  0  0  0
 57 58  2  0  0  0
 57130  1  0  0  0
 58131  1  0  0  0
 59 60  1  0  0  0
 59 61  1  0  0  0
 59 62  1  0  0  0
 60132  1  0  0  0
 60133  1  0  0  0
 60134  1  0  0  0
 61135  1  0  0  0
 61136  1  0  0  0
 61137  1  0  0  0
 62138  1  0  0  0
 62139  1  0  0  0
 62140  1  0  0  0
 63 65  1  0  0  0
 63141  1  0  0  0
 63142  1  0  0  0
 63143  1  0  0  0
 64144  1  0  0  0
 65145  1  0  0  0
 68 84  1  0  0  0
 71 72  2  0  0  0
 71 85  1  0  0  0
 71146  1  0  0  0
 72 73  1  0  0  0
 72 77  1  0  0  0
 73 74  2  0  0  0
 73 78  1  0  0  0
 74 75  1  0  0  0
 74 85  1  0  0  0
 75147  1  0  0  0
 75148  1  0  0  0
 75149  1  0  0  0
 76 79  1  0  0  0
 76150  1  0  0  0
 76151  1  0  0  0
 76152  1  0  0  0
 77 83  1  0  0  0
 77153  1  0  0  0
 77154  1  0  0  0
 78 80  1  0  0  0
 78155  1  0  0  0
 78156  1  0  0  0
 79 80  1  0  0  0
 79157  1  0  0  0
 79158  1  0  0  0
 80159  1  0  0  0
 80160  1  0  0  0
 81 82  1  0  0  0
 81 84  1  0  0  0
 81161  1  0  0  0
 81162  1  0  0  0
 82 85  1  0  0  0
 82163  1  0  0  0
 82164  1  0  0  0
 83 86  1  0  0  0
 83165  1  0  0  0
 83166  1  0  0  0
 84167  1  0  0  0
 84168  1  0  0  0
 86169  1  0  0  0
M  ISO  4   1 100  68 101  84 101  86 100
M  END
> <chiral flag>
0

> <version>
0

> <s_m_source_file>
/data/baiqing/PycharmProjects/Reinvent-master-3.2/result/LINK_invent/BTK/process_docking_weight1_custom_sum_contain_oxygen_bond_distance_aromatic_linkinvent_7_9_3/rearranged_h_0093.sdf

> <i_m_source_file_index>
23

> <r_mmod_Potential_Energy-OPLS-2005>
-62.0443267822266

> <r_mmod_Stretch_Energy-OPLS-2005>
51.6343307495117

> <r_mmod_Bend_Energy-OPLS-2005>
122.994201660156

> <r_mmod_Torsional_Energy-OPLS-2005>
241.28450012207

> <r_mmod_Improper_Torsional_Energy-OPLS-2005>
4.27922105789185

> <r_mmod_Van_der_Waal_Energy-OPLS-2005>
116.283645629883

> <r_mmod_Electrostatic_Energy-OPLS-2005>
-413.6474609375

> <r_mmod_Solvation_Energy-OPLS-2005>
-208.807495117188

> <b_mmod_Minimization_Converged-OPLS-2005>
0

> <r_mmod_RMS_Derivative-OPLS-2005>
2.11213159561157

$$$$
23
                    3D
 Structure written by MMmdl.
177185  0  0  1  0            999 V2000
  -30.6449  -14.6069   20.5133 C   0  0  0  0  0  0
  -30.4308  -12.3711   19.4594 C   0  0  0  0  0  0
  -29.5083  -12.5014   18.2285 C   0  0  0  0  0  0
  -28.0285  -12.3497   18.6340 C   0  0  0  0  0  0
  -27.6548  -13.2168   19.8662 C   0  0  2  0  0  0
  -28.6963  -13.0699   20.9985 C   0  0  0  0  0  0
  -25.2558  -13.8171   20.5693 C   0  0  0  0  0  0
  -24.1829  -13.0443   20.9193 C   0  0  0  0  0  0
  -24.6390  -11.6913   20.8742 C   0  0  0  0  0  0
  -23.9064  -10.4301   21.0410 C   0  0  0  0  0  0
  -24.3616   -9.4219   21.9190 C   0  0  0  0  0  0
  -23.6298   -8.2250   22.0757 C   0  0  0  0  0  0
  -22.4281   -8.0287   21.3545 C   0  0  0  0  0  0
  -21.9915   -9.0255   20.4640 C   0  0  0  0  0  0
  -22.7237  -10.2141   20.3050 C   0  0  0  0  0  0
  -21.6853   -6.0748   22.5284 C   0  0  0  0  0  0
  -21.4023   -6.5654   23.8218 C   0  0  0  0  0  0
  -21.3655   -5.6797   24.9177 C   0  0  0  0  0  0
  -21.6037   -4.3057   24.7222 C   0  0  0  0  0  0
  -21.8817   -3.8162   23.4339 C   0  0  0  0  0  0
  -21.9196   -4.6981   22.3403 C   0  0  0  0  0  0
  -22.7842  -13.5237   21.1854 C   0  0  0  0  0  0
  -22.1664   -4.2170   21.0974 F   0  0  0  0  0  0
  -21.5620   -3.4536   25.7731 F   0  0  0  0  0  0
  -30.0136  -13.3969   20.4338 N   0  0  0  0  0  0
  -26.2996  -12.9360   20.3328 N   0  0  0  0  0  0
  -25.9326  -11.6519   20.5763 N   0  0  0  0  0  0
  -22.0486  -12.8216   22.0396 N   0  0  0  0  0  0
  -25.4253  -15.1891   20.4112 N   0  0  0  0  0  0
  -31.8057  -14.7571   20.1219 O   0  0  0  0  0  0
  -21.6636   -6.8890   21.4246 O   0  0  0  0  0  0
  -22.3544  -14.5558   20.6716 O   0  0  0  0  0  0
  -24.6231  -31.8624   23.2072 C   0  0  0  0  0  0
  -25.9105  -32.4791   23.8375 C   0  0  1  0  0  0
  -27.2231  -27.3444   20.1152 C   0  0  0  0  0  0
  -25.5943  -33.8595   24.2311 N   0  0  0  0  0  0
  -23.4152  -30.4859   21.5477 C   0  0  2  0  0  0
  -24.8622  -28.9488   20.1094 C   0  0  0  0  0  0
  -22.7477  -29.4603   22.4952 C   0  0  0  0  0  0
  -18.0294  -28.1357   22.8478 C   0  0  0  0  0  0
  -24.1491  -36.7285   23.2636 C   0  0  0  0  0  0
  -25.9521  -30.8041   21.3729 C   0  0  0  0  0  0
  -26.0288  -29.4332   20.7136 C   0  0  0  0  0  0
  -27.2122  -28.6417   20.7082 C   0  0  0  0  0  0
  -26.0370  -26.9102   19.4786 C   0  0  0  0  0  0
  -24.8666  -27.6931   19.4825 C   0  0  0  0  0  0
  -23.6293  -29.8278   20.1587 C   0  0  0  0  0  0
  -25.4108  -36.3080   24.0330 C   0  0  1  0  0  0
  -20.5901  -28.3645   23.1305 C   0  0  2  0  0  0
  -20.6787  -26.9373   22.5409 C   0  0  0  0  0  0
  -19.5762  -26.6365   21.5207 C   0  0  0  0  0  0
  -18.1940  -26.7908   22.1614 C   0  0  0  0  0  0
  -19.1544  -28.8820   23.2888 C   0  0  0  0  0  0
  -18.9462  -30.1428   23.8885 C   0  0  0  0  0  0
  -17.6462  -30.6563   24.0546 C   0  0  0  0  0  0
  -25.9038  -34.9456   23.5108 C   0  0  0  0  0  0
  -16.5354  -29.9053   23.6319 C   0  0  0  0  0  0
  -16.7285  -28.6481   23.0323 C   0  0  0  0  0  0
  -26.4498  -31.6590   25.0726 C   0  0  0  0  0  0
  -25.3723  -31.3723   26.1441 C   0  0  0  0  0  0
  -27.0337  -30.3024   24.6141 C   0  0  0  0  0  0
  -27.6066  -32.4305   25.7500 C   0  0  0  0  0  0
  -27.5576  -37.1808   24.8466 C   0  0  0  0  0  0
  -21.4195  -29.3010   22.3706 N   0  0  0  0  0  0
  -26.4287  -37.3767   23.9405 N   0  0  0  0  0  0
  -24.6817  -31.0655   22.1009 N   0  0  0  0  0  0
  -23.4237  -28.8139   23.3000 O   0  0  0  0  0  0
  -28.3531  -26.5219   20.1729 O   0  0  0  0  0  0
  -26.5576  -34.8915   22.4657 O   0  0  0  0  0  0
  -23.5404  -32.1424   23.7408 O   0  0  0  0  0  0
  -29.6925  -21.9002   19.6526 C   0  0  0  0  0  0
  -29.1761  -22.6156   20.7553 C   0  0  0  0  0  0
  -29.7193  -20.4801   19.5801 C   0  0  0  0  0  0
  -28.7426  -21.8389   21.8788 C   0  0  0  0  0  0
  -29.2447  -19.6893   20.6705 C   0  0  0  0  0  0
  -28.8509  -20.3907   21.8655 C   0  0  0  0  0  0
  -26.7112  -23.0245   22.9186 C   0  0  0  0  0  0
  -31.8878  -19.9025   18.4592 C   0  0  0  0  0  0
  -29.8740  -20.4488   17.0117 C   0  0  0  0  0  0
  -27.1299  -19.5112   23.6001 C   0  0  0  0  0  0
  -29.6465  -19.7746   24.2591 C   0  0  0  0  0  0
  -29.2834  -24.1887   20.7432 C   0  0  0  0  0  0
  -28.1698  -22.5828   23.0973 C   0  0  0  0  0  0
  -29.0472  -18.1273   20.5190 C   0  0  0  0  0  0
  -30.2401  -17.1379   20.8359 C   0  0  0  0  0  0
  -28.1858  -25.0645   20.0261 C   0  0  0  0  0  0
  -30.3598  -19.8409   18.3400 C   0  0  0  0  0  0
  -28.6007  -19.5487   23.1423 C   0  0  0  0  0  0
  -29.8765  -15.6801   20.8616 N   0  0  0  0  0  0
  -31.4751  -12.4792   19.1642 H   0  0  0  0  0  0
  -30.3474  -11.3777   19.9025 H   0  0  0  0  0  0
  -29.7708  -11.7527   17.4798 H   0  0  0  0  0  0
  -29.6596  -13.4741   17.7575 H   0  0  0  0  0  0
  -27.8518  -11.2969   18.8555 H   0  0  0  0  0  0
  -27.3789  -12.5951   17.7925 H   0  0  0  0  0  0
  -27.6750  -14.2538   19.5316 H   0  0  0  0  0  0
  -28.6975  -12.0512   21.3889 H   0  0  0  0  0  0
  -28.4475  -13.7116   21.8447 H   0  0  0  0  0  0
  -25.2761   -9.5704   22.4766 H   0  0  0  0  0  0
  -24.0009   -7.4646   22.7479 H   0  0  0  0  0  0
  -21.0847   -8.8774   19.8937 H   0  0  0  0  0  0
  -22.3700  -10.9681   19.6157 H   0  0  0  0  0  0
  -21.2020   -7.6161   23.9735 H   0  0  0  0  0  0
  -21.1473   -6.0520   25.9078 H   0  0  0  0  0  0
  -22.0597   -2.7626   23.2828 H   0  0  0  0  0  0
  -22.4102  -11.9858   22.4753 H   0  0  0  0  0  0
  -21.1103  -13.1242   22.2616 H   0  0  0  0  0  0
  -24.6534  -15.8370   20.5206 H   0  0  0  0  0  0
  -26.2679  -15.6310   20.0688 H   0  0  0  0  0  0
  -26.7168  -32.5469   23.1122 H   0  0  0  0  0  0
  -25.0137  -33.9745   25.0490 H   0  0  0  0  0  0
  -22.7054  -31.3045   21.4110 H   0  0  0  0  0  0
  -23.3746  -35.9621   23.3293 H   0  0  0  0  0  0
  -24.3599  -36.8916   22.2056 H   0  0  0  0  0  0
  -23.7256  -37.6493   23.6654 H   0  0  0  0  0  0
  -26.0761  -31.5744   20.6103 H   0  0  0  0  0  0
  -26.8338  -30.8535   21.9981 H   0  0  0  0  0  0
  -28.1088  -29.0058   21.1921 H   0  0  0  0  0  0
  -25.9911  -25.9546   18.9769 H   0  0  0  0  0  0
  -23.9723  -27.3226   19.0014 H   0  0  0  0  0  0
  -23.7544  -30.6120   19.4102 H   0  0  0  0  0  0
  -22.7491  -29.2638   19.8469 H   0  0  0  0  0  0
  -25.1294  -36.1918   25.0821 H   0  0  0  0  0  0
  -20.9988  -28.3183   24.1429 H   0  0  0  0  0  0
  -20.5715  -26.2228   23.3588 H   0  0  0  0  0  0
  -21.6647  -26.7408   22.1180 H   0  0  0  0  0  0
  -19.6911  -25.6281   21.1222 H   0  0  0  0  0  0
  -19.6705  -27.3183   20.6748 H   0  0  0  0  0  0
  -17.4212  -26.6666   21.4008 H   0  0  0  0  0  0
  -18.0316  -26.0042   22.9004 H   0  0  0  0  0  0
  -19.7929  -30.7242   24.2265 H   0  0  0  0  0  0
  -17.5004  -31.6241   24.5134 H   0  0  0  0  0  0
  -15.5350  -30.2928   23.7653 H   0  0  0  0  0  0
  -15.8699  -28.0806   22.7010 H   0  0  0  0  0  0
  -24.5891  -30.7086   25.7758 H   0  0  0  0  0  0
  -24.8901  -32.2894   26.4850 H   0  0  0  0  0  0
  -25.8023  -30.8904   27.0231 H   0  0  0  0  0  0
  -26.2908  -29.6783   24.1158 H   0  0  0  0  0  0
  -27.4072  -29.7262   25.4621 H   0  0  0  0  0  0
  -27.8761  -30.4343   23.9338 H   0  0  0  0  0  0
  -27.2707  -33.3623   26.2062 H   0  0  0  0  0  0
  -28.3894  -32.6846   25.0336 H   0  0  0  0  0  0
  -28.0706  -31.8424   26.5432 H   0  0  0  0  0  0
  -28.2582  -38.0117   24.7500 H   0  0  0  0  0  0
  -28.1092  -36.2643   24.6299 H   0  0  0  0  0  0
  -27.2298  -37.1469   25.8875 H   0  0  0  0  0  0
  -20.9363  -29.8782   21.6966 H   0  0  0  0  0  0
  -26.0161  -38.2838   24.1402 H   0  0  0  0  0  0
  -30.1074  -22.4726   18.8365 H   0  0  0  0  0  0
  -26.2895  -23.3382   23.8744 H   0  0  0  0  0  0
  -26.0945  -22.2088   22.5397 H   0  0  0  0  0  0
  -26.6122  -23.8678   22.2419 H   0  0  0  0  0  0
  -32.2277  -19.3642   19.3451 H   0  0  0  0  0  0
  -32.2387  -20.9308   18.5486 H   0  0  0  0  0  0
  -32.3739  -19.4550   17.5921 H   0  0  0  0  0  0
  -28.7893  -20.3884   16.9220 H   0  0  0  0  0  0
  -30.2996  -19.9097   16.1651 H   0  0  0  0  0  0
  -30.1654  -21.4920   16.8968 H   0  0  0  0  0  0
  -26.4750  -19.2871   22.7573 H   0  0  0  0  0  0
  -26.7747  -20.4333   24.0510 H   0  0  0  0  0  0
  -26.9807  -18.7244   24.3395 H   0  0  0  0  0  0
  -30.6424  -19.5126   23.9007 H   0  0  0  0  0  0
  -29.4389  -19.1346   25.1169 H   0  0  0  0  0  0
  -29.7216  -20.7906   24.6350 H   0  0  0  0  0  0
  -30.2360  -24.4228   20.2684 H   0  0  0  0  0  0
  -29.4116  -24.5726   21.7507 H   0  0  0  0  0  0
  -28.7893  -23.4345   23.3651 H   0  0  0  0  0  0
  -28.1992  -21.9888   23.9972 H   0  0  0  0  0  0
  -28.6865  -17.9215   19.5129 H   0  0  0  0  0  0
  -28.1712  -17.8321   21.0952 H   0  0  0  0  0  0
  -30.6702  -17.3910   21.8054 H   0  0  0  0  0  0
  -31.0366  -17.2999   20.1079 H   0  0  0  0  0  0
  -27.2146  -24.7635   20.4110 H   0  0  0  0  0  0
  -28.1754  -24.8199   18.9628 H   0  0  0  0  0  0
  -30.1076  -18.7871   18.2768 H   0  0  0  0  0  0
  -28.8088  -18.5074   22.9272 H   0  0  0  0  0  0
  -28.9362  -15.4567   21.1512 H   0  0  0  0  0  0
  1 25  1  0  0  0
  1 30  2  0  0  0
  1 89  1  0  0  0
  2  3  1  0  0  0
  2 25  1  0  0  0
  2 90  1  0  0  0
  2 91  1  0  0  0
  3  4  1  0  0  0
  3 92  1  0  0  0
  3 93  1  0  0  0
  4  5  1  0  0  0
  4 94  1  0  0  0
  4 95  1  0  0  0
  5  6  1  0  0  0
  5 26  1  0  0  0
  5 96  1  0  0  0
  6 25  1  0  0  0
  6 97  1  0  0  0
  6 98  1  0  0  0
  7  8  2  0  0  0
  7 26  1  0  0  0
  7 29  1  0  0  0
  8  9  1  0  0  0
  8 22  1  0  0  0
  9 10  1  0  0  0
  9 27  2  0  0  0
 10 11  2  0  0  0
 10 15  1  0  0  0
 11 12  1  0  0  0
 11 99  1  0  0  0
 12 13  2  0  0  0
 12100  1  0  0  0
 13 14  1  0  0  0
 13 31  1  0  0  0
 14 15  2  0  0  0
 14101  1  0  0  0
 15102  1  0  0  0
 16 17  2  0  0  0
 16 21  1  0  0  0
 16 31  1  0  0  0
 17 18  1  0  0  0
 17103  1  0  0  0
 18 19  2  0  0  0
 18104  1  0  0  0
 19 20  1  0  0  0
 19 24  1  0  0  0
 20 21  2  0  0  0
 20105  1  0  0  0
 21 23  1  0  0  0
 22 28  1  0  0  0
 22 32  2  0  0  0
 26 27  1  0  0  0
 28106  1  0  0  0
 28107  1  0  0  0
 29108  1  0  0  0
 29109  1  0  0  0
 33 34  1  0  0  0
 33 66  1  0  0  0
 33 70  2  0  0  0
 34 36  1  0  0  0
 34 59  1  0  0  0
 34110  1  0  0  0
 35 44  2  0  0  0
 35 45  1  0  0  0
 35 68  1  0  0  0
 36 56  1  0  0  0
 36111  1  0  0  0
 37 39  1  0  0  0
 37 47  1  0  0  0
 37 66  1  0  0  0
 37112  1  0  0  0
 38 43  2  0  0  0
 38 46  1  0  0  0
 38 47  1  0  0  0
 39 64  1  0  0  0
 39 67  2  0  0  0
 40 52  1  0  0  0
 40 53  2  0  0  0
 40 58  1  0  0  0
 41113  1  0  0  0
 41114  1  0  0  0
 41115  1  0  0  0
 41 48  1  0  0  0
 42 43  1  0  0  0
 42 66  1  0  0  0
 42116  1  0  0  0
 42117  1  0  0  0
 43 44  1  0  0  0
 44118  1  0  0  0
 45 46  2  0  0  0
 45119  1  0  0  0
 46120  1  0  0  0
 47121  1  0  0  0
 47122  1  0  0  0
 48 56  1  0  0  0
 48 65  1  0  0  0
 48123  1  0  0  0
 49 50  1  0  0  0
 49 53  1  0  0  0
 49 64  1  0  0  0
 49124  1  0  0  0
 50 51  1  0  0  0
 50125  1  0  0  0
 50126  1  0  0  0
 51 52  1  0  0  0
 51127  1  0  0  0
 51128  1  0  0  0
 52129  1  0  0  0
 52130  1  0  0  0
 53 54  1  0  0  0
 54 55  2  0  0  0
 54131  1  0  0  0
 55 57  1  0  0  0
 55132  1  0  0  0
 56 69  2  0  0  0
 57 58  2  0  0  0
 57133  1  0  0  0
 58134  1  0  0  0
 59 60  1  0  0  0
 59 61  1  0  0  0
 59 62  1  0  0  0
 60135  1  0  0  0
 60136  1  0  0  0
 60137  1  0  0  0
 61138  1  0  0  0
 61139  1  0  0  0
 61140  1  0  0  0
 62141  1  0  0  0
 62142  1  0  0  0
 62143  1  0  0  0
 63 65  1  0  0  0
 63144  1  0  0  0
 63145  1  0  0  0
 63146  1  0  0  0
 64147  1  0  0  0
 65148  1  0  0  0
 68 86  1  0  0  0
 71 72  2  0  0  0
 71 73  1  0  0  0
 71149  1  0  0  0
 72 74  1  0  0  0
 72 82  1  0  0  0
 73 75  2  0  0  0
 73 87  1  0  0  0
 74 76  2  0  0  0
 74 83  1  0  0  0
 75 76  1  0  0  0
 75 84  1  0  0  0
 76 88  1  0  0  0
 77 83  1  0  0  0
 77150  1  0  0  0
 77151  1  0  0  0
 77152  1  0  0  0
 78153  1  0  0  0
 78154  1  0  0  0
 78155  1  0  0  0
 78 87  1  0  0  0
 79 87  1  0  0  0
 79156  1  0  0  0
 79157  1  0  0  0
 79158  1  0  0  0
 80159  1  0  0  0
 80160  1  0  0  0
 80161  1  0  0  0
 80 88  1  0  0  0
 81 88  1  0  0  0
 81162  1  0  0  0
 81163  1  0  0  0
 81164  1  0  0  0
 82 86  1  0  0  0
 82165  1  0  0  0
 82166  1  0  0  0
 83167  1  0  0  0
 83168  1  0  0  0
 84 85  1  0  0  0
 84169  1  0  0  0
 84170  1  0  0  0
 85 89  1  0  0  0
 85171  1  0  0  0
 85172  1  0  0  0
 86173  1  0  0  0
 86174  1  0  0  0
 87175  1  0  0  0
 88176  1  0  0  0
 89177  1  0  0  0
M  ISO  4   1 100  68 101  86 101  89 100
M  END
> <chiral flag>
0

> <version>
0

> <s_m_source_file>
/data/baiqing/PycharmProjects/Reinvent-master-3.2/result/LINK_invent/BTK/process_docking_weight1_custom_sum_contain_oxygen_bond_distance_aromatic_linkinvent_7_9_3/rearranged_h_0093.sdf

> <i_m_source_file_index>
24

> <r_mmod_Potential_Energy-OPLS-2005>
24.1265354156494

> <r_mmod_Stretch_Energy-OPLS-2005>
83.588623046875

> <r_mmod_Bend_Energy-OPLS-2005>
140.487091064453

> <r_mmod_Torsional_Energy-OPLS-2005>
219.985366821289

> <r_mmod_Improper_Torsional_Energy-OPLS-2005>
5.39868545532227

> <r_mmod_Van_der_Waal_Energy-OPLS-2005>
161.998519897461

> <r_mmod_Electrostatic_Energy-OPLS-2005>
-429.150573730469

> <r_mmod_Solvation_Energy-OPLS-2005>
-197.062866210938

> <b_mmod_Minimization_Converged-OPLS-2005>
0

> <r_mmod_RMS_Derivative-OPLS-2005>
2.40624713897705

$$$$
24
                    3D
 Structure written by MMmdl.
178186  0  0  1  0            999 V2000
  -30.4029  -15.2189   20.4987 C   0  0  0  0  0  0
  -30.4058  -12.7971   19.5496 C   0  0  0  0  0  0
  -29.5282  -12.5904   18.2924 C   0  0  0  0  0  0
  -28.0632  -12.3327   18.6888 C   0  0  0  0  0  0
  -27.5932  -13.2781   19.8246 C   0  0  2  0  0  0
  -28.6027  -13.4182   20.9757 C   0  0  0  0  0  0
  -25.2258  -13.8230   20.5668 C   0  0  0  0  0  0
  -24.1661  -13.0416   20.9279 C   0  0  0  0  0  0
  -24.6339  -11.6916   20.8771 C   0  0  0  0  0  0
  -23.9071  -10.4272   21.0423 C   0  0  0  0  0  0
  -24.3636   -9.4188   21.9181 C   0  0  0  0  0  0
  -23.6312   -8.2220   22.0746 C   0  0  0  0  0  0
  -22.4276   -8.0270   21.3540 C   0  0  0  0  0  0
  -21.9916   -9.0251   20.4630 C   0  0  0  0  0  0
  -22.7258  -10.2128   20.3053 C   0  0  0  0  0  0
  -21.6858   -6.0735   22.5286 C   0  0  0  0  0  0
  -21.4011   -6.5636   23.8221 C   0  0  0  0  0  0
  -21.3656   -5.6788   24.9176 C   0  0  0  0  0  0
  -21.6055   -4.3056   24.7226 C   0  0  0  0  0  0
  -21.8810   -3.8146   23.4343 C   0  0  0  0  0  0
  -21.9191   -4.6961   22.3401 C   0  0  0  0  0  0
  -22.7688  -13.5157   21.1960 C   0  0  0  0  0  0
  -22.1661   -4.2146   21.0982 F   0  0  0  0  0  0
  -21.5631   -3.4538   25.7740 F   0  0  0  0  0  0
  -29.8237  -13.9338   20.3605 N   0  0  0  0  0  0
  -26.2660  -12.9508   20.3125 N   0  0  0  0  0  0
  -25.9263  -11.6628   20.5702 N   0  0  0  0  0  0
  -22.0371  -12.8125   22.0519 N   0  0  0  0  0  0
  -25.3845  -15.1943   20.3976 N   0  0  0  0  0  0
  -31.6326  -15.1644   20.3008 O   0  0  0  0  0  0
  -21.6635   -6.8876   21.4241 O   0  0  0  0  0  0
  -22.3369  -14.5460   20.6816 O   0  0  0  0  0  0
  -24.6937  -31.7623   23.2973 C   0  0  0  0  0  0
  -25.9417  -32.4588   23.8793 C   0  0  1  0  0  0
  -27.5014  -27.5062   19.7842 C   0  0  0  0  0  0
  -25.5954  -33.8459   24.2310 N   0  0  0  0  0  0
  -23.4015  -29.9869   21.8324 C   0  0  2  0  0  0
  -25.0962  -28.6641   19.4461 C   0  0  0  0  0  0
  -22.6185  -29.2816   22.8352 C   0  0  0  0  0  0
  -17.9629  -28.1160   22.8566 C   0  0  0  0  0  0
  -24.1502  -36.7246   23.2621 C   0  0  0  0  0  0
  -26.3849  -30.6145   21.4842 C   0  0  0  0  0  0
  -26.4479  -29.4837   19.9859 C   0  0  0  0  0  0
  -27.6572  -28.8820   19.8330 C   0  0  0  0  0  0
  -26.4763  -26.8382   19.0869 C   0  0  0  0  0  0
  -25.2341  -27.4320   18.8791 C   0  0  0  0  0  0
  -23.4686  -28.8535   20.2846 C   0  0  0  0  0  0
  -25.4123  -36.2994   24.0295 C   0  0  1  0  0  0
  -20.4759  -28.2672   23.2348 C   0  0  2  0  0  0
  -20.5895  -26.8723   22.5869 C   0  0  0  0  0  0
  -19.5143  -26.5989   21.5418 C   0  0  0  0  0  0
  -18.1299  -26.7668   22.1698 C   0  0  0  0  0  0
  -19.0804  -28.8406   23.3271 C   0  0  0  0  0  0
  -18.9035  -30.1174   23.9020 C   0  0  0  0  0  0
  -17.6172  -30.6603   24.0470 C   0  0  0  0  0  0
  -25.9049  -34.9329   23.5089 C   0  0  0  0  0  0
  -16.5028  -29.9214   23.6163 C   0  0  0  0  0  0
  -16.6749  -28.6559   23.0253 C   0  0  0  0  0  0
  -26.4870  -31.6796   25.1345 C   0  0  0  0  0  0
  -25.4024  -31.3942   26.2001 C   0  0  0  0  0  0
  -27.1139  -30.3248   24.7419 C   0  0  0  0  0  0
  -27.6219  -32.4908   25.7893 C   0  0  0  0  0  0
  -27.5564  -37.1796   24.8480 C   0  0  0  0  0  0
  -21.3310  -29.1914   22.5478 N   0  0  0  0  0  0
  -26.4305  -37.3695   23.9356 N   0  0  0  0  0  0
  -24.8625  -30.7814   22.3756 N   0  0  0  0  0  0
  -23.1741  -28.7137   23.7615 O   0  0  0  0  0  0
  -27.7270  -27.0106   21.0021 O   0  0  0  0  0  0
  -26.5654  -34.8768   22.4681 O   0  0  0  0  0  0
  -23.5724  -32.0967   23.7165 O   0  0  0  0  0  0
  -25.4982  -21.7477   22.4528 C   0  0  0  0  0  0
  -25.1826  -20.4109   22.7286 C   0  0  0  0  0  0
  -26.6631  -21.9004   21.7540 C   0  0  0  0  0  0
  -26.1818  -19.6489   22.2022 C   0  0  0  0  0  0
  -26.1059  -18.1559   22.2239 C   0  0  0  0  0  0
  -22.8882  -19.4952   22.3418 C   0  0  0  0  0  0
  -23.3274  -20.9132   24.4111 C   0  0  0  0  0  0
  -24.5862  -30.8562   20.0488 C   0  0  0  0  0  0
  -30.2254  -17.2874   19.1634 C   0  0  0  0  0  0
  -26.8063  -23.6203   21.4767 C   0  0  0  0  0  0
  -25.5734  -24.9729   21.2882 C   0  0  0  0  0  0
  -24.9998  -26.6351   21.8194 C   0  0  0  0  0  0
  -28.4511  -19.4507   20.9383 C   0  0  0  0  0  0
  -28.8152  -17.6566   21.1414 C   0  0  0  0  0  0
  -26.9173  -27.8031   22.0301 C   0  0  0  0  0  0
  -23.9154  -19.9099   23.4085 C   0  0  0  0  0  0
  -25.3363  -28.4472   21.7536 C   0  0  1  0  0  0
  -27.2182  -20.4119   21.5931 N   0  0  0  0  0  0
  -29.7154  -16.5403   20.3194 N   0  0  0  0  0  0
  -31.4343  -12.9894   19.2426 H   0  0  0  0  0  0
  -30.4502  -11.8800   20.1404 H   0  0  0  0  0  0
  -29.9065  -11.7686   17.6839 H   0  0  0  0  0  0
  -29.5836  -13.4863   17.6728 H   0  0  0  0  0  0
  -27.9815  -11.2951   19.0120 H   0  0  0  0  0  0
  -27.4122  -12.4354   17.8173 H   0  0  0  0  0  0
  -27.5200  -14.2592   19.3543 H   0  0  0  0  0  0
  -28.7624  -12.4700   21.4952 H   0  0  0  0  0  0
  -28.2390  -14.1308   21.7188 H   0  0  0  0  0  0
  -25.2787   -9.5661   22.4749 H   0  0  0  0  0  0
  -24.0026   -7.4601   22.7452 H   0  0  0  0  0  0
  -21.0855   -8.8770   19.8936 H   0  0  0  0  0  0
  -22.3726  -10.9663   19.6159 H   0  0  0  0  0  0
  -21.2003   -7.6145   23.9720 H   0  0  0  0  0  0
  -21.1493   -6.0520   25.9084 H   0  0  0  0  0  0
  -22.0593   -2.7606   23.2847 H   0  0  0  0  0  0
  -22.4044  -11.9820   22.4918 H   0  0  0  0  0  0
  -21.0973  -13.1087   22.2727 H   0  0  0  0  0  0
  -24.5858  -15.8163   20.4423 H   0  0  0  0  0  0
  -26.1918  -15.6118   19.9566 H   0  0  0  0  0  0
  -26.7410  -32.4940   23.1430 H   0  0  0  0  0  0
  -25.0184  -33.9637   25.0495 H   0  0  0  0  0  0
  -22.7291  -30.8184   21.6109 H   0  0  0  0  0  0
  -23.3752  -35.9596   23.3274 H   0  0  0  0  0  0
  -24.3589  -36.8867   22.2042 H   0  0  0  0  0  0
  -23.7282  -37.6469   23.6624 H   0  0  0  0  0  0
  -26.6862  -31.5959   21.1109 H   0  0  0  0  0  0
  -27.2201  -30.4420   22.1374 H   0  0  0  0  0  0
  -28.4667  -29.3074   20.4072 H   0  0  0  0  0  0
  -26.5803  -25.7769   18.9198 H   0  0  0  0  0  0
  -24.3744  -26.8626   18.5567 H   0  0  0  0  0  0
  -22.7553  -29.2069   19.5353 H   0  0  0  0  0  0
  -23.0143  -27.8942   20.4948 H   0  0  0  0  0  0
  -25.1291  -36.1906   25.0790 H   0  0  0  0  0  0
  -20.8012  -28.1651   24.2759 H   0  0  0  0  0  0
  -20.4705  -26.1242   23.3770 H   0  0  0  0  0  0
  -21.5785  -26.6909   22.1636 H   0  0  0  0  0  0
  -19.6321  -25.5862   21.1477 H   0  0  0  0  0  0
  -19.6236  -27.2826   20.7003 H   0  0  0  0  0  0
  -17.3552  -26.6235   21.4122 H   0  0  0  0  0  0
  -17.9766  -25.9884   22.9189 H   0  0  0  0  0  0
  -19.7601  -30.6813   24.2396 H   0  0  0  0  0  0
  -17.4921  -31.6396   24.4868 H   0  0  0  0  0  0
  -15.5094  -30.3360   23.7241 H   0  0  0  0  0  0
  -15.8121  -28.1022   22.6839 H   0  0  0  0  0  0
  -24.6335  -30.7079   25.8450 H   0  0  0  0  0  0
  -24.9075  -32.3108   26.5226 H   0  0  0  0  0  0
  -25.8371  -30.9384   27.0917 H   0  0  0  0  0  0
  -26.3944  -29.6358   24.3120 H   0  0  0  0  0  0
  -27.5239  -29.8241   25.6203 H   0  0  0  0  0  0
  -27.9626  -30.4513   24.0716 H   0  0  0  0  0  0
  -27.2672  -33.4317   26.2129 H   0  0  0  0  0  0
  -28.4057  -32.7359   25.0696 H   0  0  0  0  0  0
  -28.0954  -31.9440   26.6069 H   0  0  0  0  0  0
  -28.2638  -38.0034   24.7412 H   0  0  0  0  0  0
  -28.1003  -36.2555   24.6464 H   0  0  0  0  0  0
  -27.2250  -37.1660   25.8881 H   0  0  0  0  0  0
  -20.9497  -29.7058   21.7682 H   0  0  0  0  0  0
  -26.0199  -38.2791   24.1254 H   0  0  0  0  0  0
  -24.8579  -22.5709   22.7276 H   0  0  0  0  0  0
  -25.2182  -17.7514   22.7036 H   0  0  0  0  0  0
  -26.9193  -17.7194   22.7942 H   0  0  0  0  0  0
  -26.0332  -17.7840   21.2061 H   0  0  0  0  0  0
  -23.2881  -18.7359   21.6710 H   0  0  0  0  0  0
  -22.5980  -20.3447   21.7233 H   0  0  0  0  0  0
  -21.9877  -19.0821   22.7930 H   0  0  0  0  0  0
  -24.0440  -21.1606   25.1940 H   0  0  0  0  0  0
  -22.4518  -20.5012   24.9122 H   0  0  0  0  0  0
  -23.0217  -21.8347   23.9151 H   0  0  0  0  0  0
  -23.5536  -31.0879   19.7403 H   0  0  0  0  0  0
  -24.9875  -30.9676   19.0209 H   0  0  0  0  0  0
  -24.7730  -31.8921   20.3648 H   0  0  0  0  0  0
  -29.4039  -17.7671   18.6312 H   0  0  0  0  0  0
  -30.7352  -16.6588   18.4280 H   0  0  0  0  0  0
  -30.9256  -18.0647   19.4722 H   0  0  0  0  0  0
  -26.5980  -23.8603   22.5197 H   0  0  0  0  0  0
  -26.2898  -23.3771   20.5540 H   0  0  0  0  0  0
  -24.7324  -24.4459   21.7347 H   0  0  0  0  0  0
  -25.2224  -24.9300   20.2650 H   0  0  0  0  0  0
  -24.9865  -26.4728   22.9004 H   0  0  0  0  0  0
  -23.9414  -26.5347   21.6265 H   0  0  0  0  0  0
  -28.3671  -19.6146   19.8628 H   0  0  0  0  0  0
  -29.3780  -19.9650   21.1994 H   0  0  0  0  0  0
  -27.9056  -17.1140   20.9477 H   0  0  0  0  0  0
  -29.0627  -17.4950   22.1910 H   0  0  0  0  0  0
  -26.9533  -27.1534   22.9093 H   0  0  0  0  0  0
  -27.5897  -28.5449   22.4357 H   0  0  0  0  0  0
  -24.1651  -19.0288   24.0004 H   0  0  0  0  0  0
  -25.1921  -28.6166   22.8082 H   0  0  0  0  0  0
  1 25  1  0  0  0
  1 30  2  0  0  0
  1 89  1  0  0  0
  2  3  1  0  0  0
  2 25  1  0  0  0
  2 90  1  0  0  0
  2 91  1  0  0  0
  3  4  1  0  0  0
  3 92  1  0  0  0
  3 93  1  0  0  0
  4  5  1  0  0  0
  4 94  1  0  0  0
  4 95  1  0  0  0
  5  6  1  0  0  0
  5 26  1  0  0  0
  5 96  1  0  0  0
  6 25  1  0  0  0
  6 97  1  0  0  0
  6 98  1  0  0  0
  7  8  2  0  0  0
  7 26  1  0  0  0
  7 29  1  0  0  0
  8  9  1  0  0  0
  8 22  1  0  0  0
  9 10  1  0  0  0
  9 27  2  0  0  0
 10 11  2  0  0  0
 10 15  1  0  0  0
 11 12  1  0  0  0
 11 99  1  0  0  0
 12 13  2  0  0  0
 12100  1  0  0  0
 13 14  1  0  0  0
 13 31  1  0  0  0
 14 15  2  0  0  0
 14101  1  0  0  0
 15102  1  0  0  0
 16 17  2  0  0  0
 16 21  1  0  0  0
 16 31  1  0  0  0
 17 18  1  0  0  0
 17103  1  0  0  0
 18 19  2  0  0  0
 18104  1  0  0  0
 19 20  1  0  0  0
 19 24  1  0  0  0
 20 21  2  0  0  0
 20105  1  0  0  0
 21 23  1  0  0  0
 22 28  1  0  0  0
 22 32  2  0  0  0
 26 27  1  0  0  0
 28106  1  0  0  0
 28107  1  0  0  0
 29108  1  0  0  0
 29109  1  0  0  0
 33 34  1  0  0  0
 33 66  1  0  0  0
 33 70  2  0  0  0
 34 36  1  0  0  0
 34 59  1  0  0  0
 34110  1  0  0  0
 35 44  2  0  0  0
 35 45  1  0  0  0
 35 68  1  0  0  0
 36 56  1  0  0  0
 36111  1  0  0  0
 37 39  1  0  0  0
 37 47  1  0  0  0
 37 66  1  0  0  0
 37112  1  0  0  0
 38 43  2  0  0  0
 38 46  1  0  0  0
 38 47  1  0  0  0
 39 64  1  0  0  0
 39 67  2  0  0  0
 40 52  1  0  0  0
 40 53  2  0  0  0
 40 58  1  0  0  0
 41113  1  0  0  0
 41114  1  0  0  0
 41115  1  0  0  0
 41 48  1  0  0  0
 42 43  1  0  0  0
 42 66  1  0  0  0
 42116  1  0  0  0
 42117  1  0  0  0
 43 44  1  0  0  0
 44118  1  0  0  0
 45 46  2  0  0  0
 45119  1  0  0  0
 46120  1  0  0  0
 47121  1  0  0  0
 47122  1  0  0  0
 48 56  1  0  0  0
 48 65  1  0  0  0
 48123  1  0  0  0
 49 50  1  0  0  0
 49 53  1  0  0  0
 49 64  1  0  0  0
 49124  1  0  0  0
 50 51  1  0  0  0
 50125  1  0  0  0
 50126  1  0  0  0
 51 52  1  0  0  0
 51127  1  0  0  0
 51128  1  0  0  0
 52129  1  0  0  0
 52130  1  0  0  0
 53 54  1  0  0  0
 54 55  2  0  0  0
 54131  1  0  0  0
 55 57  1  0  0  0
 55132  1  0  0  0
 56 69  2  0  0  0
 57 58  2  0  0  0
 57133  1  0  0  0
 58134  1  0  0  0
 59 60  1  0  0  0
 59 61  1  0  0  0
 59 62  1  0  0  0
 60135  1  0  0  0
 60136  1  0  0  0
 60137  1  0  0  0
 61138  1  0  0  0
 61139  1  0  0  0
 61140  1  0  0  0
 62141  1  0  0  0
 62142  1  0  0  0
 62143  1  0  0  0
 63 65  1  0  0  0
 63144  1  0  0  0
 63145  1  0  0  0
 63146  1  0  0  0
 64147  1  0  0  0
 65148  1  0  0  0
 68 85  1  0  0  0
 71 72  1  0  0  0
 71 73  2  0  0  0
 71149  1  0  0  0
 72 74  2  0  0  0
 72 86  1  0  0  0
 73 80  1  0  0  0
 73 88  1  0  0  0
 74 75  1  0  0  0
 74 88  1  0  0  0
 75150  1  0  0  0
 75151  1  0  0  0
 75152  1  0  0  0
 76153  1  0  0  0
 76154  1  0  0  0
 76155  1  0  0  0
 76 86  1  0  0  0
 77 86  1  0  0  0
 77156  1  0  0  0
 77157  1  0  0  0
 77158  1  0  0  0
 78159  1  0  0  0
 78160  1  0  0  0
 78161  1  0  0  0
 78 87  1  0  0  0
 79 89  1  0  0  0
 79162  1  0  0  0
 79163  1  0  0  0
 79164  1  0  0  0
 80 81  1  0  0  0
 80165  1  0  0  0
 80166  1  0  0  0
 81 82  1  0  0  0
 81167  1  0  0  0
 81168  1  0  0  0
 82 87  1  0  0  0
 82169  1  0  0  0
 82170  1  0  0  0
 83 84  1  0  0  0
 83 88  1  0  0  0
 83171  1  0  0  0
 83172  1  0  0  0
 84 89  1  0  0  0
 84173  1  0  0  0
 84174  1  0  0  0
 85 87  1  0  0  0
 85175  1  0  0  0
 85176  1  0  0  0
 86177  1  0  0  0
 87178  1  0  0  0
M  ISO  4   1 100  68 101  85 101  89 100
M  END
> <chiral flag>
0

> <version>
0

> <s_m_source_file>
/data/baiqing/PycharmProjects/Reinvent-master-3.2/result/LINK_invent/BTK/process_docking_weight1_custom_sum_contain_oxygen_bond_distance_aromatic_linkinvent_7_9_3/rearranged_h_0093.sdf

> <i_m_source_file_index>
25

> <r_mmod_Potential_Energy-OPLS-2005>
8605.986328125

> <r_mmod_Stretch_Energy-OPLS-2005>
4413.84228515625

> <r_mmod_Bend_Energy-OPLS-2005>
1274.17565917969

> <r_mmod_Torsional_Energy-OPLS-2005>
555.703002929688

> <r_mmod_Improper_Torsional_Energy-OPLS-2005>
58.2608833312988

> <r_mmod_Van_der_Waal_Energy-OPLS-2005>
1848.47436523438

> <r_mmod_Electrostatic_Energy-OPLS-2005>
-343.981079101562

> <r_mmod_Solvation_Energy-OPLS-2005>
-190.39045715332

> <b_mmod_Minimization_Converged-OPLS-2005>
0

> <r_mmod_RMS_Derivative-OPLS-2005>
10.0769414901733

$$$$
25
                    3D
 Structure written by MMmdl.
170178  0  0  1  0            999 V2000
  -30.4926  -15.3048   20.2863 C   0  0  0  0  0  0
  -30.4303  -12.8271   19.5077 C   0  0  0  0  0  0
  -29.5311  -12.5894   18.2700 C   0  0  0  0  0  0
  -28.0772  -12.3264   18.6936 C   0  0  0  0  0  0
  -27.6089  -13.3001   19.8045 C   0  0  2  0  0  0
  -28.6478  -13.5263   20.9215 C   0  0  0  0  0  0
  -25.2386  -13.8292   20.5726 C   0  0  0  0  0  0
  -24.1776  -13.0429   20.9220 C   0  0  0  0  0  0
  -24.6485  -11.6956   20.8758 C   0  0  0  0  0  0
  -23.9190  -10.4294   21.0433 C   0  0  0  0  0  0
  -24.3713   -9.4205   21.9215 C   0  0  0  0  0  0
  -23.6353   -8.2256   22.0782 C   0  0  0  0  0  0
  -22.4335   -8.0308   21.3573 C   0  0  0  0  0  0
  -22.0002   -9.0293   20.4673 C   0  0  0  0  0  0
  -22.7348  -10.2162   20.3097 C   0  0  0  0  0  0
  -21.6842   -6.0781   22.5273 C   0  0  0  0  0  0
  -21.4025   -6.5682   23.8205 C   0  0  0  0  0  0
  -21.3650   -5.6834   24.9161 C   0  0  0  0  0  0
  -21.6036   -4.3101   24.7225 C   0  0  0  0  0  0
  -21.8826   -3.8189   23.4347 C   0  0  0  0  0  0
  -21.9192   -4.7006   22.3397 C   0  0  0  0  0  0
  -22.7790  -13.5121   21.1852 C   0  0  0  0  0  0
  -22.1660   -4.2190   21.0978 F   0  0  0  0  0  0
  -21.5614   -3.4579   25.7734 F   0  0  0  0  0  0
  -29.8820  -14.0107   20.2774 N   0  0  0  0  0  0
  -26.2875  -12.9637   20.3187 N   0  0  0  0  0  0
  -25.9426  -11.6727   20.5710 N   0  0  0  0  0  0
  -22.0494  -12.8092   22.0439 N   0  0  0  0  0  0
  -25.3964  -15.2036   20.4160 N   0  0  0  0  0  0
  -31.7218  -15.1703   20.2122 O   0  0  0  0  0  0
  -21.6676   -6.8934   21.4254 O   0  0  0  0  0  0
  -22.3409  -14.5386   20.6659 O   0  0  0  0  0  0
  -24.6636  -31.8215   23.1690 C   0  0  0  0  0  0
  -25.9304  -32.4580   23.8129 C   0  0  1  0  0  0
  -27.2307  -26.9156   20.1590 C   0  0  0  0  0  0
  -25.5949  -33.8394   24.2045 N   0  0  0  0  0  0
  -23.4803  -30.4282   21.5156 C   0  0  2  0  0  0
  -24.9407  -28.8118   20.1023 C   0  0  0  0  0  0
  -22.7642  -29.4400   22.4737 C   0  0  0  0  0  0
  -18.0271  -28.1398   22.8476 C   0  0  0  0  0  0
  -24.1474  -36.7228   23.2645 C   0  0  0  0  0  0
  -26.0500  -30.6195   21.4066 C   0  0  0  0  0  0
  -26.1221  -29.2095   20.7398 C   0  0  0  0  0  0
  -27.2537  -28.2768   20.7529 C   0  0  0  0  0  0
  -26.0232  -26.6732   19.4669 C   0  0  0  0  0  0
  -24.9165  -27.5668   19.4450 C   0  0  0  0  0  0
  -23.7246  -29.7373   20.1437 C   0  0  0  0  0  0
  -25.4116  -36.2978   24.0279 C   0  0  1  0  0  0
  -20.5896  -28.3765   23.1175 C   0  0  2  0  0  0
  -20.6770  -26.9443   22.5401 C   0  0  0  0  0  0
  -19.5762  -26.6378   21.5210 C   0  0  0  0  0  0
  -18.1928  -26.7942   22.1599 C   0  0  0  0  0  0
  -19.1539  -28.8892   23.2815 C   0  0  0  0  0  0
  -18.9474  -30.1466   23.8885 C   0  0  0  0  0  0
  -17.6489  -30.6628   24.0548 C   0  0  0  0  0  0
  -25.9091  -34.9335   23.4996 C   0  0  0  0  0  0
  -16.5361  -29.9130   23.6350 C   0  0  0  0  0  0
  -16.7261  -28.6504   23.0426 C   0  0  0  0  0  0
  -26.4528  -31.6549   25.0680 C   0  0  0  0  0  0
  -25.3619  -31.3855   26.1320 C   0  0  0  0  0  0
  -27.0452  -30.2889   24.6491 C   0  0  0  0  0  0
  -27.5961  -32.4435   25.7509 C   0  0  0  0  0  0
  -27.5567  -37.1743   24.8453 C   0  0  0  0  0  0
  -21.4303  -29.3046   22.3504 N   0  0  0  0  0  0
  -26.4288  -37.3705   23.9391 N   0  0  0  0  0  0
  -24.7519  -30.9826   22.0833 N   0  0  0  0  0  0
  -23.4173  -28.7935   23.2972 O   0  0  0  0  0  0
  -28.2272  -25.8140   20.3113 O   0  0  0  0  0  0
  -26.5755  -34.8867   22.4631 O   0  0  0  0  0  0
  -23.5705  -32.1196   23.6759 O   0  0  0  0  0  0
  -29.4537  -18.0785   20.7819 C   0  0  0  0  0  0
  -29.7389  -19.0184   18.8497 C   0  0  0  0  0  0
  -29.9266  -16.9246   20.0100 C   0  0  0  0  0  0
  -30.1873  -17.6890   18.7956 C   0  0  0  0  0  0
  -33.8482  -20.1466   20.2661 C   0  0  0  0  0  0
  -30.2263  -20.6093   22.9416 C   0  0  0  0  0  0
  -27.4781  -21.9345   18.7507 C   0  0  0  0  0  0
  -30.9590  -17.1990   17.5893 C   0  0  0  0  0  0
  -33.1812  -18.8658   19.7355 C   0  0  0  0  0  0
  -29.0016  -21.0512   22.1155 C   0  0  0  0  0  0
  -32.4976  -17.4059   17.6874 C   0  0  0  0  0  0
  -33.0031  -18.7885   18.1967 C   0  0  0  0  0  0
  -28.4105  -24.2779   19.7059 C   0  0  0  0  0  0
  -28.1648  -22.4849   20.0174 C   0  0  2  0  0  0
  -29.1731  -21.0751   20.5789 C   0  0  2  0  0  0
  -29.3460  -19.4420   20.1127 N   0  0  0  0  0  0
  -31.4533  -12.9942   19.1645 H   0  0  0  0  0  0
  -30.4778  -11.9346   20.1348 H   0  0  0  0  0  0
  -29.9062  -11.7569   17.6763 H   0  0  0  0  0  0
  -29.5663  -13.4674   17.6240 H   0  0  0  0  0  0
  -28.0126  -11.2970   19.0444 H   0  0  0  0  0  0
  -27.4156  -12.4028   17.8297 H   0  0  0  0  0  0
  -27.5110  -14.2603   19.2954 H   0  0  0  0  0  0
  -28.8202  -12.6230   21.5067 H   0  0  0  0  0  0
  -28.2856  -14.2835   21.6174 H   0  0  0  0  0  0
  -25.2869   -9.5635   22.4775 H   0  0  0  0  0  0
  -24.0047   -7.4642   22.7510 H   0  0  0  0  0  0
  -21.0930   -8.8839   19.8961 H   0  0  0  0  0  0
  -22.3829  -10.9724   19.6226 H   0  0  0  0  0  0
  -21.2048   -7.6197   23.9702 H   0  0  0  0  0  0
  -21.1443   -6.0579   25.9048 H   0  0  0  0  0  0
  -22.0614   -2.7657   23.2823 H   0  0  0  0  0  0
  -22.4175  -11.9762   22.4783 H   0  0  0  0  0  0
  -21.1097  -13.1045   22.2662 H   0  0  0  0  0  0
  -24.6265  -15.8485   20.5546 H   0  0  0  0  0  0
  -26.2489  -15.6620   20.1152 H   0  0  0  0  0  0
  -26.7375  -32.5092   23.0829 H   0  0  0  0  0  0
  -24.9907  -33.9453   25.0058 H   0  0  0  0  0  0
  -22.7948  -31.2586   21.3416 H   0  0  0  0  0  0
  -23.3761  -35.9548   23.3274 H   0  0  0  0  0  0
  -24.3517  -36.8972   22.2078 H   0  0  0  0  0  0
  -23.7203  -37.6357   23.6776 H   0  0  0  0  0  0
  -26.2297  -31.3707   20.6359 H   0  0  0  0  0  0
  -26.9079  -30.6806   22.0663 H   0  0  0  0  0  0
  -28.1394  -28.5588   21.3067 H   0  0  0  0  0  0
  -25.8982  -25.7097   18.9949 H   0  0  0  0  0  0
  -24.0139  -27.2573   18.9372 H   0  0  0  0  0  0
  -23.8614  -30.5057   19.3815 H   0  0  0  0  0  0
  -22.8395  -29.1808   19.8352 H   0  0  0  0  0  0
  -25.1300  -36.1789   25.0780 H   0  0  0  0  0  0
  -20.9954  -28.3436   24.1309 H   0  0  0  0  0  0
  -20.5684  -26.2380   23.3635 H   0  0  0  0  0  0
  -21.6632  -26.7477   22.1168 H   0  0  0  0  0  0
  -19.6954  -25.6282   21.1266 H   0  0  0  0  0  0
  -19.6732  -27.3149   20.6707 H   0  0  0  0  0  0
  -17.4194  -26.6692   21.3996 H   0  0  0  0  0  0
  -18.0331  -26.0088   22.8988 H   0  0  0  0  0  0
  -19.7967  -30.7225   24.2317 H   0  0  0  0  0  0
  -17.5075  -31.6314   24.5137 H   0  0  0  0  0  0
  -15.5365  -30.3047   23.7718 H   0  0  0  0  0  0
  -15.8631  -28.0800   22.7273 H   0  0  0  0  0  0
  -24.5741  -30.7322   25.7566 H   0  0  0  0  0  0
  -24.8867  -32.3109   26.4598 H   0  0  0  0  0  0
  -25.7749  -30.9034   27.0195 H   0  0  0  0  0  0
  -26.3143  -29.6495   24.1529 H   0  0  0  0  0  0
  -27.3981  -29.7320   25.5174 H   0  0  0  0  0  0
  -27.9074  -30.4000   23.9916 H   0  0  0  0  0  0
  -27.2459  -33.3813   26.1832 H   0  0  0  0  0  0
  -28.3864  -32.6915   25.0421 H   0  0  0  0  0  0
  -28.0525  -31.8774   26.5638 H   0  0  0  0  0  0
  -28.2517  -38.0101   24.7520 H   0  0  0  0  0  0
  -28.1134  -36.2595   24.6273 H   0  0  0  0  0  0
  -27.2265  -37.1365   25.8857 H   0  0  0  0  0  0
  -20.9587  -29.8750   21.6610 H   0  0  0  0  0  0
  -26.0147  -38.2768   24.1461 H   0  0  0  0  0  0
  -29.2471  -18.0572   21.8404 H   0  0  0  0  0  0
  -29.8182  -19.7722   18.0766 H   0  0  0  0  0  0
  -33.8749  -20.1265   21.3585 H   0  0  0  0  0  0
  -33.3038  -21.0448   19.9797 H   0  0  0  0  0  0
  -34.8781  -20.2466   19.9209 H   0  0  0  0  0  0
  -29.9307  -20.4742   23.9845 H   0  0  0  0  0  0
  -31.0081  -21.3671   22.9348 H   0  0  0  0  0  0
  -30.6646  -19.6690   22.6093 H   0  0  0  0  0  0
  -26.7166  -22.6114   18.3635 H   0  0  0  0  0  0
  -26.9727  -20.9893   18.9540 H   0  0  0  0  0  0
  -28.1924  -21.7456   17.9509 H   0  0  0  0  0  0
  -30.5934  -17.7361   16.7115 H   0  0  0  0  0  0
  -30.7332  -16.1464   17.4062 H   0  0  0  0  0  0
  -32.2127  -18.7798   20.2228 H   0  0  0  0  0  0
  -33.7686  -18.0175   20.0861 H   0  0  0  0  0  0
  -28.7112  -22.0395   22.4717 H   0  0  0  0  0  0
  -28.1617  -20.3944   22.3394 H   0  0  0  0  0  0
  -32.9197  -17.2163   16.6979 H   0  0  0  0  0  0
  -32.9194  -16.6246   18.3238 H   0  0  0  0  0  0
  -33.9704  -18.9849   17.7304 H   0  0  0  0  0  0
  -32.3461  -19.5815   17.8378 H   0  0  0  0  0  0
  -27.9614  -24.4307   18.7230 H   0  0  0  0  0  0
  -29.4741  -24.2950   19.4697 H   0  0  0  0  0  0
  -27.3466  -22.5139   20.7392 H   0  0  0  0  0  0
  -30.1730  -21.4675   20.3803 H   0  0  0  0  0  0
  1 25  1  0  0  0
  1 30  2  0  0  0
  1 73  1  0  0  0
  2  3  1  0  0  0
  2 25  1  0  0  0
  2 87  1  0  0  0
  2 88  1  0  0  0
  3  4  1  0  0  0
  3 89  1  0  0  0
  3 90  1  0  0  0
  4  5  1  0  0  0
  4 91  1  0  0  0
  4 92  1  0  0  0
  5  6  1  0  0  0
  5 26  1  0  0  0
  5 93  1  0  0  0
  6 25  1  0  0  0
  6 94  1  0  0  0
  6 95  1  0  0  0
  7  8  2  0  0  0
  7 26  1  0  0  0
  7 29  1  0  0  0
  8  9  1  0  0  0
  8 22  1  0  0  0
  9 10  1  0  0  0
  9 27  2  0  0  0
 10 11  2  0  0  0
 10 15  1  0  0  0
 11 12  1  0  0  0
 11 96  1  0  0  0
 12 13  2  0  0  0
 12 97  1  0  0  0
 13 14  1  0  0  0
 13 31  1  0  0  0
 14 15  2  0  0  0
 14 98  1  0  0  0
 15 99  1  0  0  0
 16 17  2  0  0  0
 16 21  1  0  0  0
 16 31  1  0  0  0
 17 18  1  0  0  0
 17100  1  0  0  0
 18 19  2  0  0  0
 18101  1  0  0  0
 19 20  1  0  0  0
 19 24  1  0  0  0
 20 21  2  0  0  0
 20102  1  0  0  0
 21 23  1  0  0  0
 22 28  1  0  0  0
 22 32  2  0  0  0
 26 27  1  0  0  0
 28103  1  0  0  0
 28104  1  0  0  0
 29105  1  0  0  0
 29106  1  0  0  0
 33 34  1  0  0  0
 33 66  1  0  0  0
 33 70  2  0  0  0
 34 36  1  0  0  0
 34 59  1  0  0  0
 34107  1  0  0  0
 35 44  2  0  0  0
 35 45  1  0  0  0
 35 68  1  0  0  0
 36 56  1  0  0  0
 36108  1  0  0  0
 37 39  1  0  0  0
 37 47  1  0  0  0
 37 66  1  0  0  0
 37109  1  0  0  0
 38 43  2  0  0  0
 38 46  1  0  0  0
 38 47  1  0  0  0
 39 64  1  0  0  0
 39 67  2  0  0  0
 40 52  1  0  0  0
 40 53  2  0  0  0
 40 58  1  0  0  0
 41110  1  0  0  0
 41111  1  0  0  0
 41112  1  0  0  0
 41 48  1  0  0  0
 42 43  1  0  0  0
 42 66  1  0  0  0
 42113  1  0  0  0
 42114  1  0  0  0
 43 44  1  0  0  0
 44115  1  0  0  0
 45 46  2  0  0  0
 45116  1  0  0  0
 46117  1  0  0  0
 47118  1  0  0  0
 47119  1  0  0  0
 48 56  1  0  0  0
 48 65  1  0  0  0
 48120  1  0  0  0
 49 50  1  0  0  0
 49 53  1  0  0  0
 49 64  1  0  0  0
 49121  1  0  0  0
 50 51  1  0  0  0
 50122  1  0  0  0
 50123  1  0  0  0
 51 52  1  0  0  0
 51124  1  0  0  0
 51125  1  0  0  0
 52126  1  0  0  0
 52127  1  0  0  0
 53 54  1  0  0  0
 54 55  2  0  0  0
 54128  1  0  0  0
 55 57  1  0  0  0
 55129  1  0  0  0
 56 69  2  0  0  0
 57 58  2  0  0  0
 57130  1  0  0  0
 58131  1  0  0  0
 59 60  1  0  0  0
 59 61  1  0  0  0
 59 62  1  0  0  0
 60132  1  0  0  0
 60133  1  0  0  0
 60134  1  0  0  0
 61135  1  0  0  0
 61136  1  0  0  0
 61137  1  0  0  0
 62138  1  0  0  0
 62139  1  0  0  0
 62140  1  0  0  0
 63 65  1  0  0  0
 63141  1  0  0  0
 63142  1  0  0  0
 63143  1  0  0  0
 64144  1  0  0  0
 65145  1  0  0  0
 68 83  1  0  0  0
 71 73  2  0  0  0
 71 86  1  0  0  0
 71146  1  0  0  0
 72 74  2  0  0  0
 72 86  1  0  0  0
 72147  1  0  0  0
 73 74  1  0  0  0
 74 78  1  0  0  0
 75 79  1  0  0  0
 75148  1  0  0  0
 75149  1  0  0  0
 75150  1  0  0  0
 76 80  1  0  0  0
 76151  1  0  0  0
 76152  1  0  0  0
 76153  1  0  0  0
 77154  1  0  0  0
 77155  1  0  0  0
 77156  1  0  0  0
 77 84  1  0  0  0
 78 81  1  0  0  0
 78157  1  0  0  0
 78158  1  0  0  0
 79 82  1  0  0  0
 79159  1  0  0  0
 79160  1  0  0  0
 80161  1  0  0  0
 80162  1  0  0  0
 80 85  1  0  0  0
 81 82  1  0  0  0
 81163  1  0  0  0
 81164  1  0  0  0
 82165  1  0  0  0
 82166  1  0  0  0
 83 84  1  0  0  0
 83167  1  0  0  0
 83168  1  0  0  0
 84 85  1  0  0  0
 84169  1  0  0  0
 85 86  1  0  0  0
 85170  1  0  0  0
M  ISO  4   1 100  68 101  73 100  83 101
M  END
> <chiral flag>
0

> <version>
0

> <s_m_source_file>
/data/baiqing/PycharmProjects/Reinvent-master-3.2/result/LINK_invent/BTK/process_docking_weight1_custom_sum_contain_oxygen_bond_distance_aromatic_linkinvent_7_9_3/rearranged_h_0093.sdf

> <i_m_source_file_index>
26

> <r_mmod_Potential_Energy-OPLS-2005>
1691.05224609375

> <r_mmod_Stretch_Energy-OPLS-2005>
662.275573730469

> <r_mmod_Bend_Energy-OPLS-2005>
583.102661132812

> <r_mmod_Torsional_Energy-OPLS-2005>
290.0390625

> <r_mmod_Improper_Torsional_Energy-OPLS-2005>
14.7317323684692

> <r_mmod_Van_der_Waal_Energy-OPLS-2005>
93.8622512817383

> <r_mmod_Electrostatic_Energy-OPLS-2005>
-260.966094970703

> <r_mmod_Solvation_Energy-OPLS-2005>
-180.213928222656

> <b_mmod_Minimization_Converged-OPLS-2005>
0

> <r_mmod_RMS_Derivative-OPLS-2005>
6.00422859191895

$$$$
26
                    3D
 Structure written by MMmdl.
167174  0  0  1  0            999 V2000
  -30.7337  -14.4454   20.5580 C   0  0  0  0  0  0
  -30.4108  -12.2875   19.4277 C   0  0  0  0  0  0
  -29.4914  -12.4970   18.2082 C   0  0  0  0  0  0
  -28.0128  -12.3669   18.6198 C   0  0  0  0  0  0
  -27.6615  -13.2109   19.8748 C   0  0  2  0  0  0
  -28.7035  -13.0094   20.9997 C   0  0  0  0  0  0
  -25.2588  -13.8176   20.5697 C   0  0  0  0  0  0
  -24.1841  -13.0446   20.9185 C   0  0  0  0  0  0
  -24.6400  -11.6913   20.8744 C   0  0  0  0  0  0
  -23.9066  -10.4299   21.0408 C   0  0  0  0  0  0
  -24.3617   -9.4211   21.9185 C   0  0  0  0  0  0
  -23.6295   -8.2246   22.0754 C   0  0  0  0  0  0
  -22.4275   -8.0286   21.3549 C   0  0  0  0  0  0
  -21.9913   -9.0259   20.4647 C   0  0  0  0  0  0
  -22.7240  -10.2140   20.3059 C   0  0  0  0  0  0
  -21.6857   -6.0740   22.5284 C   0  0  0  0  0  0
  -21.4012   -6.5641   23.8215 C   0  0  0  0  0  0
  -21.3660   -5.6792   24.9175 C   0  0  0  0  0  0
  -21.6045   -4.3057   24.7222 C   0  0  0  0  0  0
  -21.8819   -3.8150   23.4346 C   0  0  0  0  0  0
  -21.9191   -4.6968   22.3400 C   0  0  0  0  0  0
  -22.7863  -13.5238   21.1845 C   0  0  0  0  0  0
  -22.1662   -4.2154   21.0980 F   0  0  0  0  0  0
  -21.5627   -3.4541   25.7735 F   0  0  0  0  0  0
  -30.0357  -13.2858   20.4408 N   0  0  0  0  0  0
  -26.3028  -12.9354   20.3377 N   0  0  0  0  0  0
  -25.9329  -11.6509   20.5780 N   0  0  0  0  0  0
  -22.0499  -12.8230   22.0396 N   0  0  0  0  0  0
  -25.4310  -15.1895   20.4103 N   0  0  0  0  0  0
  -31.8622  -14.5960   20.0832 O   0  0  0  0  0  0
  -21.6641   -6.8883   21.4245 O   0  0  0  0  0  0
  -22.3551  -14.5555   20.6706 O   0  0  0  0  0  0
  -24.6139  -31.8683   23.2114 C   0  0  0  0  0  0
  -25.9035  -32.4824   23.8404 C   0  0  1  0  0  0
  -27.2285  -27.4468   20.0928 C   0  0  0  0  0  0
  -25.5893  -33.8624   24.2333 N   0  0  0  0  0  0
  -23.4025  -30.4923   21.5512 C   0  0  2  0  0  0
  -24.8501  -28.9674   20.1064 C   0  0  0  0  0  0
  -22.7410  -29.4655   22.4985 C   0  0  0  0  0  0
  -18.0267  -28.1383   22.8483 C   0  0  0  0  0  0
  -24.1484  -36.7321   23.2638 C   0  0  0  0  0  0
  -25.9306  -30.8393   21.3628 C   0  0  0  0  0  0
  -26.0103  -29.4770   20.7055 C   0  0  0  0  0  0
  -27.2069  -28.7234   20.6964 C   0  0  0  0  0  0
  -26.0597  -26.9604   19.4696 C   0  0  0  0  0  0
  -24.8692  -27.7077   19.4837 C   0  0  0  0  0  0
  -23.6100  -29.8294   20.1632 C   0  0  0  0  0  0
  -25.4104  -36.3117   24.0339 C   0  0  1  0  0  0
  -20.5861  -28.3671   23.1316 C   0  0  2  0  0  0
  -20.6764  -26.9408   22.5417 C   0  0  0  0  0  0
  -19.5745  -26.6392   21.5210 C   0  0  0  0  0  0
  -18.1919  -26.7927   22.1618 C   0  0  0  0  0  0
  -19.1517  -28.8842   23.2894 C   0  0  0  0  0  0
  -18.9451  -30.1444   23.8908 C   0  0  0  0  0  0
  -17.6455  -30.6589   24.0561 C   0  0  0  0  0  0
  -25.9031  -34.9480   23.5134 C   0  0  0  0  0  0
  -16.5345  -29.9095   23.6321 C   0  0  0  0  0  0
  -16.7257  -28.6513   23.0340 C   0  0  0  0  0  0
  -26.4470  -31.6602   25.0726 C   0  0  0  0  0  0
  -25.3739  -31.3705   26.1476 C   0  0  0  0  0  0
  -27.0303  -30.3045   24.6093 C   0  0  0  0  0  0
  -27.6050  -32.4318   25.7484 C   0  0  0  0  0  0
  -27.5578  -37.1810   24.8462 C   0  0  0  0  0  0
  -21.4142  -29.3034   22.3722 N   0  0  0  0  0  0
  -26.4294  -37.3794   23.9406 N   0  0  0  0  0  0
  -24.6672  -31.0798   22.1007 N   0  0  0  0  0  0
  -23.4178  -28.8191   23.3025 O   0  0  0  0  0  0
  -28.3498  -26.6500   20.1408 O   0  0  0  0  0  0
  -26.5594  -34.8932   22.4695 O   0  0  0  0  0  0
  -23.5331  -32.1433   23.7510 O   0  0  0  0  0  0
  -30.9431  -22.4628   22.3434 C   0  0  0  0  0  0
  -28.0531  -23.1536   22.7471 C   0  0  0  0  0  0
  -27.4834  -22.3346   20.4487 C   0  0  0  0  0  0
  -31.6526  -19.4446   22.4042 C   0  0  0  0  0  0
  -29.0422  -24.2771   20.6353 C   0  0  0  0  0  0
  -30.6032  -16.8723   20.9439 C   0  0  0  0  0  0
  -29.8083  -17.9639   21.7083 C   0  0  0  0  0  0
  -29.4293  -20.4303   21.8294 C   0  0  0  0  0  0
  -28.1465  -25.4955   20.9752 C   0  0  0  0  0  0
  -29.8364  -21.9006   21.4093 C   0  0  1  0  0  0
  -28.6225  -22.9165   21.3229 C   0  0  0  0  0  0
  -30.0742  -15.5020   21.0641 N   0  0  0  0  0  0
  -30.4194  -19.3289   21.5815 N   0  3  1  0  0  0
  -31.4585  -12.3600   19.1304 H   0  0  0  0  0  0
  -30.2874  -11.2819   19.8330 H   0  0  0  0  0  0
  -29.7267  -11.7699   17.4300 H   0  0  0  0  0  0
  -29.6697  -13.4816   17.7720 H   0  0  0  0  0  0
  -27.8164  -11.3127   18.8166 H   0  0  0  0  0  0
  -27.3648  -12.6447   17.7877 H   0  0  0  0  0  0
  -27.7027  -14.2565   19.5693 H   0  0  0  0  0  0
  -28.6706  -11.9842   21.3707 H   0  0  0  0  0  0
  -28.4763  -13.6408   21.8598 H   0  0  0  0  0  0
  -25.2763   -9.5684   22.4757 H   0  0  0  0  0  0
  -24.0007   -7.4635   22.7473 H   0  0  0  0  0  0
  -21.0845   -8.8778   19.8950 H   0  0  0  0  0  0
  -22.3702  -10.9680   19.6166 H   0  0  0  0  0  0
  -21.2008   -7.6150   23.9719 H   0  0  0  0  0  0
  -21.1481   -6.0522   25.9076 H   0  0  0  0  0  0
  -22.0599   -2.7615   23.2841 H   0  0  0  0  0  0
  -22.4110  -11.9880   22.4769 H   0  0  0  0  0  0
  -21.1121  -13.1259   22.2615 H   0  0  0  0  0  0
  -24.6622  -15.8433   20.5121 H   0  0  0  0  0  0
  -26.2787  -15.6256   20.0701 H   0  0  0  0  0  0
  -26.7112  -32.5538   23.1177 H   0  0  0  0  0  0
  -25.0044  -33.9790   25.0477 H   0  0  0  0  0  0
  -22.6905  -31.3084   21.4135 H   0  0  0  0  0  0
  -23.3740  -35.9660   23.3312 H   0  0  0  0  0  0
  -24.3575  -36.8923   22.2049 H   0  0  0  0  0  0
  -23.7254  -37.6539   23.6644 H   0  0  0  0  0  0
  -26.0419  -31.6077   20.5964 H   0  0  0  0  0  0
  -26.8184  -30.8918   21.9808 H   0  0  0  0  0  0
  -28.1005  -29.1034   21.1721 H   0  0  0  0  0  0
  -26.0659  -25.9906   18.9927 H   0  0  0  0  0  0
  -23.9795  -27.3101   19.0150 H   0  0  0  0  0  0
  -23.7140  -30.6060   19.4043 H   0  0  0  0  0  0
  -22.7349  -29.2475   19.8692 H   0  0  0  0  0  0
  -25.1281  -36.1988   25.0833 H   0  0  0  0  0  0
  -20.9946  -28.3243   24.1439 H   0  0  0  0  0  0
  -20.5673  -26.2277   23.3602 H   0  0  0  0  0  0
  -21.6636  -26.7462   22.1204 H   0  0  0  0  0  0
  -19.6914  -25.6308   21.1229 H   0  0  0  0  0  0
  -19.6691  -27.3205   20.6744 H   0  0  0  0  0  0
  -17.4192  -26.6665   21.4018 H   0  0  0  0  0  0
  -18.0325  -26.0074   22.9021 H   0  0  0  0  0  0
  -19.7930  -30.7244   24.2294 H   0  0  0  0  0  0
  -17.5019  -31.6267   24.5167 H   0  0  0  0  0  0
  -15.5348  -30.3002   23.7653 H   0  0  0  0  0  0
  -15.8653  -28.0841   22.7052 H   0  0  0  0  0  0
  -24.5902  -30.7064   25.7811 H   0  0  0  0  0  0
  -24.8937  -32.2861   26.4941 H   0  0  0  0  0  0
  -25.8092  -30.8859   27.0224 H   0  0  0  0  0  0
  -26.2850  -29.6800   24.1152 H   0  0  0  0  0  0
  -27.4092  -29.7285   25.4547 H   0  0  0  0  0  0
  -27.8673  -30.4370   23.9232 H   0  0  0  0  0  0
  -27.2677  -33.3605   26.2098 H   0  0  0  0  0  0
  -28.3840  -32.6900   25.0298 H   0  0  0  0  0  0
  -28.0741  -31.8419   26.5368 H   0  0  0  0  0  0
  -28.2605  -38.0097   24.7502 H   0  0  0  0  0  0
  -28.1071  -36.2633   24.6302 H   0  0  0  0  0  0
  -27.2293  -37.1476   25.8864 H   0  0  0  0  0  0
  -20.9304  -29.8771   21.6957 H   0  0  0  0  0  0
  -26.0189  -38.2876   24.1400 H   0  0  0  0  0  0
  -30.9130  -23.5420   22.4704 H   0  0  0  0  0  0
  -31.9396  -22.2528   21.9608 H   0  0  0  0  0  0
  -30.8646  -22.0554   23.3513 H   0  0  0  0  0  0
  -27.1273  -23.7287   22.7303 H   0  0  0  0  0  0
  -28.7521  -23.6915   23.3874 H   0  0  0  0  0  0
  -27.8086  -22.2195   23.2511 H   0  0  0  0  0  0
  -26.7279  -23.0825   20.2099 H   0  0  0  0  0  0
  -26.9428  -21.5276   20.9430 H   0  0  0  0  0  0
  -27.8617  -21.9550   19.4985 H   0  0  0  0  0  0
  -32.2208  -18.5192   22.4606 H   0  0  0  0  0  0
  -31.4221  -19.7286   23.4313 H   0  0  0  0  0  0
  -32.3399  -20.1714   21.9793 H   0  0  0  0  0  0
  -30.0672  -24.5611   20.8592 H   0  0  0  0  0  0
  -29.0411  -24.1386   19.5532 H   0  0  0  0  0  0
  -31.6402  -16.8531   21.2771 H   0  0  0  0  0  0
  -30.6308  -17.1290   19.8829 H   0  0  0  0  0  0
  -29.7191  -17.7043   22.7644 H   0  0  0  0  0  0
  -28.7917  -17.9692   21.3130 H   0  0  0  0  0  0
  -28.5458  -20.1453   21.2648 H   0  0  0  0  0  0
  -29.1258  -20.4011   22.8763 H   0  0  0  0  0  0
  -28.3354  -25.8049   22.0039 H   0  0  0  0  0  0
  -27.1061  -25.1722   20.9545 H   0  0  0  0  0  0
  -30.2541  -21.8453   20.4025 H   0  0  0  0  0  0
  -29.1378  -15.3588   21.4134 H   0  0  0  0  0  0
  -30.6967  -19.4131   20.6146 H   0  0  0  0  0  0
  1 25  1  0  0  0
  1 30  2  0  0  0
  1 82  1  0  0  0
  2  3  1  0  0  0
  2 25  1  0  0  0
  2 84  1  0  0  0
  2 85  1  0  0  0
  3  4  1  0  0  0
  3 86  1  0  0  0
  3 87  1  0  0  0
  4  5  1  0  0  0
  4 88  1  0  0  0
  4 89  1  0  0  0
  5  6  1  0  0  0
  5 26  1  0  0  0
  5 90  1  0  0  0
  6 25  1  0  0  0
  6 91  1  0  0  0
  6 92  1  0  0  0
  7  8  2  0  0  0
  7 26  1  0  0  0
  7 29  1  0  0  0
  8  9  1  0  0  0
  8 22  1  0  0  0
  9 10  1  0  0  0
  9 27  2  0  0  0
 10 11  2  0  0  0
 10 15  1  0  0  0
 11 12  1  0  0  0
 11 93  1  0  0  0
 12 13  2  0  0  0
 12 94  1  0  0  0
 13 14  1  0  0  0
 13 31  1  0  0  0
 14 15  2  0  0  0
 14 95  1  0  0  0
 15 96  1  0  0  0
 16 17  2  0  0  0
 16 21  1  0  0  0
 16 31  1  0  0  0
 17 18  1  0  0  0
 17 97  1  0  0  0
 18 19  2  0  0  0
 18 98  1  0  0  0
 19 20  1  0  0  0
 19 24  1  0  0  0
 20 21  2  0  0  0
 20 99  1  0  0  0
 21 23  1  0  0  0
 22 28  1  0  0  0
 22 32  2  0  0  0
 26 27  1  0  0  0
 28100  1  0  0  0
 28101  1  0  0  0
 29102  1  0  0  0
 29103  1  0  0  0
 33 34  1  0  0  0
 33 66  1  0  0  0
 33 70  2  0  0  0
 34 36  1  0  0  0
 34 59  1  0  0  0
 34104  1  0  0  0
 35 44  2  0  0  0
 35 45  1  0  0  0
 35 68  1  0  0  0
 36 56  1  0  0  0
 36105  1  0  0  0
 37 39  1  0  0  0
 37 47  1  0  0  0
 37 66  1  0  0  0
 37106  1  0  0  0
 38 43  2  0  0  0
 38 46  1  0  0  0
 38 47  1  0  0  0
 39 64  1  0  0  0
 39 67  2  0  0  0
 40 52  1  0  0  0
 40 53  2  0  0  0
 40 58  1  0  0  0
 41107  1  0  0  0
 41108  1  0  0  0
 41109  1  0  0  0
 41 48  1  0  0  0
 42 43  1  0  0  0
 42 66  1  0  0  0
 42110  1  0  0  0
 42111  1  0  0  0
 43 44  1  0  0  0
 44112  1  0  0  0
 45 46  2  0  0  0
 45113  1  0  0  0
 46114  1  0  0  0
 47115  1  0  0  0
 47116  1  0  0  0
 48 56  1  0  0  0
 48 65  1  0  0  0
 48117  1  0  0  0
 49 50  1  0  0  0
 49 53  1  0  0  0
 49 64  1  0  0  0
 49118  1  0  0  0
 50 51  1  0  0  0
 50119  1  0  0  0
 50120  1  0  0  0
 51 52  1  0  0  0
 51121  1  0  0  0
 51122  1  0  0  0
 52123  1  0  0  0
 52124  1  0  0  0
 53 54  1  0  0  0
 54 55  2  0  0  0
 54125  1  0  0  0
 55 57  1  0  0  0
 55126  1  0  0  0
 56 69  2  0  0  0
 57 58  2  0  0  0
 57127  1  0  0  0
 58128  1  0  0  0
 59 60  1  0  0  0
 59 61  1  0  0  0
 59 62  1  0  0  0
 60129  1  0  0  0
 60130  1  0  0  0
 60131  1  0  0  0
 61132  1  0  0  0
 61133  1  0  0  0
 61134  1  0  0  0
 62135  1  0  0  0
 62136  1  0  0  0
 62137  1  0  0  0
 63 65  1  0  0  0
 63138  1  0  0  0
 63139  1  0  0  0
 63140  1  0  0  0
 64141  1  0  0  0
 65142  1  0  0  0
 68 79  1  0  0  0
 71143  1  0  0  0
 71144  1  0  0  0
 71145  1  0  0  0
 71 80  1  0  0  0
 72146  1  0  0  0
 72147  1  0  0  0
 72148  1  0  0  0
 72 81  1  0  0  0
 73 81  1  0  0  0
 73149  1  0  0  0
 73150  1  0  0  0
 73151  1  0  0  0
 74152  1  0  0  0
 74153  1  0  0  0
 74154  1  0  0  0
 74 83  1  0  0  0
 75 79  1  0  0  0
 75 81  1  0  0  0
 75155  1  0  0  0
 75156  1  0  0  0
 76 77  1  0  0  0
 76 82  1  0  0  0
 76157  1  0  0  0
 76158  1  0  0  0
 77 83  1  0  0  0
 77159  1  0  0  0
 77160  1  0  0  0
 78 80  1  0  0  0
 78 83  1  0  0  0
 78161  1  0  0  0
 78162  1  0  0  0
 79163  1  0  0  0
 79164  1  0  0  0
 80 81  1  0  0  0
 80165  1  0  0  0
 82166  1  0  0  0
 83167  1  0  0  0
M  CHG  1  83   1
M  ISO  4   1 100  68 101  79 101  82 100
M  END
> <chiral flag>
0

> <version>
0

> <s_m_source_file>
/data/baiqing/PycharmProjects/Reinvent-master-3.2/result/LINK_invent/BTK/process_docking_weight1_custom_sum_contain_oxygen_bond_distance_aromatic_linkinvent_7_9_3/rearranged_h_0093.sdf

> <i_m_source_file_index>
27

> <r_mmod_Potential_Energy-OPLS-2005>
-106.367568969727

> <r_mmod_Stretch_Energy-OPLS-2005>
46.807315826416

> <r_mmod_Bend_Energy-OPLS-2005>
108.389755249023

> <r_mmod_Torsional_Energy-OPLS-2005>
267.766967773438

> <r_mmod_Improper_Torsional_Energy-OPLS-2005>
4.0687141418457

> <r_mmod_Van_der_Waal_Energy-OPLS-2005>
163.607879638672

> <r_mmod_Electrostatic_Energy-OPLS-2005>
-267.099212646484

> <r_mmod_Solvation_Energy-OPLS-2005>
-444.139770507812

> <b_mmod_Minimization_Converged-OPLS-2005>
0

> <r_mmod_RMS_Derivative-OPLS-2005>
0.922830045223236

$$$$
27
                    3D
 Structure written by MMmdl.
182190  0  0  1  0            999 V2000
  -30.6792  -14.4773   20.5713 C   0  0  0  0  0  0
  -30.4300  -12.3063   19.4316 C   0  0  0  0  0  0
  -29.5006  -12.5151   18.2155 C   0  0  0  0  0  0
  -28.0197  -12.3719   18.6207 C   0  0  0  0  0  0
  -27.6647  -13.2048   19.8818 C   0  0  2  0  0  0
  -28.7057  -12.9716   21.0036 C   0  0  0  0  0  0
  -25.2590  -13.8166   20.5661 C   0  0  0  0  0  0
  -24.1835  -13.0425   20.9148 C   0  0  0  0  0  0
  -24.6395  -11.6907   20.8709 C   0  0  0  0  0  0
  -23.9072  -10.4286   21.0388 C   0  0  0  0  0  0
  -24.3626   -9.4200   21.9161 C   0  0  0  0  0  0
  -23.6295   -8.2242   22.0751 C   0  0  0  0  0  0
  -22.4278   -8.0275   21.3552 C   0  0  0  0  0  0
  -21.9908   -9.0241   20.4648 C   0  0  0  0  0  0
  -22.7244  -10.2121   20.3040 C   0  0  0  0  0  0
  -21.6844   -6.0722   22.5272 C   0  0  0  0  0  0
  -21.4016   -6.5629   23.8209 C   0  0  0  0  0  0
  -21.3670   -5.6788   24.9175 C   0  0  0  0  0  0
  -21.6042   -4.3049   24.7224 C   0  0  0  0  0  0
  -21.8822   -3.8138   23.4350 C   0  0  0  0  0  0
  -21.9198   -4.6950   22.3407 C   0  0  0  0  0  0
  -22.7860  -13.5225   21.1817 C   0  0  0  0  0  0
  -22.1655   -4.2140   21.0984 F   0  0  0  0  0  0
  -21.5635   -3.4535   25.7746 F   0  0  0  0  0  0
  -30.0424  -13.2801   20.4651 N   0  0  0  0  0  0
  -26.3028  -12.9324   20.3380 N   0  0  0  0  0  0
  -25.9323  -11.6487   20.5756 N   0  0  0  0  0  0
  -22.0533  -12.8200   22.0396 N   0  0  0  0  0  0
  -25.4270  -15.1886   20.4086 N   0  0  0  0  0  0
  -31.7840  -14.7007   20.0669 O   0  0  0  0  0  0
  -21.6644   -6.8869   21.4248 O   0  0  0  0  0  0
  -22.3532  -14.5518   20.6675 O   0  0  0  0  0  0
  -24.6065  -31.8718   23.2087 C   0  0  0  0  0  0
  -25.8938  -32.4876   23.8400 C   0  0  1  0  0  0
  -27.2290  -27.4440   20.0758 C   0  0  0  0  0  0
  -25.5768  -33.8678   24.2278 N   0  0  0  0  0  0
  -23.3961  -30.4932   21.5545 C   0  0  2  0  0  0
  -24.8392  -28.9633   20.1225 C   0  0  0  0  0  0
  -22.7383  -29.4639   22.5013 C   0  0  0  0  0  0
  -18.0247  -28.1360   22.8489 C   0  0  0  0  0  0
  -24.1467  -36.7395   23.2640 C   0  0  0  0  0  0
  -25.9239  -30.8406   21.3579 C   0  0  0  0  0  0
  -26.0020  -29.4724   20.7130 C   0  0  0  0  0  0
  -27.1985  -28.7191   20.6879 C   0  0  0  0  0  0
  -26.0312  -26.9408   19.5102 C   0  0  0  0  0  0
  -24.8457  -27.6944   19.5283 C   0  0  0  0  0  0
  -23.6021  -29.8267   20.1704 C   0  0  0  0  0  0
  -25.4090  -36.3158   24.0305 C   0  0  1  0  0  0
  -20.5831  -28.3660   23.1345 C   0  0  2  0  0  0
  -20.6724  -26.9398   22.5436 C   0  0  0  0  0  0
  -19.5707  -26.6374   21.5220 C   0  0  0  0  0  0
  -18.1898  -26.7897   22.1645 C   0  0  0  0  0  0
  -19.1499  -28.8812   23.2927 C   0  0  0  0  0  0
  -18.9431  -30.1408   23.8954 C   0  0  0  0  0  0
  -17.6436  -30.6576   24.0542 C   0  0  0  0  0  0
  -25.8996  -34.9522   23.5103 C   0  0  0  0  0  0
  -16.5325  -29.9085   23.6306 C   0  0  0  0  0  0
  -16.7238  -28.6500   23.0325 C   0  0  0  0  0  0
  -26.4348  -31.6691   25.0759 C   0  0  0  0  0  0
  -25.3572  -31.3853   26.1489 C   0  0  0  0  0  0
  -27.0143  -30.3115   24.6149 C   0  0  0  0  0  0
  -27.5898  -32.4436   25.7546 C   0  0  0  0  0  0
  -27.5584  -37.1834   24.8442 C   0  0  0  0  0  0
  -21.4110  -29.3056   22.3787 N   0  0  0  0  0  0
  -26.4290  -37.3821   23.9392 N   0  0  0  0  0  0
  -24.6624  -31.0800   22.1012 N   0  0  0  0  0  0
  -23.4170  -28.8129   23.2988 O   0  0  0  0  0  0
  -28.4265  -26.7530   20.0587 O   0  0  0  0  0  0
  -26.5630  -34.8964   22.4707 O   0  0  0  0  0  0
  -23.5253  -32.1459   23.7477 O   0  0  0  0  0  0
  -29.8393  -21.2432   19.5287 C   0  0  0  0  0  0
  -28.3799  -19.9201   21.4733 C   0  0  0  0  0  0
  -29.5981  -19.3421   21.0363 C   0  0  0  0  0  0
  -30.3673  -20.0487   20.0743 C   0  0  0  0  0  0
  -28.5969  -21.7438   19.9642 C   0  0  0  0  0  0
  -26.3000  -21.6285   17.9420 C   0  0  0  0  0  0
  -34.8128  -20.4443   16.6880 C   0  0  0  0  0  0
  -36.4270  -20.2543   18.5894 C   0  0  0  0  0  0
  -34.8993  -22.2319   18.4651 C   0  0  0  0  0  0
  -30.0338  -17.9743   21.5870 C   0  0  0  0  0  0
  -26.5412  -22.8357   18.8651 C   0  0  0  0  0  0
  -33.9832  -19.9168   19.0347 C   0  0  0  0  0  0
  -28.2047  -24.2891   20.1899 C   0  0  0  0  0  0
  -29.8786  -16.8404   20.5420 C   0  0  0  0  0  0
  -32.5254  -20.3842   18.8908 C   0  0  0  0  0  0
  -28.5231  -25.5296   19.3232 C   0  0  0  0  0  0
  -28.0045  -23.0109   19.3354 C   0  0  1  0  0  0
  -35.0121  -20.7161   18.1935 C   0  0  0  0  0  0
  -27.9362  -21.0840   20.9426 N   0  3  0  0  0  0
  -31.6192  -19.5539   19.6733 N   0  0  0  0  0  0
  -29.9245  -15.4705   21.0788 N   0  0  0  0  0  0
  -31.4747  -12.4107   19.1323 H   0  0  0  0  0  0
  -30.3315  -11.2921   19.8225 H   0  0  0  0  0  0
  -29.7438  -11.8008   17.4285 H   0  0  0  0  0  0
  -29.6671  -13.5067   17.7909 H   0  0  0  0  0  0
  -27.8237  -11.3149   18.8033 H   0  0  0  0  0  0
  -27.3746  -12.6580   17.7894 H   0  0  0  0  0  0
  -27.7121  -14.2538   19.5900 H   0  0  0  0  0  0
  -28.6799  -11.9314   21.3316 H   0  0  0  0  0  0
  -28.4655  -13.5590   21.8910 H   0  0  0  0  0  0
  -25.2780   -9.5658   22.4718 H   0  0  0  0  0  0
  -23.9996   -7.4637   22.7465 H   0  0  0  0  0  0
  -21.0836   -8.8759   19.8952 H   0  0  0  0  0  0
  -22.3702  -10.9650   19.6133 H   0  0  0  0  0  0
  -21.2009   -7.6143   23.9707 H   0  0  0  0  0  0
  -21.1485   -6.0526   25.9083 H   0  0  0  0  0  0
  -22.0599   -2.7602   23.2860 H   0  0  0  0  0  0
  -22.4176  -11.9853   22.4751 H   0  0  0  0  0  0
  -21.1157  -13.1200   22.2655 H   0  0  0  0  0  0
  -24.6530  -15.8372   20.5052 H   0  0  0  0  0  0
  -26.2804  -15.6357   20.0982 H   0  0  0  0  0  0
  -26.7023  -32.5602   23.1193 H   0  0  0  0  0  0
  -24.9664  -33.9847   25.0240 H   0  0  0  0  0  0
  -22.6836  -31.3087   21.4134 H   0  0  0  0  0  0
  -23.3698  -35.9761   23.3291 H   0  0  0  0  0  0
  -24.3551  -36.9059   22.2063 H   0  0  0  0  0  0
  -23.7272  -37.6600   23.6702 H   0  0  0  0  0  0
  -26.0052  -31.5953   20.5744 H   0  0  0  0  0  0
  -26.8219  -30.9230   21.9598 H   0  0  0  0  0  0
  -28.1028  -29.1130   21.1323 H   0  0  0  0  0  0
  -25.9649  -25.9645   19.0579 H   0  0  0  0  0  0
  -23.9416  -27.2879   19.0940 H   0  0  0  0  0  0
  -23.7061  -30.5944   19.4031 H   0  0  0  0  0  0
  -22.7264  -29.2412   19.8816 H   0  0  0  0  0  0
  -25.1271  -36.2037   25.0795 H   0  0  0  0  0  0
  -20.9919  -28.3223   24.1458 H   0  0  0  0  0  0
  -20.5582  -26.2294   23.3628 H   0  0  0  0  0  0
  -21.6601  -26.7413   22.1252 H   0  0  0  0  0  0
  -19.6853  -25.6292   21.1226 H   0  0  0  0  0  0
  -19.6625  -27.3189   20.6746 H   0  0  0  0  0  0
  -17.4163  -26.6626   21.4048 H   0  0  0  0  0  0
  -18.0293  -26.0054   22.9054 H   0  0  0  0  0  0
  -19.7894  -30.7179   24.2410 H   0  0  0  0  0  0
  -17.5003  -31.6267   24.5129 H   0  0  0  0  0  0
  -15.5320  -30.3004   23.7643 H   0  0  0  0  0  0
  -15.8626  -28.0849   22.7022 H   0  0  0  0  0  0
  -24.5670  -30.7293   25.7822 H   0  0  0  0  0  0
  -24.8810  -32.3044   26.4925 H   0  0  0  0  0  0
  -25.7834  -30.9006   27.0282 H   0  0  0  0  0  0
  -26.2701  -29.6982   24.1045 H   0  0  0  0  0  0
  -27.3706  -29.7267   25.4648 H   0  0  0  0  0  0
  -27.8623  -30.4396   23.9408 H   0  0  0  0  0  0
  -27.2441  -33.3706   26.2138 H   0  0  0  0  0  0
  -28.3686  -32.7087   25.0387 H   0  0  0  0  0  0
  -28.0578  -31.8588   26.5472 H   0  0  0  0  0  0
  -28.2570  -38.0159   24.7512 H   0  0  0  0  0  0
  -28.1110  -36.2688   24.6226 H   0  0  0  0  0  0
  -27.2306  -37.1449   25.8846 H   0  0  0  0  0  0
  -20.9260  -29.8957   21.7173 H   0  0  0  0  0  0
  -26.0183  -38.2904   24.1398 H   0  0  0  0  0  0
  -30.3696  -21.7896   18.7659 H   0  0  0  0  0  0
  -27.7315  -19.4728   22.2148 H   0  0  0  0  0  0
  -25.2477  -21.5683   17.6550 H   0  0  0  0  0  0
  -26.5640  -20.6805   18.4121 H   0  0  0  0  0  0
  -26.8832  -21.7205   17.0264 H   0  0  0  0  0  0
  -35.5604  -20.9665   16.0896 H   0  0  0  0  0  0
  -33.8359  -20.7743   16.3345 H   0  0  0  0  0  0
  -34.8991  -19.3814   16.4566 H   0  0  0  0  0  0
  -37.1926  -20.7896   18.0268 H   0  0  0  0  0  0
  -36.5687  -19.1896   18.4008 H   0  0  0  0  0  0
  -36.6256  -20.4253   19.6480 H   0  0  0  0  0  0
  -35.6743  -22.7921   17.9417 H   0  0  0  0  0  0
  -34.9985  -22.4584   19.5279 H   0  0  0  0  0  0
  -33.9439  -22.6379   18.1303 H   0  0  0  0  0  0
  -29.4516  -17.7444   22.4813 H   0  0  0  0  0  0
  -31.0708  -18.0412   21.9192 H   0  0  0  0  0  0
  -25.8799  -22.7675   19.7314 H   0  0  0  0  0  0
  -26.2305  -23.7316   18.3266 H   0  0  0  0  0  0
  -34.0501  -18.8573   18.7748 H   0  0  0  0  0  0
  -34.2574  -19.9827   20.0904 H   0  0  0  0  0  0
  -27.3230  -24.4664   20.8074 H   0  0  0  0  0  0
  -29.0355  -24.1418   20.8835 H   0  0  0  0  0  0
  -30.6021  -16.9783   19.7367 H   0  0  0  0  0  0
  -28.8995  -16.9368   20.0712 H   0  0  0  0  0  0
  -32.2114  -20.3558   17.8464 H   0  0  0  0  0  0
  -32.4516  -21.4196   19.2268 H   0  0  0  0  0  0
  -27.9195  -25.5548   18.4166 H   0  0  0  0  0  0
  -29.5456  -25.4530   18.9496 H   0  0  0  0  0  0
  -28.5831  -23.1568   18.4209 H   0  0  0  0  0  0
  -27.0377  -21.4486   21.2671 H   0  0  0  0  0  0
  -32.0176  -18.7866   20.2010 H   0  0  0  0  0  0
  -29.0916  -15.1591   21.5567 H   0  0  0  0  0  0
  1 25  1  0  0  0
  1 30  2  0  0  0
  1 91  1  0  0  0
  2  3  1  0  0  0
  2 25  1  0  0  0
  2 92  1  0  0  0
  2 93  1  0  0  0
  3  4  1  0  0  0
  3 94  1  0  0  0
  3 95  1  0  0  0
  4  5  1  0  0  0
  4 96  1  0  0  0
  4 97  1  0  0  0
  5  6  1  0  0  0
  5 26  1  0  0  0
  5 98  1  0  0  0
  6 25  1  0  0  0
  6 99  1  0  0  0
  6100  1  0  0  0
  7  8  2  0  0  0
  7 26  1  0  0  0
  7 29  1  0  0  0
  8  9  1  0  0  0
  8 22  1  0  0  0
  9 10  1  0  0  0
  9 27  2  0  0  0
 10 11  2  0  0  0
 10 15  1  0  0  0
 11 12  1  0  0  0
 11101  1  0  0  0
 12 13  2  0  0  0
 12102  1  0  0  0
 13 14  1  0  0  0
 13 31  1  0  0  0
 14 15  2  0  0  0
 14103  1  0  0  0
 15104  1  0  0  0
 16 17  2  0  0  0
 16 21  1  0  0  0
 16 31  1  0  0  0
 17 18  1  0  0  0
 17105  1  0  0  0
 18 19  2  0  0  0
 18106  1  0  0  0
 19 20  1  0  0  0
 19 24  1  0  0  0
 20 21  2  0  0  0
 20107  1  0  0  0
 21 23  1  0  0  0
 22 28  1  0  0  0
 22 32  2  0  0  0
 26 27  1  0  0  0
 28108  1  0  0  0
 28109  1  0  0  0
 29110  1  0  0  0
 29111  1  0  0  0
 33 34  1  0  0  0
 33 66  1  0  0  0
 33 70  2  0  0  0
 34 36  1  0  0  0
 34 59  1  0  0  0
 34112  1  0  0  0
 35 44  2  0  0  0
 35 45  1  0  0  0
 35 68  1  0  0  0
 36 56  1  0  0  0
 36113  1  0  0  0
 37 39  1  0  0  0
 37 47  1  0  0  0
 37 66  1  0  0  0
 37114  1  0  0  0
 38 43  2  0  0  0
 38 46  1  0  0  0
 38 47  1  0  0  0
 39 64  1  0  0  0
 39 67  2  0  0  0
 40 52  1  0  0  0
 40 53  2  0  0  0
 40 58  1  0  0  0
 41115  1  0  0  0
 41116  1  0  0  0
 41117  1  0  0  0
 41 48  1  0  0  0
 42 43  1  0  0  0
 42 66  1  0  0  0
 42118  1  0  0  0
 42119  1  0  0  0
 43 44  1  0  0  0
 44120  1  0  0  0
 45 46  2  0  0  0
 45121  1  0  0  0
 46122  1  0  0  0
 47123  1  0  0  0
 47124  1  0  0  0
 48 56  1  0  0  0
 48 65  1  0  0  0
 48125  1  0  0  0
 49 50  1  0  0  0
 49 53  1  0  0  0
 49 64  1  0  0  0
 49126  1  0  0  0
 50 51  1  0  0  0
 50127  1  0  0  0
 50128  1  0  0  0
 51 52  1  0  0  0
 51129  1  0  0  0
 51130  1  0  0  0
 52131  1  0  0  0
 52132  1  0  0  0
 53 54  1  0  0  0
 54 55  2  0  0  0
 54133  1  0  0  0
 55 57  1  0  0  0
 55134  1  0  0  0
 56 69  2  0  0  0
 57 58  2  0  0  0
 57135  1  0  0  0
 58136  1  0  0  0
 59 60  1  0  0  0
 59 61  1  0  0  0
 59 62  1  0  0  0
 60137  1  0  0  0
 60138  1  0  0  0
 60139  1  0  0  0
 61140  1  0  0  0
 61141  1  0  0  0
 61142  1  0  0  0
 62143  1  0  0  0
 62144  1  0  0  0
 62145  1  0  0  0
 63 65  1  0  0  0
 63146  1  0  0  0
 63147  1  0  0  0
 63148  1  0  0  0
 64149  1  0  0  0
 65150  1  0  0  0
 68 86  1  0  0  0
 71 74  2  0  0  0
 71 75  1  0  0  0
 71151  1  0  0  0
 72 73  2  0  0  0
 72 89  1  0  0  0
 72152  1  0  0  0
 73 74  1  0  0  0
 73 80  1  0  0  0
 74 90  1  0  0  0
 75 87  1  0  0  0
 75 89  2  0  0  0
 76 81  1  0  0  0
 76153  1  0  0  0
 76154  1  0  0  0
 76155  1  0  0  0
 77156  1  0  0  0
 77157  1  0  0  0
 77158  1  0  0  0
 77 88  1  0  0  0
 78 88  1  0  0  0
 78159  1  0  0  0
 78160  1  0  0  0
 78161  1  0  0  0
 79 88  1  0  0  0
 79162  1  0  0  0
 79163  1  0  0  0
 79164  1  0  0  0
 80 84  1  0  0  0
 80165  1  0  0  0
 80166  1  0  0  0
 81167  1  0  0  0
 81168  1  0  0  0
 81 87  1  0  0  0
 82 85  1  0  0  0
 82 88  1  0  0  0
 82169  1  0  0  0
 82170  1  0  0  0
 83 86  1  0  0  0
 83 87  1  0  0  0
 83171  1  0  0  0
 83172  1  0  0  0
 84 91  1  0  0  0
 84173  1  0  0  0
 84174  1  0  0  0
 85 90  1  0  0  0
 85175  1  0  0  0
 85176  1  0  0  0
 86177  1  0  0  0
 86178  1  0  0  0
 87179  1  0  0  0
 89180  1  0  0  0
 90181  1  0  0  0
 91182  1  0  0  0
M  CHG  1  89   1
M  ISO  4   1 100  68 101  86 101  91 100
M  END
> <chiral flag>
0

> <version>
0

> <s_m_source_file>
/data/baiqing/PycharmProjects/Reinvent-master-3.2/result/LINK_invent/BTK/process_docking_weight1_custom_sum_contain_oxygen_bond_distance_aromatic_linkinvent_7_9_3/rearranged_h_0093.sdf

> <i_m_source_file_index>
28

> <r_mmod_Potential_Energy-OPLS-2005>
-151.48210144043

> <r_mmod_Stretch_Energy-OPLS-2005>
39.1948013305664

> <r_mmod_Bend_Energy-OPLS-2005>
118.866653442383

> <r_mmod_Torsional_Energy-OPLS-2005>
206.877822875977

> <r_mmod_Improper_Torsional_Energy-OPLS-2005>
7.97725009918213

> <r_mmod_Van_der_Waal_Energy-OPLS-2005>
162.618026733398

> <r_mmod_Electrostatic_Energy-OPLS-2005>
-284.787536621094

> <r_mmod_Solvation_Energy-OPLS-2005>
-414.4404296875

> <b_mmod_Minimization_Converged-OPLS-2005>
0

> <r_mmod_RMS_Derivative-OPLS-2005>
3.76112794876099

$$$$
28
                    3D
 Structure written by MMmdl.
159166  0  0  1  0            999 V2000
  -30.6859  -14.4443   20.5911 C   0  0  0  0  0  0
  -30.4293  -12.2921   19.4201 C   0  0  0  0  0  0
  -29.4975  -12.4998   18.2095 C   0  0  0  0  0  0
  -28.0155  -12.3788   18.6193 C   0  0  0  0  0  0
  -27.6669  -13.1998   19.8875 C   0  0  2  0  0  0
  -28.7042  -12.9461   21.0042 C   0  0  0  0  0  0
  -25.2622  -13.8146   20.5662 C   0  0  0  0  0  0
  -24.1847  -13.0445   20.9168 C   0  0  0  0  0  0
  -24.6379  -11.6909   20.8736 C   0  0  0  0  0  0
  -23.9047  -10.4306   21.0405 C   0  0  0  0  0  0
  -24.3608   -9.4213   21.9170 C   0  0  0  0  0  0
  -23.6282   -8.2258   22.0755 C   0  0  0  0  0  0
  -22.4263   -8.0296   21.3553 C   0  0  0  0  0  0
  -21.9890   -9.0268   20.4653 C   0  0  0  0  0  0
  -22.7224  -10.2145   20.3043 C   0  0  0  0  0  0
  -21.6860   -6.0717   22.5269 C   0  0  0  0  0  0
  -21.4028   -6.5629   23.8205 C   0  0  0  0  0  0
  -21.3664   -5.6781   24.9167 C   0  0  0  0  0  0
  -21.6039   -4.3041   24.7216 C   0  0  0  0  0  0
  -21.8833   -3.8135   23.4348 C   0  0  0  0  0  0
  -21.9206   -4.6948   22.3402 C   0  0  0  0  0  0
  -22.7874  -13.5268   21.1860 C   0  0  0  0  0  0
  -22.1672   -4.2127   21.0979 F   0  0  0  0  0  0
  -21.5629   -3.4540   25.7742 F   0  0  0  0  0  0
  -30.0393  -13.2568   20.4594 N   0  0  0  0  0  0
  -26.3048  -12.9299   20.3398 N   0  0  0  0  0  0
  -25.9301  -11.6465   20.5770 N   0  0  0  0  0  0
  -22.0498  -12.8251   22.0398 N   0  0  0  0  0  0
  -25.4349  -15.1862   20.4057 N   0  0  0  0  0  0
  -31.7912  -14.6754   20.0913 O   0  0  0  0  0  0
  -21.6658   -6.8861   21.4228 O   0  0  0  0  0  0
  -22.3566  -14.5556   20.6682 O   0  0  0  0  0  0
  -24.6148  -31.8703   23.2132 C   0  0  0  0  0  0
  -25.9045  -32.4840   23.8421 C   0  0  1  0  0  0
  -27.2252  -27.4364   20.0738 C   0  0  0  0  0  0
  -25.5912  -33.8639   24.2355 N   0  0  0  0  0  0
  -23.4000  -30.4978   21.5558 C   0  0  2  0  0  0
  -24.8400  -28.9676   20.1163 C   0  0  0  0  0  0
  -22.7409  -29.4673   22.5028 C   0  0  0  0  0  0
  -18.0272  -28.1387   22.8496 C   0  0  0  0  0  0
  -24.1488  -36.7312   23.2638 C   0  0  0  0  0  0
  -25.9305  -30.8357   21.3649 C   0  0  0  0  0  0
  -26.0039  -29.4717   20.7066 C   0  0  0  0  0  0
  -27.1992  -28.7158   20.6776 C   0  0  0  0  0  0
  -26.0284  -26.9398   19.5005 C   0  0  0  0  0  0
  -24.8465  -27.7003   19.5143 C   0  0  0  0  0  0
  -23.6044  -29.8371   20.1681 C   0  0  0  0  0  0
  -25.4111  -36.3121   24.0347 C   0  0  1  0  0  0
  -20.5859  -28.3670   23.1331 C   0  0  2  0  0  0
  -20.6766  -26.9413   22.5422 C   0  0  0  0  0  0
  -19.5749  -26.6390   21.5214 C   0  0  0  0  0  0
  -18.1923  -26.7931   22.1619 C   0  0  0  0  0  0
  -19.1519  -28.8840   23.2907 C   0  0  0  0  0  0
  -18.9444  -30.1456   23.8912 C   0  0  0  0  0  0
  -17.6445  -30.6582   24.0569 C   0  0  0  0  0  0
  -25.9038  -34.9489   23.5147 C   0  0  0  0  0  0
  -16.5335  -29.9082   23.6325 C   0  0  0  0  0  0
  -16.7267  -28.6496   23.0339 C   0  0  0  0  0  0
  -26.4482  -31.6610   25.0738 C   0  0  0  0  0  0
  -25.3757  -31.3687   26.1488 C   0  0  0  0  0  0
  -27.0313  -30.3063   24.6092 C   0  0  0  0  0  0
  -27.6082  -32.4320   25.7484 C   0  0  0  0  0  0
  -27.5589  -37.1811   24.8472 C   0  0  0  0  0  0
  -21.4132  -29.3032   22.3740 N   0  0  0  0  0  0
  -26.4296  -37.3808   23.9419 N   0  0  0  0  0  0
  -24.6672  -31.0819   22.1024 N   0  0  0  0  0  0
  -23.4200  -28.8206   23.3034 O   0  0  0  0  0  0
  -28.4152  -26.7297   20.0581 O   0  0  0  0  0  0
  -26.5594  -34.8935   22.4701 O   0  0  0  0  0  0
  -23.5347  -32.1447   23.7536 O   0  0  0  0  0  0
  -30.2624  -19.4993   19.5390 C   0  0  0  0  0  0
  -27.8901  -24.5086   20.9738 C   0  0  0  0  0  0
  -30.1820  -16.8637   21.0616 C   0  0  0  0  0  0
  -28.9544  -17.5760   20.4265 C   0  0  0  0  0  0
  -27.8257  -19.6683   19.7114 C   0  0  0  0  0  0
  -28.3983  -25.3209   19.7618 C   0  0  0  0  0  0
  -27.1443  -23.1948   20.6587 C   0  0  0  0  0  0
  -27.2499  -20.8444   20.5252 C   0  0  0  0  0  0
  -29.9512  -15.4153   21.1589 N   0  0  0  0  0  0
  -29.0617  -19.0618   20.2920 N   0  3  1  0  0  0
  -27.9808  -22.0692   20.3679 O   0  0  0  0  0  0
  -31.4715  -12.4144   19.1158 H   0  0  0  0  0  0
  -30.3493  -11.2714   19.7984 H   0  0  0  0  0  0
  -29.7273  -11.7706   17.4308 H   0  0  0  0  0  0
  -29.6848  -13.4818   17.7731 H   0  0  0  0  0  0
  -27.8074  -11.3228   18.7938 H   0  0  0  0  0  0
  -27.3750  -12.6826   17.7917 H   0  0  0  0  0  0
  -27.7227  -14.2528   19.6119 H   0  0  0  0  0  0
  -28.6710  -11.9036   21.3238 H   0  0  0  0  0  0
  -28.4659  -13.5230   21.9008 H   0  0  0  0  0  0
  -25.2742   -9.5717   22.4751 H   0  0  0  0  0  0
  -24.0008   -7.4649   22.7473 H   0  0  0  0  0  0
  -21.0817   -8.8778   19.8963 H   0  0  0  0  0  0
  -22.3657  -10.9686   19.6175 H   0  0  0  0  0  0
  -21.2028   -7.6136   23.9696 H   0  0  0  0  0  0
  -21.1461   -6.0512   25.9062 H   0  0  0  0  0  0
  -22.0604   -2.7593   23.2856 H   0  0  0  0  0  0
  -22.4119  -11.9931   22.4796 H   0  0  0  0  0  0
  -21.1119  -13.1305   22.2624 H   0  0  0  0  0  0
  -24.6597  -15.8340   20.4948 H   0  0  0  0  0  0
  -26.2678  -15.6122   20.0226 H   0  0  0  0  0  0
  -26.7114  -32.5546   23.1185 H   0  0  0  0  0  0
  -25.0094  -33.9819   25.0520 H   0  0  0  0  0  0
  -22.6864  -31.3140   21.4239 H   0  0  0  0  0  0
  -23.3761  -35.9634   23.3312 H   0  0  0  0  0  0
  -24.3574  -36.8904   22.2046 H   0  0  0  0  0  0
  -23.7223  -37.6520   23.6628 H   0  0  0  0  0  0
  -26.0461  -31.6096   20.6040 H   0  0  0  0  0  0
  -26.8164  -30.8823   21.9857 H   0  0  0  0  0  0
  -28.1016  -29.1103   21.1240 H   0  0  0  0  0  0
  -25.9705  -25.9715   19.0307 H   0  0  0  0  0  0
  -23.9465  -27.3067   19.0623 H   0  0  0  0  0  0
  -23.7137  -30.6166   19.4127 H   0  0  0  0  0  0
  -22.7251  -29.2625   19.8706 H   0  0  0  0  0  0
  -25.1280  -36.2008   25.0841 H   0  0  0  0  0  0
  -20.9953  -28.3228   24.1449 H   0  0  0  0  0  0
  -20.5658  -26.2283   23.3607 H   0  0  0  0  0  0
  -21.6642  -26.7444   22.1223 H   0  0  0  0  0  0
  -19.6909  -25.6296   21.1243 H   0  0  0  0  0  0
  -19.6691  -27.3202   20.6745 H   0  0  0  0  0  0
  -17.4201  -26.6702   21.4009 H   0  0  0  0  0  0
  -18.0312  -26.0059   22.8998 H   0  0  0  0  0  0
  -19.7920  -30.7276   24.2283 H   0  0  0  0  0  0
  -17.4991  -31.6262   24.5175 H   0  0  0  0  0  0
  -15.5341  -30.2983   23.7630 H   0  0  0  0  0  0
  -15.8672  -28.0825   22.7036 H   0  0  0  0  0  0
  -24.5935  -30.7040   25.7801 H   0  0  0  0  0  0
  -24.8944  -32.2824   26.4979 H   0  0  0  0  0  0
  -25.8118  -30.8815   27.0215 H   0  0  0  0  0  0
  -26.2839  -29.6826   24.1171 H   0  0  0  0  0  0
  -27.4121  -29.7304   25.4534 H   0  0  0  0  0  0
  -27.8662  -30.4401   23.9214 H   0  0  0  0  0  0
  -27.2730  -33.3609   26.2110 H   0  0  0  0  0  0
  -28.3855  -32.6895   25.0277 H   0  0  0  0  0  0
  -28.0793  -31.8411   26.5348 H   0  0  0  0  0  0
  -28.2627  -38.0091   24.7524 H   0  0  0  0  0  0
  -28.1070  -36.2630   24.6299 H   0  0  0  0  0  0
  -27.2309  -37.1463   25.8876 H   0  0  0  0  0  0
  -20.9302  -29.8773   21.6979 H   0  0  0  0  0  0
  -26.0202  -38.2896   24.1411 H   0  0  0  0  0  0
  -31.1844  -19.2508   20.0617 H   0  0  0  0  0  0
  -30.2539  -20.5811   19.4006 H   0  0  0  0  0  0
  -30.2950  -19.0386   18.5482 H   0  0  0  0  0  0
  -27.1783  -25.1351   21.5128 H   0  0  0  0  0  0
  -28.7040  -24.3354   21.6791 H   0  0  0  0  0  0
  -31.0822  -17.0564   20.4758 H   0  0  0  0  0  0
  -30.3717  -17.2603   22.0603 H   0  0  0  0  0  0
  -28.0843  -17.3594   21.0478 H   0  0  0  0  0  0
  -28.7428  -17.1461   19.4458 H   0  0  0  0  0  0
  -27.9805  -19.9772   18.6764 H   0  0  0  0  0  0
  -27.0377  -18.9149   19.6563 H   0  0  0  0  0  0
  -27.8479  -25.0987   18.8472 H   0  0  0  0  0  0
  -29.4223  -25.0164   19.5428 H   0  0  0  0  0  0
  -26.4435  -23.3501   19.8363 H   0  0  0  0  0  0
  -26.5342  -22.9629   21.5348 H   0  0  0  0  0  0
  -27.1534  -20.5855   21.5805 H   0  0  0  0  0  0
  -26.2300  -20.9953   20.1651 H   0  0  0  0  0  0
  -29.0767  -15.1190   21.5692 H   0  0  0  0  0  0
  -29.1534  -19.4338   21.2287 H   0  0  0  0  0  0
  1 25  1  0  0  0
  1 30  2  0  0  0
  1 79  1  0  0  0
  2  3  1  0  0  0
  2 25  1  0  0  0
  2 82  1  0  0  0
  2 83  1  0  0  0
  3  4  1  0  0  0
  3 84  1  0  0  0
  3 85  1  0  0  0
  4  5  1  0  0  0
  4 86  1  0  0  0
  4 87  1  0  0  0
  5  6  1  0  0  0
  5 26  1  0  0  0
  5 88  1  0  0  0
  6 25  1  0  0  0
  6 89  1  0  0  0
  6 90  1  0  0  0
  7  8  2  0  0  0
  7 26  1  0  0  0
  7 29  1  0  0  0
  8  9  1  0  0  0
  8 22  1  0  0  0
  9 10  1  0  0  0
  9 27  2  0  0  0
 10 11  2  0  0  0
 10 15  1  0  0  0
 11 12  1  0  0  0
 11 91  1  0  0  0
 12 13  2  0  0  0
 12 92  1  0  0  0
 13 14  1  0  0  0
 13 31  1  0  0  0
 14 15  2  0  0  0
 14 93  1  0  0  0
 15 94  1  0  0  0
 16 17  2  0  0  0
 16 21  1  0  0  0
 16 31  1  0  0  0
 17 18  1  0  0  0
 17 95  1  0  0  0
 18 19  2  0  0  0
 18 96  1  0  0  0
 19 20  1  0  0  0
 19 24  1  0  0  0
 20 21  2  0  0  0
 20 97  1  0  0  0
 21 23  1  0  0  0
 22 28  1  0  0  0
 22 32  2  0  0  0
 26 27  1  0  0  0
 28 98  1  0  0  0
 28 99  1  0  0  0
 29100  1  0  0  0
 29101  1  0  0  0
 33 34  1  0  0  0
 33 66  1  0  0  0
 33 70  2  0  0  0
 34 36  1  0  0  0
 34 59  1  0  0  0
 34102  1  0  0  0
 35 44  2  0  0  0
 35 45  1  0  0  0
 35 68  1  0  0  0
 36 56  1  0  0  0
 36103  1  0  0  0
 37 39  1  0  0  0
 37 47  1  0  0  0
 37 66  1  0  0  0
 37104  1  0  0  0
 38 43  2  0  0  0
 38 46  1  0  0  0
 38 47  1  0  0  0
 39 64  1  0  0  0
 39 67  2  0  0  0
 40 52  1  0  0  0
 40 53  2  0  0  0
 40 58  1  0  0  0
 41105  1  0  0  0
 41106  1  0  0  0
 41107  1  0  0  0
 41 48  1  0  0  0
 42 43  1  0  0  0
 42 66  1  0  0  0
 42108  1  0  0  0
 42109  1  0  0  0
 43 44  1  0  0  0
 44110  1  0  0  0
 45 46  2  0  0  0
 45111  1  0  0  0
 46112  1  0  0  0
 47113  1  0  0  0
 47114  1  0  0  0
 48 56  1  0  0  0
 48 65  1  0  0  0
 48115  1  0  0  0
 49 50  1  0  0  0
 49 53  1  0  0  0
 49 64  1  0  0  0
 49116  1  0  0  0
 50 51  1  0  0  0
 50117  1  0  0  0
 50118  1  0  0  0
 51 52  1  0  0  0
 51119  1  0  0  0
 51120  1  0  0  0
 52121  1  0  0  0
 52122  1  0  0  0
 53 54  1  0  0  0
 54 55  2  0  0  0
 54123  1  0  0  0
 55 57  1  0  0  0
 55124  1  0  0  0
 56 69  2  0  0  0
 57 58  2  0  0  0
 57125  1  0  0  0
 58126  1  0  0  0
 59 60  1  0  0  0
 59 61  1  0  0  0
 59 62  1  0  0  0
 60127  1  0  0  0
 60128  1  0  0  0
 60129  1  0  0  0
 61130  1  0  0  0
 61131  1  0  0  0
 61132  1  0  0  0
 62133  1  0  0  0
 62134  1  0  0  0
 62135  1  0  0  0
 63 65  1  0  0  0
 63136  1  0  0  0
 63137  1  0  0  0
 63138  1  0  0  0
 64139  1  0  0  0
 65140  1  0  0  0
 68 76  1  0  0  0
 71141  1  0  0  0
 71142  1  0  0  0
 71143  1  0  0  0
 71 80  1  0  0  0
 72 76  1  0  0  0
 72 77  1  0  0  0
 72144  1  0  0  0
 72145  1  0  0  0
 73 74  1  0  0  0
 73 79  1  0  0  0
 73146  1  0  0  0
 73147  1  0  0  0
 74 80  1  0  0  0
 74148  1  0  0  0
 74149  1  0  0  0
 75 78  1  0  0  0
 75 80  1  0  0  0
 75150  1  0  0  0
 75151  1  0  0  0
 76152  1  0  0  0
 76153  1  0  0  0
 77 81  1  0  0  0
 77154  1  0  0  0
 77155  1  0  0  0
 78 81  1  0  0  0
 78156  1  0  0  0
 78157  1  0  0  0
 79158  1  0  0  0
 80159  1  0  0  0
M  CHG  1  80   1
M  ISO  4   1 100  68 101  76 101  79 100
M  END
> <chiral flag>
0

> <version>
0

> <s_m_source_file>
/data/baiqing/PycharmProjects/Reinvent-master-3.2/result/LINK_invent/BTK/process_docking_weight1_custom_sum_contain_oxygen_bond_distance_aromatic_linkinvent_7_9_3/rearranged_h_0093.sdf

> <i_m_source_file_index>
29

> <r_mmod_Potential_Energy-OPLS-2005>
-184.698806762695

> <r_mmod_Stretch_Energy-OPLS-2005>
36.7668724060059

> <r_mmod_Bend_Energy-OPLS-2005>
103.005043029785

> <r_mmod_Torsional_Energy-OPLS-2005>
218.551055908203

> <r_mmod_Improper_Torsional_Energy-OPLS-2005>
4.36458015441895

> <r_mmod_Van_der_Waal_Energy-OPLS-2005>
142.894287109375

> <r_mmod_Electrostatic_Energy-OPLS-2005>
-254.652328491211

> <r_mmod_Solvation_Energy-OPLS-2005>
-446.402557373047

> <b_mmod_Minimization_Converged-OPLS-2005>
0

> <r_mmod_RMS_Derivative-OPLS-2005>
3.39545607566833

$$$$
29
                    3D
 Structure written by MMmdl.
182190  0  0  1  0            999 V2000
  -30.6727  -14.4463   20.5524 C   0  0  0  0  0  0
  -30.4166  -12.2780   19.4246 C   0  0  0  0  0  0
  -29.4954  -12.5050   18.2072 C   0  0  0  0  0  0
  -28.0086  -12.3842   18.6117 C   0  0  0  0  0  0
  -27.6618  -13.2014   19.8834 C   0  0  2  0  0  0
  -28.7050  -12.9524   21.0011 C   0  0  0  0  0  0
  -25.2598  -13.8092   20.5774 C   0  0  0  0  0  0
  -24.1842  -13.0355   20.9227 C   0  0  0  0  0  0
  -24.6387  -11.6801   20.8706 C   0  0  0  0  0  0
  -23.9039  -10.4211   21.0384 C   0  0  0  0  0  0
  -24.3548   -9.4138   21.9231 C   0  0  0  0  0  0
  -23.6188   -8.2201   22.0825 C   0  0  0  0  0  0
  -22.4204   -8.0234   21.3581 C   0  0  0  0  0  0
  -21.9823   -9.0212   20.4723 C   0  0  0  0  0  0
  -22.7184  -10.2073   20.3089 C   0  0  0  0  0  0
  -21.6848   -6.0636   22.5225 C   0  0  0  0  0  0
  -21.4056   -6.5595   23.8129 C   0  0  0  0  0  0
  -21.3658   -5.6771   24.9120 C   0  0  0  0  0  0
  -21.6007   -4.3026   24.7204 C   0  0  0  0  0  0
  -21.8843   -3.8084   23.4349 C   0  0  0  0  0  0
  -21.9204   -4.6868   22.3360 C   0  0  0  0  0  0
  -22.7877  -13.5167   21.1815 C   0  0  0  0  0  0
  -22.1709   -4.2039   21.0951 F   0  0  0  0  0  0
  -21.5598   -3.4528   25.7743 F   0  0  0  0  0  0
  -30.0369  -13.2522   20.4562 N   0  0  0  0  0  0
  -26.3022  -12.9275   20.3430 N   0  0  0  0  0  0
  -25.9301  -11.6410   20.5715 N   0  0  0  0  0  0
  -22.0515  -12.8236   22.0429 N   0  0  0  0  0  0
  -25.4235  -15.1841   20.4215 N   0  0  0  0  0  0
  -31.8110  -14.6448   20.1136 O   0  0  0  0  0  0
  -21.6636   -6.8793   21.4200 O   0  0  0  0  0  0
  -22.3577  -14.5417   20.6519 O   0  0  0  0  0  0
  -24.6067  -31.8721   23.2127 C   0  0  0  0  0  0
  -25.8997  -32.4833   23.8404 C   0  0  1  0  0  0
  -27.2217  -27.4561   20.1083 C   0  0  0  0  0  0
  -25.5898  -33.8631   24.2338 N   0  0  0  0  0  0
  -23.3931  -30.4952   21.5499 C   0  0  2  0  0  0
  -24.8387  -28.9685   20.1143 C   0  0  0  0  0  0
  -22.7378  -29.4674   22.4994 C   0  0  0  0  0  0
  -18.0264  -28.1373   22.8474 C   0  0  0  0  0  0
  -24.1502  -36.7309   23.2629 C   0  0  0  0  0  0
  -25.9195  -30.8469   21.3636 C   0  0  0  0  0  0
  -25.9961  -29.4844   20.7098 C   0  0  0  0  0  0
  -27.1906  -28.7350   20.7031 C   0  0  0  0  0  0
  -26.0506  -26.9558   19.4931 C   0  0  0  0  0  0
  -24.8600  -27.7037   19.5012 C   0  0  0  0  0  0
  -23.5990  -29.8287   20.1634 C   0  0  0  0  0  0
  -25.4117  -36.3094   24.0311 C   0  0  1  0  0  0
  -20.5860  -28.3641   23.1325 C   0  0  2  0  0  0
  -20.6763  -26.9388   22.5409 C   0  0  0  0  0  0
  -19.5757  -26.6389   21.5190 C   0  0  0  0  0  0
  -18.1929  -26.7927   22.1594 C   0  0  0  0  0  0
  -19.1513  -28.8816   23.2902 C   0  0  0  0  0  0
  -18.9449  -30.1428   23.8898 C   0  0  0  0  0  0
  -17.6455  -30.6584   24.0555 C   0  0  0  0  0  0
  -25.9026  -34.9470   23.5105 C   0  0  0  0  0  0
  -16.5342  -29.9083   23.6341 C   0  0  0  0  0  0
  -16.7247  -28.6511   23.0343 C   0  0  0  0  0  0
  -26.4463  -31.6606   25.0713 C   0  0  0  0  0  0
  -25.3764  -31.3709   26.1478 C   0  0  0  0  0  0
  -27.0293  -30.3048   24.6084 C   0  0  0  0  0  0
  -27.6043  -32.4327   25.7488 C   0  0  0  0  0  0
  -27.5584  -37.1809   24.8456 C   0  0  0  0  0  0
  -21.4123  -29.3021   22.3752 N   0  0  0  0  0  0
  -26.4307  -37.3776   23.9394 N   0  0  0  0  0  0
  -24.6570  -31.0855   22.0999 N   0  0  0  0  0  0
  -23.4183  -28.8200   23.2996 O   0  0  0  0  0  0
  -28.3990  -26.7478   20.1473 O   0  0  0  0  0  0
  -26.5589  -34.8914   22.4668 O   0  0  0  0  0  0
  -23.5260  -32.1468   23.7530 O   0  0  0  0  0  0
  -28.7032  -21.1748   21.1443 C   0  0  0  0  0  0
  -29.5978  -20.5779   20.2463 C   0  0  0  0  0  0
  -30.6494  -21.3708   19.6801 C   0  0  0  0  0  0
  -30.6857  -22.7766   20.0221 C   0  0  0  0  0  0
  -29.6454  -23.2648   20.8729 C   0  0  0  0  0  0
  -31.7304  -19.5661   16.3299 C   0  0  0  0  0  0
  -32.3950  -19.5000   19.2468 C   0  0  0  0  0  0
  -35.2344  -22.3376   18.9723 C   0  0  0  0  0  0
  -34.5736  -23.7264   20.9963 C   0  0  0  0  0  0
  -29.2777  -19.1285   19.8514 C   0  0  0  0  0  0
  -31.6534  -23.8734   19.4833 C   0  0  0  0  0  0
  -29.3715  -24.7558   21.1288 C   0  0  0  0  0  0
  -31.0055  -20.5506   17.2683 C   0  0  0  0  0  0
  -29.6643  -18.0136   20.8533 C   0  0  0  0  0  0
  -33.0671  -23.6412   18.9127 C   0  0  0  0  0  0
  -29.8012  -16.6847   20.0764 C   0  0  0  0  0  0
  -28.3169  -25.3203   20.1597 C   0  0  0  0  0  0
  -31.6266  -20.7135   18.6797 C   0  0  1  0  0  0
  -34.0654  -22.8739   19.8173 C   0  0  0  0  0  0
  -28.7169  -22.4776   21.4425 N   0  0  0  0  0  0
  -29.8665  -15.4674   20.8895 N   0  0  0  0  0  0
  -31.4642  -12.3679   19.1347 H   0  0  0  0  0  0
  -30.3017  -11.2608   19.8008 H   0  0  0  0  0  0
  -29.7210  -11.7793   17.4237 H   0  0  0  0  0  0
  -29.6814  -13.4941   17.7832 H   0  0  0  0  0  0
  -27.7917  -11.3268   18.7760 H   0  0  0  0  0  0
  -27.3741  -12.7090   17.7869 H   0  0  0  0  0  0
  -27.7046  -14.2518   19.5891 H   0  0  0  0  0  0
  -28.6745  -11.9082   21.3212 H   0  0  0  0  0  0
  -28.4871  -13.5412   21.8903 H   0  0  0  0  0  0
  -25.2717   -9.5574   22.4789 H   0  0  0  0  0  0
  -23.9828   -7.4590   22.7576 H   0  0  0  0  0  0
  -21.0730   -8.8714   19.9071 H   0  0  0  0  0  0
  -22.3647  -10.9559   19.6136 H   0  0  0  0  0  0
  -21.2153   -7.6110   23.9590 H   0  0  0  0  0  0
  -21.1473   -6.0551   25.8995 H   0  0  0  0  0  0
  -22.0651   -2.7555   23.2878 H   0  0  0  0  0  0
  -22.4106  -11.9898   22.4836 H   0  0  0  0  0  0
  -21.1188  -13.1396   22.2665 H   0  0  0  0  0  0
  -24.6328  -15.8153   20.5062 H   0  0  0  0  0  0
  -26.2432  -15.6280   20.0298 H   0  0  0  0  0  0
  -26.7062  -32.5565   23.1168 H   0  0  0  0  0  0
  -25.0101  -33.9845   25.0508 H   0  0  0  0  0  0
  -22.6751  -31.3052   21.4099 H   0  0  0  0  0  0
  -23.3754  -35.9664   23.3309 H   0  0  0  0  0  0
  -24.3582  -36.8904   22.2045 H   0  0  0  0  0  0
  -23.7297  -37.6521   23.6648 H   0  0  0  0  0  0
  -26.0349  -31.6225   20.6032 H   0  0  0  0  0  0
  -26.8033  -30.8927   21.9857 H   0  0  0  0  0  0
  -28.0846  -29.1227   21.1715 H   0  0  0  0  0  0
  -26.0439  -25.9951   18.9980 H   0  0  0  0  0  0
  -23.9712  -27.3008   19.0341 H   0  0  0  0  0  0
  -23.7001  -30.5996   19.3975 H   0  0  0  0  0  0
  -22.7272  -29.2381   19.8737 H   0  0  0  0  0  0
  -25.1313  -36.1945   25.0804 H   0  0  0  0  0  0
  -20.9924  -28.3188   24.1456 H   0  0  0  0  0  0
  -20.5650  -26.2240   23.3576 H   0  0  0  0  0  0
  -21.6644  -26.7449   22.1213 H   0  0  0  0  0  0
  -19.6922  -25.6307   21.1207 H   0  0  0  0  0  0
  -19.6710  -27.3209   20.6732 H   0  0  0  0  0  0
  -17.4204  -26.6658   21.3994 H   0  0  0  0  0  0
  -18.0332  -26.0070   22.8989 H   0  0  0  0  0  0
  -19.7922  -30.7249   24.2266 H   0  0  0  0  0  0
  -17.5008  -31.6252   24.5168 H   0  0  0  0  0  0
  -15.5341  -30.2974   23.7670 H   0  0  0  0  0  0
  -15.8656  -28.0819   22.7059 H   0  0  0  0  0  0
  -24.5918  -30.7071   25.7828 H   0  0  0  0  0  0
  -24.8987  -32.2869   26.4966 H   0  0  0  0  0  0
  -25.8133  -30.8856   27.0216 H   0  0  0  0  0  0
  -26.2829  -29.6807   24.1151 H   0  0  0  0  0  0
  -27.4073  -29.7276   25.4534 H   0  0  0  0  0  0
  -27.8664  -30.4346   23.9222 H   0  0  0  0  0  0
  -27.2653  -33.3604   26.2120 H   0  0  0  0  0  0
  -28.3846  -32.6931   25.0323 H   0  0  0  0  0  0
  -28.0737  -31.8433   26.5372 H   0  0  0  0  0  0
  -28.2594  -38.0110   24.7484 H   0  0  0  0  0  0
  -28.1081  -36.2635   24.6308 H   0  0  0  0  0  0
  -27.2286  -37.1479   25.8852 H   0  0  0  0  0  0
  -20.9249  -29.8740   21.7002 H   0  0  0  0  0  0
  -26.0172  -38.2843   24.1404 H   0  0  0  0  0  0
  -27.8927  -20.6086   21.5797 H   0  0  0  0  0  0
  -31.3042  -19.6020   15.3267 H   0  0  0  0  0  0
  -31.6475  -18.5382   16.6844 H   0  0  0  0  0  0
  -32.7900  -19.7994   16.2263 H   0  0  0  0  0  0
  -32.8174  -19.7339   20.2221 H   0  0  0  0  0  0
  -33.2279  -19.2193   18.6016 H   0  0  0  0  0  0
  -31.7993  -18.6057   19.3587 H   0  0  0  0  0  0
  -35.8936  -21.7101   19.5702 H   0  0  0  0  0  0
  -35.8333  -23.1457   18.5481 H   0  0  0  0  0  0
  -34.8748  -21.7270   18.1415 H   0  0  0  0  0  0
  -35.3010  -23.1698   21.5890 H   0  0  0  0  0  0
  -33.7584  -23.9938   21.6713 H   0  0  0  0  0  0
  -35.0561  -24.6458   20.6595 H   0  0  0  0  0  0
  -29.7007  -18.8893   18.8847 H   0  0  0  0  0  0
  -28.2053  -19.0569   19.6640 H   0  0  0  0  0  0
  -31.8831  -24.5377   20.3133 H   0  0  0  0  0  0
  -31.0826  -24.4637   18.7631 H   0  0  0  0  0  0
  -30.2485  -25.3925   21.1098 H   0  0  0  0  0  0
  -29.0025  -24.8750   22.1484 H   0  0  0  0  0  0
  -29.9570  -20.2686   17.3311 H   0  0  0  0  0  0
  -30.9734  -21.5326   16.7961 H   0  0  0  0  0  0
  -28.9157  -17.9408   21.6421 H   0  0  0  0  0  0
  -30.6103  -18.2481   21.3385 H   0  0  0  0  0  0
  -33.4942  -24.6256   18.7118 H   0  0  0  0  0  0
  -32.9927  -23.2244   17.9070 H   0  0  0  0  0  0
  -30.6494  -16.7456   19.3950 H   0  0  0  0  0  0
  -28.9365  -16.5626   19.4212 H   0  0  0  0  0  0
  -27.3461  -24.9405   20.4811 H   0  0  0  0  0  0
  -28.4887  -24.9651   19.1425 H   0  0  0  0  0  0
  -32.4466  -21.3661   18.4962 H   0  0  0  0  0  0
  -33.5635  -22.0124   20.2568 H   0  0  0  0  0  0
  -28.9865  -15.1808   21.2940 H   0  0  0  0  0  0
  1 25  1  0  0  0
  1 30  2  0  0  0
  1 91  1  0  0  0
  2  3  1  0  0  0
  2 25  1  0  0  0
  2 92  1  0  0  0
  2 93  1  0  0  0
  3  4  1  0  0  0
  3 94  1  0  0  0
  3 95  1  0  0  0
  4  5  1  0  0  0
  4 96  1  0  0  0
  4 97  1  0  0  0
  5  6  1  0  0  0
  5 26  1  0  0  0
  5 98  1  0  0  0
  6 25  1  0  0  0
  6 99  1  0  0  0
  6100  1  0  0  0
  7  8  2  0  0  0
  7 26  1  0  0  0
  7 29  1  0  0  0
  8  9  1  0  0  0
  8 22  1  0  0  0
  9 10  1  0  0  0
  9 27  2  0  0  0
 10 11  2  0  0  0
 10 15  1  0  0  0
 11 12  1  0  0  0
 11101  1  0  0  0
 12 13  2  0  0  0
 12102  1  0  0  0
 13 14  1  0  0  0
 13 31  1  0  0  0
 14 15  2  0  0  0
 14103  1  0  0  0
 15104  1  0  0  0
 16 17  2  0  0  0
 16 21  1  0  0  0
 16 31  1  0  0  0
 17 18  1  0  0  0
 17105  1  0  0  0
 18 19  2  0  0  0
 18106  1  0  0  0
 19 20  1  0  0  0
 19 24  1  0  0  0
 20 21  2  0  0  0
 20107  1  0  0  0
 21 23  1  0  0  0
 22 28  1  0  0  0
 22 32  2  0  0  0
 26 27  1  0  0  0
 28108  1  0  0  0
 28109  1  0  0  0
 29110  1  0  0  0
 29111  1  0  0  0
 33 34  1  0  0  0
 33 66  1  0  0  0
 33 70  2  0  0  0
 34 36  1  0  0  0
 34 59  1  0  0  0
 34112  1  0  0  0
 35 44  2  0  0  0
 35 45  1  0  0  0
 35 68  1  0  0  0
 36 56  1  0  0  0
 36113  1  0  0  0
 37 39  1  0  0  0
 37 47  1  0  0  0
 37 66  1  0  0  0
 37114  1  0  0  0
 38 43  2  0  0  0
 38 46  1  0  0  0
 38 47  1  0  0  0
 39 64  1  0  0  0
 39 67  2  0  0  0
 40 52  1  0  0  0
 40 53  2  0  0  0
 40 58  1  0  0  0
 41115  1  0  0  0
 41116  1  0  0  0
 41117  1  0  0  0
 41 48  1  0  0  0
 42 43  1  0  0  0
 42 66  1  0  0  0
 42118  1  0  0  0
 42119  1  0  0  0
 43 44  1  0  0  0
 44120  1  0  0  0
 45 46  2  0  0  0
 45121  1  0  0  0
 46122  1  0  0  0
 47123  1  0  0  0
 47124  1  0  0  0
 48 56  1  0  0  0
 48 65  1  0  0  0
 48125  1  0  0  0
 49 50  1  0  0  0
 49 53  1  0  0  0
 49 64  1  0  0  0
 49126  1  0  0  0
 50 51  1  0  0  0
 50127  1  0  0  0
 50128  1  0  0  0
 51 52  1  0  0  0
 51129  1  0  0  0
 51130  1  0  0  0
 52131  1  0  0  0
 52132  1  0  0  0
 53 54  1  0  0  0
 54 55  2  0  0  0
 54133  1  0  0  0
 55 57  1  0  0  0
 55134  1  0  0  0
 56 69  2  0  0  0
 57 58  2  0  0  0
 57135  1  0  0  0
 58136  1  0  0  0
 59 60  1  0  0  0
 59 61  1  0  0  0
 59 62  1  0  0  0
 60137  1  0  0  0
 60138  1  0  0  0
 60139  1  0  0  0
 61140  1  0  0  0
 61141  1  0  0  0
 61142  1  0  0  0
 62143  1  0  0  0
 62144  1  0  0  0
 62145  1  0  0  0
 63 65  1  0  0  0
 63146  1  0  0  0
 63147  1  0  0  0
 63148  1  0  0  0
 64149  1  0  0  0
 65150  1  0  0  0
 68 87  1  0  0  0
 71 72  2  0  0  0
 71 90  1  0  0  0
 71151  1  0  0  0
 72 73  1  0  0  0
 72 80  1  0  0  0
 73 74  2  0  0  0
 73 88  1  0  0  0
 74 75  1  0  0  0
 74 81  1  0  0  0
 75 82  1  0  0  0
 75 90  2  0  0  0
 76 83  1  0  0  0
 76152  1  0  0  0
 76153  1  0  0  0
 76154  1  0  0  0
 77155  1  0  0  0
 77156  1  0  0  0
 77157  1  0  0  0
 77 88  1  0  0  0
 78158  1  0  0  0
 78159  1  0  0  0
 78160  1  0  0  0
 78 89  1  0  0  0
 79 89  1  0  0  0
 79161  1  0  0  0
 79162  1  0  0  0
 79163  1  0  0  0
 80 84  1  0  0  0
 80164  1  0  0  0
 80165  1  0  0  0
 81 85  1  0  0  0
 81166  1  0  0  0
 81167  1  0  0  0
 82 87  1  0  0  0
 82168  1  0  0  0
 82169  1  0  0  0
 83 88  1  0  0  0
 83170  1  0  0  0
 83171  1  0  0  0
 84 86  1  0  0  0
 84172  1  0  0  0
 84173  1  0  0  0
 85 89  1  0  0  0
 85174  1  0  0  0
 85175  1  0  0  0
 86 91  1  0  0  0
 86176  1  0  0  0
 86177  1  0  0  0
 87178  1  0  0  0
 87179  1  0  0  0
 88180  1  0  0  0
 89181  1  0  0  0
 91182  1  0  0  0
M  ISO  4   1 100  68 101  87 101  91 100
M  END
> <chiral flag>
0

> <version>
0

> <s_m_source_file>
/data/baiqing/PycharmProjects/Reinvent-master-3.2/result/LINK_invent/BTK/process_docking_weight1_custom_sum_contain_oxygen_bond_distance_aromatic_linkinvent_7_9_3/rearranged_h_0093.sdf

> <i_m_source_file_index>
30

> <r_mmod_Potential_Energy-OPLS-2005>
-62.6708030700684

> <r_mmod_Stretch_Energy-OPLS-2005>
48.556209564209

> <r_mmod_Bend_Energy-OPLS-2005>
157.728744506836

> <r_mmod_Torsional_Energy-OPLS-2005>
248.980377197266

> <r_mmod_Improper_Torsional_Energy-OPLS-2005>
11.7529344558716

> <r_mmod_Van_der_Waal_Energy-OPLS-2005>
179.629180908203

> <r_mmod_Electrostatic_Energy-OPLS-2005>
-508.281005859375

> <r_mmod_Solvation_Energy-OPLS-2005>
-213.314300537109

> <b_mmod_Minimization_Converged-OPLS-2005>
0

> <r_mmod_RMS_Derivative-OPLS-2005>
5.23207378387451

$$$$
30
                    3D
 Structure written by MMmdl.
166174  0  0  1  0            999 V2000
  -30.6014  -14.7113   20.4509 C   0  0  0  0  0  0
  -30.4361  -12.4263   19.4642 C   0  0  0  0  0  0
  -29.5103  -12.4963   18.2306 C   0  0  0  0  0  0
  -28.0320  -12.3421   18.6412 C   0  0  0  0  0  0
  -27.6500  -13.2218   19.8632 C   0  0  2  0  0  0
  -28.6959  -13.1224   20.9910 C   0  0  0  0  0  0
  -25.2554  -13.8193   20.5735 C   0  0  0  0  0  0
  -24.1820  -13.0446   20.9201 C   0  0  0  0  0  0
  -24.6394  -11.6918   20.8740 C   0  0  0  0  0  0
  -23.9066  -10.4295   21.0400 C   0  0  0  0  0  0
  -24.3618   -9.4211   21.9180 C   0  0  0  0  0  0
  -23.6294   -8.2245   22.0752 C   0  0  0  0  0  0
  -22.4275   -8.0284   21.3543 C   0  0  0  0  0  0
  -21.9907   -9.0258   20.4645 C   0  0  0  0  0  0
  -22.7235  -10.2136   20.3052 C   0  0  0  0  0  0
  -21.6854   -6.0737   22.5279 C   0  0  0  0  0  0
  -21.4016   -6.5641   23.8213 C   0  0  0  0  0  0
  -21.3658   -5.6793   24.9176 C   0  0  0  0  0  0
  -21.6041   -4.3056   24.7226 C   0  0  0  0  0  0
  -21.8819   -3.8147   23.4348 C   0  0  0  0  0  0
  -21.9192   -4.6964   22.3404 C   0  0  0  0  0  0
  -22.7841  -13.5235   21.1855 C   0  0  0  0  0  0
  -22.1661   -4.2151   21.0980 F   0  0  0  0  0  0
  -21.5627   -3.4538   25.7738 F   0  0  0  0  0  0
  -29.9940  -13.4789   20.4039 N   0  0  0  0  0  0
  -26.2977  -12.9381   20.3340 N   0  0  0  0  0  0
  -25.9325  -11.6528   20.5761 N   0  0  0  0  0  0
  -22.0477  -12.8227   22.0404 N   0  0  0  0  0  0
  -25.4270  -15.1923   20.4232 N   0  0  0  0  0  0
  -31.7909  -14.8166   20.1412 O   0  0  0  0  0  0
  -21.6641   -6.8881   21.4242 O   0  0  0  0  0  0
  -22.3528  -14.5539   20.6699 O   0  0  0  0  0  0
  -24.6302  -31.8572   23.2013 C   0  0  0  0  0  0
  -25.9137  -32.4763   23.8347 C   0  0  1  0  0  0
  -27.2135  -27.2753   20.1224 C   0  0  0  0  0  0
  -25.5936  -33.8566   24.2267 N   0  0  0  0  0  0
  -23.4253  -30.4826   21.5447 C   0  0  2  0  0  0
  -24.8710  -28.9381   20.1073 C   0  0  0  0  0  0
  -22.7498  -29.4612   22.4917 C   0  0  0  0  0  0
  -18.0292  -28.1388   22.8481 C   0  0  0  0  0  0
  -24.1490  -36.7290   23.2638 C   0  0  0  0  0  0
  -25.9716  -30.7734   21.3813 C   0  0  0  0  0  0
  -26.0425  -29.3988   20.7211 C   0  0  0  0  0  0
  -27.2158  -28.5786   20.7222 C   0  0  0  0  0  0
  -26.0216  -26.8935   19.4608 C   0  0  0  0  0  0
  -24.8652  -27.6927   19.4662 C   0  0  0  0  0  0
  -23.6419  -29.8226   20.1586 C   0  0  0  0  0  0
  -25.4116  -36.3073   24.0324 C   0  0  1  0  0  0
  -20.5895  -28.3697   23.1268 C   0  0  2  0  0  0
  -20.6778  -26.9414   22.5405 C   0  0  0  0  0  0
  -19.5752  -26.6382   21.5209 C   0  0  0  0  0  0
  -18.1933  -26.7927   22.1624 C   0  0  0  0  0  0
  -19.1543  -28.8859   23.2869 C   0  0  0  0  0  0
  -18.9467  -30.1461   23.8887 C   0  0  0  0  0  0
  -17.6465  -30.6587   24.0561 C   0  0  0  0  0  0
  -25.9057  -34.9444   23.5094 C   0  0  0  0  0  0
  -16.5357  -29.9083   23.6333 C   0  0  0  0  0  0
  -16.7278  -28.6504   23.0349 C   0  0  0  0  0  0
  -26.4502  -31.6586   25.0734 C   0  0  0  0  0  0
  -25.3724  -31.3738   26.1453 C   0  0  0  0  0  0
  -27.0355  -30.3003   24.6227 C   0  0  0  0  0  0
  -27.6055  -32.4327   25.7509 C   0  0  0  0  0  0
  -27.5577  -37.1801   24.8464 C   0  0  0  0  0  0
  -21.4205  -29.3047   22.3660 N   0  0  0  0  0  0
  -26.4289  -37.3772   23.9404 N   0  0  0  0  0  0
  -24.6948  -31.0549   22.0986 N   0  0  0  0  0  0
  -23.4205  -28.8146   23.3002 O   0  0  0  0  0  0
  -28.2983  -26.3699   20.2055 O   0  0  0  0  0  0
  -26.5628  -34.8915   22.4665 O   0  0  0  0  0  0
  -23.5456  -32.1391   23.7313 O   0  0  0  0  0  0
  -27.7996  -19.7917   18.4204 C   0  0  0  0  0  0
  -28.6904  -19.5193   19.4813 C   0  0  0  0  0  0
  -29.0283  -18.0945   19.6007 C   0  0  0  0  0  0
  -27.7921  -17.6509   17.6909 C   0  0  0  0  0  0
  -31.4355  -17.7531   20.3408 C   0  0  0  0  0  0
  -26.2586  -15.7090   17.0568 C   0  0  0  0  0  0
  -28.5731  -15.9553   15.9681 C   0  0  0  0  0  0
  -29.1607  -20.7980   20.3098 C   0  0  0  0  0  0
  -28.5384  -22.2402   19.8673 C   0  0  0  0  0  0
  -28.9464  -23.6896   20.4415 C   0  0  0  0  0  0
  -28.0359  -24.9192   19.9301 C   0  0  0  0  0  0
  -29.9786  -17.3363   20.6024 C   0  0  2  0  0  0
  -27.3687  -16.6652   16.6041 C   0  0  0  0  0  0
  -27.3716  -18.8869   17.5376 N   0  0  0  0  0  0
  -28.5435  -17.2156   18.6910 N   0  0  0  0  0  0
  -29.7942  -15.8108   20.6664 N   0  0  0  0  0  0
  -31.4771  -12.5517   19.1610 H   0  0  0  0  0  0
  -30.3785  -11.4447   19.9370 H   0  0  0  0  0  0
  -29.7819  -11.7244   17.5092 H   0  0  0  0  0  0
  -29.6544  -13.4491   17.7234 H   0  0  0  0  0  0
  -27.8686  -11.2909   18.8812 H   0  0  0  0  0  0
  -27.3796  -12.5645   17.7959 H   0  0  0  0  0  0
  -27.6666  -14.2542   19.5224 H   0  0  0  0  0  0
  -28.7250  -12.1141   21.4067 H   0  0  0  0  0  0
  -28.4406  -13.7862   21.8186 H   0  0  0  0  0  0
  -25.2766   -9.5694   22.4751 H   0  0  0  0  0  0
  -24.0009   -7.4638   22.7470 H   0  0  0  0  0  0
  -21.0839   -8.8775   19.8951 H   0  0  0  0  0  0
  -22.3695  -10.9676   19.6159 H   0  0  0  0  0  0
  -21.2012   -7.6149   23.9719 H   0  0  0  0  0  0
  -21.1479   -6.0523   25.9079 H   0  0  0  0  0  0
  -22.0599   -2.7610   23.2846 H   0  0  0  0  0  0
  -22.4092  -11.9896   22.4805 H   0  0  0  0  0  0
  -21.1093  -13.1255   22.2601 H   0  0  0  0  0  0
  -24.6562  -15.8414   20.5345 H   0  0  0  0  0  0
  -26.2699  -15.6343   20.0807 H   0  0  0  0  0  0
  -26.7205  -32.5415   23.1090 H   0  0  0  0  0  0
  -25.0072  -33.9705   25.0404 H   0  0  0  0  0  0
  -22.7209  -31.3048   21.4023 H   0  0  0  0  0  0
  -23.3747  -35.9627   23.3301 H   0  0  0  0  0  0
  -24.3581  -36.8914   22.2052 H   0  0  0  0  0  0
  -23.7249  -37.6493   23.6666 H   0  0  0  0  0  0
  -26.1109  -31.5355   20.6131 H   0  0  0  0  0  0
  -26.8497  -30.8198   22.0141 H   0  0  0  0  0  0
  -28.1084  -28.9215   21.2267 H   0  0  0  0  0  0
  -25.9423  -25.9511   18.9405 H   0  0  0  0  0  0
  -23.9715  -27.3376   18.9713 H   0  0  0  0  0  0
  -23.7653  -30.6015   19.4054 H   0  0  0  0  0  0
  -22.7602  -29.2567   19.8524 H   0  0  0  0  0  0
  -25.1297  -36.1921   25.0816 H   0  0  0  0  0  0
  -20.9987  -28.3275   24.1388 H   0  0  0  0  0  0
  -20.5674  -26.2308   23.3611 H   0  0  0  0  0  0
  -21.6648  -26.7436   22.1200 H   0  0  0  0  0  0
  -19.6913  -25.6288   21.1246 H   0  0  0  0  0  0
  -19.6687  -27.3188   20.6733 H   0  0  0  0  0  0
  -17.4199  -26.6668   21.4028 H   0  0  0  0  0  0
  -18.0339  -26.0073   22.9026 H   0  0  0  0  0  0
  -19.7942  -30.7278   24.2249 H   0  0  0  0  0  0
  -17.5021  -31.6265   24.5165 H   0  0  0  0  0  0
  -15.5356  -30.2983   23.7661 H   0  0  0  0  0  0
  -15.8680  -28.0823   22.7065 H   0  0  0  0  0  0
  -24.5897  -30.7089   25.7780 H   0  0  0  0  0  0
  -24.8917  -32.2909   26.4868 H   0  0  0  0  0  0
  -25.8036  -30.8919   27.0237 H   0  0  0  0  0  0
  -26.2947  -29.6745   24.1237 H   0  0  0  0  0  0
  -27.4018  -29.7269   25.4752 H   0  0  0  0  0  0
  -27.8830  -30.4272   23.9488 H   0  0  0  0  0  0
  -27.2663  -33.3627   26.2082 H   0  0  0  0  0  0
  -28.3872  -32.6887   25.0346 H   0  0  0  0  0  0
  -28.0722  -31.8458   26.5431 H   0  0  0  0  0  0
  -28.2594  -38.0099   24.7506 H   0  0  0  0  0  0
  -28.1072  -36.2628   24.6293 H   0  0  0  0  0  0
  -27.2296  -37.1457   25.8867 H   0  0  0  0  0  0
  -20.9389  -29.8782   21.6880 H   0  0  0  0  0  0
  -26.0167  -38.2844   24.1404 H   0  0  0  0  0  0
  -27.4117  -20.7735   18.2101 H   0  0  0  0  0  0
  -31.5489  -18.8337   20.4170 H   0  0  0  0  0  0
  -31.7539  -17.4624   19.3397 H   0  0  0  0  0  0
  -32.1180  -17.3070   21.0639 H   0  0  0  0  0  0
  -25.4042  -16.2631   17.4463 H   0  0  0  0  0  0
  -26.6071  -15.0422   17.8368 H   0  0  0  0  0  0
  -25.9065  -15.0943   16.2290 H   0  0  0  0  0  0
  -29.2644  -16.6809   15.5389 H   0  0  0  0  0  0
  -28.2618  -15.2782   15.1733 H   0  0  0  0  0  0
  -29.1228  -15.3792   16.7095 H   0  0  0  0  0  0
  -30.2473  -20.8549   20.2407 H   0  0  0  0  0  0
  -28.9349  -20.6196   21.3620 H   0  0  0  0  0  0
  -27.4570  -22.1673   19.9916 H   0  0  0  0  0  0
  -28.7110  -22.3449   18.7960 H   0  0  0  0  0  0
  -29.9863  -23.8872   20.1814 H   0  0  0  0  0  0
  -28.9114  -23.6613   21.5310 H   0  0  0  0  0  0
  -27.0465  -24.6816   20.3225 H   0  0  0  0  0  0
  -27.9603  -24.8286   18.8455 H   0  0  0  0  0  0
  -29.7103  -17.7020   21.5942 H   0  0  0  0  0  0
  -26.9280  -17.2581   15.8005 H   0  0  0  0  0  0
  -28.8244  -15.5673   20.7835 H   0  0  0  0  0  0
  1 25  1  0  0  0
  1 30  2  0  0  0
  1 86  1  0  0  0
  2  3  1  0  0  0
  2 25  1  0  0  0
  2 87  1  0  0  0
  2 88  1  0  0  0
  3  4  1  0  0  0
  3 89  1  0  0  0
  3 90  1  0  0  0
  4  5  1  0  0  0
  4 91  1  0  0  0
  4 92  1  0  0  0
  5  6  1  0  0  0
  5 26  1  0  0  0
  5 93  1  0  0  0
  6 25  1  0  0  0
  6 94  1  0  0  0
  6 95  1  0  0  0
  7  8  2  0  0  0
  7 26  1  0  0  0
  7 29  1  0  0  0
  8  9  1  0  0  0
  8 22  1  0  0  0
  9 10  1  0  0  0
  9 27  2  0  0  0
 10 11  2  0  0  0
 10 15  1  0  0  0
 11 12  1  0  0  0
 11 96  1  0  0  0
 12 13  2  0  0  0
 12 97  1  0  0  0
 13 14  1  0  0  0
 13 31  1  0  0  0
 14 15  2  0  0  0
 14 98  1  0  0  0
 15 99  1  0  0  0
 16 17  2  0  0  0
 16 21  1  0  0  0
 16 31  1  0  0  0
 17 18  1  0  0  0
 17100  1  0  0  0
 18 19  2  0  0  0
 18101  1  0  0  0
 19 20  1  0  0  0
 19 24  1  0  0  0
 20 21  2  0  0  0
 20102  1  0  0  0
 21 23  1  0  0  0
 22 28  1  0  0  0
 22 32  2  0  0  0
 26 27  1  0  0  0
 28103  1  0  0  0
 28104  1  0  0  0
 29105  1  0  0  0
 29106  1  0  0  0
 33 34  1  0  0  0
 33 66  1  0  0  0
 33 70  2  0  0  0
 34 36  1  0  0  0
 34 59  1  0  0  0
 34107  1  0  0  0
 35 44  2  0  0  0
 35 45  1  0  0  0
 35 68  1  0  0  0
 36 56  1  0  0  0
 36108  1  0  0  0
 37 39  1  0  0  0
 37 47  1  0  0  0
 37 66  1  0  0  0
 37109  1  0  0  0
 38 43  2  0  0  0
 38 46  1  0  0  0
 38 47  1  0  0  0
 39 64  1  0  0  0
 39 67  2  0  0  0
 40 52  1  0  0  0
 40 53  2  0  0  0
 40 58  1  0  0  0
 41110  1  0  0  0
 41111  1  0  0  0
 41112  1  0  0  0
 41 48  1  0  0  0
 42 43  1  0  0  0
 42 66  1  0  0  0
 42113  1  0  0  0
 42114  1  0  0  0
 43 44  1  0  0  0
 44115  1  0  0  0
 45 46  2  0  0  0
 45116  1  0  0  0
 46117  1  0  0  0
 47118  1  0  0  0
 47119  1  0  0  0
 48 56  1  0  0  0
 48 65  1  0  0  0
 48120  1  0  0  0
 49 50  1  0  0  0
 49 53  1  0  0  0
 49 64  1  0  0  0
 49121  1  0  0  0
 50 51  1  0  0  0
 50122  1  0  0  0
 50123  1  0  0  0
 51 52  1  0  0  0
 51124  1  0  0  0
 51125  1  0  0  0
 52126  1  0  0  0
 52127  1  0  0  0
 53 54  1  0  0  0
 54 55  2  0  0  0
 54128  1  0  0  0
 55 57  1  0  0  0
 55129  1  0  0  0
 56 69  2  0  0  0
 57 58  2  0  0  0
 57130  1  0  0  0
 58131  1  0  0  0
 59 60  1  0  0  0
 59 61  1  0  0  0
 59 62  1  0  0  0
 60132  1  0  0  0
 60133  1  0  0  0
 60134  1  0  0  0
 61135  1  0  0  0
 61136  1  0  0  0
 61137  1  0  0  0
 62138  1  0  0  0
 62139  1  0  0  0
 62140  1  0  0  0
 63 65  1  0  0  0
 63141  1  0  0  0
 63142  1  0  0  0
 63143  1  0  0  0
 64144  1  0  0  0
 65145  1  0  0  0
 68 81  1  0  0  0
 71 72  2  0  0  0
 71 84  1  0  0  0
 71146  1  0  0  0
 72 73  1  0  0  0
 72 78  1  0  0  0
 73 82  1  0  0  0
 73 85  2  0  0  0
 74 83  1  0  0  0
 74 84  2  0  0  0
 74 85  1  0  0  0
 75147  1  0  0  0
 75148  1  0  0  0
 75149  1  0  0  0
 75 82  1  0  0  0
 76150  1  0  0  0
 76151  1  0  0  0
 76152  1  0  0  0
 76 83  1  0  0  0
 77 83  1  0  0  0
 77153  1  0  0  0
 77154  1  0  0  0
 77155  1  0  0  0
 78 79  1  0  0  0
 78156  1  0  0  0
 78157  1  0  0  0
 79 80  1  0  0  0
 79158  1  0  0  0
 79159  1  0  0  0
 80 81  1  0  0  0
 80160  1  0  0  0
 80161  1  0  0  0
 81162  1  0  0  0
 81163  1  0  0  0
 82 86  1  0  0  0
 82164  1  0  0  0
 83165  1  0  0  0
 86166  1  0  0  0
M  ISO  4   1 100  68 101  81 101  86 100
M  END
> <chiral flag>
0

> <version>
0

> <s_m_source_file>
/data/baiqing/PycharmProjects/Reinvent-master-3.2/result/LINK_invent/BTK/process_docking_weight1_custom_sum_contain_oxygen_bond_distance_aromatic_linkinvent_7_9_3/rearranged_h_0093.sdf

> <i_m_source_file_index>
31

> <r_mmod_Potential_Energy-OPLS-2005>
-426.905853271484

> <r_mmod_Stretch_Energy-OPLS-2005>
121.376441955566

> <r_mmod_Bend_Energy-OPLS-2005>
199.091232299805

> <r_mmod_Torsional_Energy-OPLS-2005>
175.411926269531

> <r_mmod_Improper_Torsional_Energy-OPLS-2005>
4.45030117034912

> <r_mmod_Van_der_Waal_Energy-OPLS-2005>
150.848114013672

> <r_mmod_Electrostatic_Energy-OPLS-2005>
-940.699401855469

> <r_mmod_Solvation_Energy-OPLS-2005>
-213.764038085938

> <b_mmod_Minimization_Converged-OPLS-2005>
0

> <r_mmod_RMS_Derivative-OPLS-2005>
0.630522429943085

$$$$
31
                    3D
 Structure written by MMmdl.
171179  0  0  1  0            999 V2000
  -30.7325  -14.4236   20.5901 C   0  0  0  0  0  0
  -30.4188  -12.2833   19.4215 C   0  0  0  0  0  0
  -29.4996  -12.5161   18.2056 C   0  0  0  0  0  0
  -28.0204  -12.3736   18.6129 C   0  0  0  0  0  0
  -27.6672  -13.1944   19.8811 C   0  0  2  0  0  0
  -28.7075  -12.9709   21.0023 C   0  0  0  0  0  0
  -25.2627  -13.8145   20.5659 C   0  0  0  0  0  0
  -24.1855  -13.0438   20.9156 C   0  0  0  0  0  0
  -24.6396  -11.6904   20.8734 C   0  0  0  0  0  0
  -23.9052  -10.4303   21.0405 C   0  0  0  0  0  0
  -24.3617   -9.4227   21.9179 C   0  0  0  0  0  0
  -23.6294   -8.2265   22.0757 C   0  0  0  0  0  0
  -22.4279   -8.0303   21.3547 C   0  0  0  0  0  0
  -21.9904   -9.0274   20.4650 C   0  0  0  0  0  0
  -22.7229  -10.2154   20.3048 C   0  0  0  0  0  0
  -21.6865   -6.0743   22.5274 C   0  0  0  0  0  0
  -21.4014   -6.5638   23.8209 C   0  0  0  0  0  0
  -21.3656   -5.6783   24.9165 C   0  0  0  0  0  0
  -21.6051   -4.3050   24.7214 C   0  0  0  0  0  0
  -21.8823   -3.8151   23.4336 C   0  0  0  0  0  0
  -21.9196   -4.6966   22.3395 C   0  0  0  0  0  0
  -22.7893  -13.5275   21.1817 C   0  0  0  0  0  0
  -22.1675   -4.2155   21.0969 F   0  0  0  0  0  0
  -21.5628   -3.4528   25.7726 F   0  0  0  0  0  0
  -30.0437  -13.2609   20.4538 N   0  0  0  0  0  0
  -26.3053  -12.9276   20.3382 N   0  0  0  0  0  0
  -25.9323  -11.6455   20.5775 N   0  0  0  0  0  0
  -22.0509  -12.8285   22.0373 N   0  0  0  0  0  0
  -25.4374  -15.1857   20.4061 N   0  0  0  0  0  0
  -31.8348  -14.6137   20.0696 O   0  0  0  0  0  0
  -21.6650   -6.8898   21.4245 O   0  0  0  0  0  0
  -22.3598  -14.5581   20.6653 O   0  0  0  0  0  0
  -24.6112  -31.8683   23.2107 C   0  0  0  0  0  0
  -25.9022  -32.4825   23.8400 C   0  0  1  0  0  0
  -27.2352  -27.4683   20.1025 C   0  0  0  0  0  0
  -25.5897  -33.8626   24.2333 N   0  0  0  0  0  0
  -23.3983  -30.4916   21.5483 C   0  0  2  0  0  0
  -24.8487  -28.9669   20.1075 C   0  0  0  0  0  0
  -22.7397  -29.4653   22.4972 C   0  0  0  0  0  0
  -18.0269  -28.1379   22.8487 C   0  0  0  0  0  0
  -24.1485  -36.7329   23.2639 C   0  0  0  0  0  0
  -25.9222  -30.8481   21.3579 C   0  0  0  0  0  0
  -26.0042  -29.4856   20.7059 C   0  0  0  0  0  0
  -27.2037  -28.7423   20.7027 C   0  0  0  0  0  0
  -26.0709  -26.9573   19.4920 C   0  0  0  0  0  0
  -24.8749  -27.7001   19.4969 C   0  0  0  0  0  0
  -23.6055  -29.8249   20.1609 C   0  0  0  0  0  0
  -25.4099  -36.3107   24.0335 C   0  0  1  0  0  0
  -20.5857  -28.3659   23.1328 C   0  0  2  0  0  0
  -20.6758  -26.9400   22.5422 C   0  0  0  0  0  0
  -19.5741  -26.6381   21.5215 C   0  0  0  0  0  0
  -18.1911  -26.7921   22.1621 C   0  0  0  0  0  0
  -19.1520  -28.8834   23.2905 C   0  0  0  0  0  0
  -18.9451  -30.1441   23.8915 C   0  0  0  0  0  0
  -17.6459  -30.6584   24.0569 C   0  0  0  0  0  0
  -25.9029  -34.9476   23.5127 C   0  0  0  0  0  0
  -16.5347  -29.9090   23.6334 C   0  0  0  0  0  0
  -16.7263  -28.6509   23.0343 C   0  0  0  0  0  0
  -26.4465  -31.6596   25.0714 C   0  0  0  0  0  0
  -25.3750  -31.3705   26.1478 C   0  0  0  0  0  0
  -27.0294  -30.3042   24.6069 C   0  0  0  0  0  0
  -27.6039  -32.4310   25.7481 C   0  0  0  0  0  0
  -27.5574  -37.1812   24.8462 C   0  0  0  0  0  0
  -21.4122  -29.3035   22.3734 N   0  0  0  0  0  0
  -26.4292  -37.3786   23.9399 N   0  0  0  0  0  0
  -24.6612  -31.0824   22.0981 N   0  0  0  0  0  0
  -23.4178  -28.8194   23.2996 O   0  0  0  0  0  0
  -28.3702  -26.6993   20.1547 O   0  0  0  0  0  0
  -26.5593  -34.8929   22.4686 O   0  0  0  0  0  0
  -23.5316  -32.1416   23.7527 O   0  0  0  0  0  0
  -28.8202  -23.2730   21.7443 C   0  0  0  0  0  0
  -30.7068  -24.9574   21.3742 C   0  0  0  0  0  0
  -29.9389  -22.6254   22.5781 C   0  0  0  0  0  0
  -31.6929  -23.7890   21.1478 C   0  0  0  0  0  0
  -29.2746  -24.5451   20.9778 C   0  0  2  0  0  0
  -31.2463  -22.4189   21.7658 C   0  0  2  0  0  0
  -28.8222  -17.1343   19.2981 C   0  0  0  0  0  0
  -32.4982  -21.1529   20.0358 C   0  0  0  0  0  0
  -28.2518  -25.6812   21.1517 C   0  0  0  0  0  0
  -30.1395  -19.1114   20.0923 C   0  0  0  0  0  0
  -30.5094  -16.8242   21.2254 C   0  0  0  0  0  0
  -30.6958  -19.9906   21.2360 C   0  0  0  0  0  0
  -29.4974  -17.7731   20.5254 C   0  0  2  0  0  0
  -30.0864  -15.4164   21.2221 N   0  0  0  0  0  0
  -31.1947  -21.3132   20.7431 N   0  3  1  0  0  0
  -31.4665  -12.3603   19.1288 H   0  0  0  0  0  0
  -30.2992  -11.2694   19.8069 H   0  0  0  0  0  0
  -29.7402  -11.8119   17.4094 H   0  0  0  0  0  0
  -29.6783  -13.5131   17.7957 H   0  0  0  0  0  0
  -27.8257  -11.3171   18.7921 H   0  0  0  0  0  0
  -27.3736  -12.6678   17.7855 H   0  0  0  0  0  0
  -27.7149  -14.2381   19.5884 H   0  0  0  0  0  0
  -28.6773  -11.9375   21.3494 H   0  0  0  0  0  0
  -28.4724  -13.5748   21.8789 H   0  0  0  0  0  0
  -25.2769   -9.5714   22.4738 H   0  0  0  0  0  0
  -24.0020   -7.4652   22.7468 H   0  0  0  0  0  0
  -21.0835   -8.8790   19.8949 H   0  0  0  0  0  0
  -22.3694  -10.9694   19.6151 H   0  0  0  0  0  0
  -21.2013   -7.6145   23.9719 H   0  0  0  0  0  0
  -21.1468   -6.0506   25.9067 H   0  0  0  0  0  0
  -22.0605   -2.7613   23.2829 H   0  0  0  0  0  0
  -22.4100  -11.9957   22.4791 H   0  0  0  0  0  0
  -21.1119  -13.1333   22.2518 H   0  0  0  0  0  0
  -24.6718  -15.8436   20.5065 H   0  0  0  0  0  0
  -26.2945  -15.6232   20.0947 H   0  0  0  0  0  0
  -26.7096  -32.5554   23.1180 H   0  0  0  0  0  0
  -25.0033  -33.9782   25.0469 H   0  0  0  0  0  0
  -22.6866  -31.3080   21.4098 H   0  0  0  0  0  0
  -23.3728  -35.9687   23.3317 H   0  0  0  0  0  0
  -24.3585  -36.8923   22.2053 H   0  0  0  0  0  0
  -23.7267  -37.6552   23.6645 H   0  0  0  0  0  0
  -26.0270  -31.6151   20.5883 H   0  0  0  0  0  0
  -26.8142  -30.9059   21.9705 H   0  0  0  0  0  0
  -28.0940  -29.1275   21.1799 H   0  0  0  0  0  0
  -26.0855  -25.9773   19.0348 H   0  0  0  0  0  0
  -23.9873  -27.2939   19.0317 H   0  0  0  0  0  0
  -23.7066  -30.6000   19.4004 H   0  0  0  0  0  0
  -22.7329  -29.2382   19.8667 H   0  0  0  0  0  0
  -25.1275  -36.1973   25.0832 H   0  0  0  0  0  0
  -20.9963  -28.3221   24.1445 H   0  0  0  0  0  0
  -20.5655  -26.2263   23.3599 H   0  0  0  0  0  0
  -21.6622  -26.7429   22.1219 H   0  0  0  0  0  0
  -19.6901  -25.6296   21.1225 H   0  0  0  0  0  0
  -19.6683  -27.3204   20.6758 H   0  0  0  0  0  0
  -17.4181  -26.6678   21.4020 H   0  0  0  0  0  0
  -18.0320  -26.0058   22.9017 H   0  0  0  0  0  0
  -19.7929  -30.7248   24.2283 H   0  0  0  0  0  0
  -17.5017  -31.6266   24.5166 H   0  0  0  0  0  0
  -15.5350  -30.3004   23.7641 H   0  0  0  0  0  0
  -15.8657  -28.0842   22.7046 H   0  0  0  0  0  0
  -24.5917  -30.7052   25.7831 H   0  0  0  0  0  0
  -24.8960  -32.2875   26.4927 H   0  0  0  0  0  0
  -25.8126  -30.8877   27.0227 H   0  0  0  0  0  0
  -26.2833  -29.6804   24.1133 H   0  0  0  0  0  0
  -27.4092  -29.7267   25.4507 H   0  0  0  0  0  0
  -27.8650  -30.4363   23.9188 H   0  0  0  0  0  0
  -27.2650  -33.3590   26.2095 H   0  0  0  0  0  0
  -28.3843  -32.6897   25.0315 H   0  0  0  0  0  0
  -28.0720  -31.8414   26.5372 H   0  0  0  0  0  0
  -28.2594  -38.0105   24.7490 H   0  0  0  0  0  0
  -28.1061  -36.2632   24.6298 H   0  0  0  0  0  0
  -27.2298  -37.1484   25.8870 H   0  0  0  0  0  0
  -20.9267  -29.8785   21.6988 H   0  0  0  0  0  0
  -26.0175  -38.2864   24.1400 H   0  0  0  0  0  0
  -27.9940  -23.5021   22.4181 H   0  0  0  0  0  0
  -28.4228  -22.5445   21.0355 H   0  0  0  0  0  0
  -31.0240  -25.8288   20.7991 H   0  0  0  0  0  0
  -30.7348  -25.2756   22.4176 H   0  0  0  0  0  0
  -29.5778  -21.7344   23.0845 H   0  0  0  0  0  0
  -30.1623  -23.2894   23.4150 H   0  0  0  0  0  0
  -32.6683  -24.0709   21.5491 H   0  0  0  0  0  0
  -31.8348  -23.7150   20.0710 H   0  0  0  0  0  0
  -29.2903  -24.2929   19.9167 H   0  0  0  0  0  0
  -32.0069  -22.1191   22.4888 H   0  0  0  0  0  0
  -28.2116  -17.8536   18.7528 H   0  0  0  0  0  0
  -28.1504  -16.3369   19.5968 H   0  0  0  0  0  0
  -29.5561  -16.7263   18.6006 H   0  0  0  0  0  0
  -32.6202  -21.8877   19.2412 H   0  0  0  0  0  0
  -32.6150  -20.1815   19.5585 H   0  0  0  0  0  0
  -33.3365  -21.2584   20.7256 H   0  0  0  0  0  0
  -28.3501  -26.1265   22.1436 H   0  0  0  0  0  0
  -27.2530  -25.2405   21.1186 H   0  0  0  0  0  0
  -30.9079  -18.8968   19.3503 H   0  0  0  0  0  0
  -29.3825  -19.6957   19.5654 H   0  0  0  0  0  0
  -31.4859  -16.9366   20.7532 H   0  0  0  0  0  0
  -30.6535  -17.1352   22.2609 H   0  0  0  0  0  0
  -31.4939  -19.4770   21.7737 H   0  0  0  0  0  0
  -29.8782  -20.0915   21.9414 H   0  0  0  0  0  0
  -28.7037  -17.9949   21.2410 H   0  0  0  0  0  0
  -29.1883  -15.1963   21.6283 H   0  0  0  0  0  0
  -30.5254  -21.6085   20.0486 H   0  0  0  0  0  0
  1 25  1  0  0  0
  1 30  2  0  0  0
  1 84  1  0  0  0
  2  3  1  0  0  0
  2 25  1  0  0  0
  2 86  1  0  0  0
  2 87  1  0  0  0
  3  4  1  0  0  0
  3 88  1  0  0  0
  3 89  1  0  0  0
  4  5  1  0  0  0
  4 90  1  0  0  0
  4 91  1  0  0  0
  5  6  1  0  0  0
  5 26  1  0  0  0
  5 92  1  0  0  0
  6 25  1  0  0  0
  6 93  1  0  0  0
  6 94  1  0  0  0
  7  8  2  0  0  0
  7 26  1  0  0  0
  7 29  1  0  0  0
  8  9  1  0  0  0
  8 22  1  0  0  0
  9 10  1  0  0  0
  9 27  2  0  0  0
 10 11  2  0  0  0
 10 15  1  0  0  0
 11 12  1  0  0  0
 11 95  1  0  0  0
 12 13  2  0  0  0
 12 96  1  0  0  0
 13 14  1  0  0  0
 13 31  1  0  0  0
 14 15  2  0  0  0
 14 97  1  0  0  0
 15 98  1  0  0  0
 16 17  2  0  0  0
 16 21  1  0  0  0
 16 31  1  0  0  0
 17 18  1  0  0  0
 17 99  1  0  0  0
 18 19  2  0  0  0
 18100  1  0  0  0
 19 20  1  0  0  0
 19 24  1  0  0  0
 20 21  2  0  0  0
 20101  1  0  0  0
 21 23  1  0  0  0
 22 28  1  0  0  0
 22 32  2  0  0  0
 26 27  1  0  0  0
 28102  1  0  0  0
 28103  1  0  0  0
 29104  1  0  0  0
 29105  1  0  0  0
 33 34  1  0  0  0
 33 66  1  0  0  0
 33 70  2  0  0  0
 34 36  1  0  0  0
 34 59  1  0  0  0
 34106  1  0  0  0
 35 44  2  0  0  0
 35 45  1  0  0  0
 35 68  1  0  0  0
 36 56  1  0  0  0
 36107  1  0  0  0
 37 39  1  0  0  0
 37 47  1  0  0  0
 37 66  1  0  0  0
 37108  1  0  0  0
 38 43  2  0  0  0
 38 46  1  0  0  0
 38 47  1  0  0  0
 39 64  1  0  0  0
 39 67  2  0  0  0
 40 52  1  0  0  0
 40 53  2  0  0  0
 40 58  1  0  0  0
 41109  1  0  0  0
 41110  1  0  0  0
 41111  1  0  0  0
 41 48  1  0  0  0
 42 43  1  0  0  0
 42 66  1  0  0  0
 42112  1  0  0  0
 42113  1  0  0  0
 43 44  1  0  0  0
 44114  1  0  0  0
 45 46  2  0  0  0
 45115  1  0  0  0
 46116  1  0  0  0
 47117  1  0  0  0
 47118  1  0  0  0
 48 56  1  0  0  0
 48 65  1  0  0  0
 48119  1  0  0  0
 49 50  1  0  0  0
 49 53  1  0  0  0
 49 64  1  0  0  0
 49120  1  0  0  0
 50 51  1  0  0  0
 50121  1  0  0  0
 50122  1  0  0  0
 51 52  1  0  0  0
 51123  1  0  0  0
 51124  1  0  0  0
 52125  1  0  0  0
 52126  1  0  0  0
 53 54  1  0  0  0
 54 55  2  0  0  0
 54127  1  0  0  0
 55 57  1  0  0  0
 55128  1  0  0  0
 56 69  2  0  0  0
 57 58  2  0  0  0
 57129  1  0  0  0
 58130  1  0  0  0
 59 60  1  0  0  0
 59 61  1  0  0  0
 59 62  1  0  0  0
 60131  1  0  0  0
 60132  1  0  0  0
 60133  1  0  0  0
 61134  1  0  0  0
 61135  1  0  0  0
 61136  1  0  0  0
 62137  1  0  0  0
 62138  1  0  0  0
 62139  1  0  0  0
 63 65  1  0  0  0
 63140  1  0  0  0
 63141  1  0  0  0
 63142  1  0  0  0
 64143  1  0  0  0
 65144  1  0  0  0
 68 79  1  0  0  0
 71 73  1  0  0  0
 71 75  1  0  0  0
 71145  1  0  0  0
 71146  1  0  0  0
 72 74  1  0  0  0
 72 75  1  0  0  0
 72147  1  0  0  0
 72148  1  0  0  0
 73149  1  0  0  0
 73150  1  0  0  0
 73 76  1  0  0  0
 74 76  1  0  0  0
 74151  1  0  0  0
 74152  1  0  0  0
 75 79  1  0  0  0
 75153  1  0  0  0
 76 85  1  0  0  0
 76154  1  0  0  0
 77155  1  0  0  0
 77156  1  0  0  0
 77157  1  0  0  0
 77 83  1  0  0  0
 78158  1  0  0  0
 78159  1  0  0  0
 78160  1  0  0  0
 78 85  1  0  0  0
 79161  1  0  0  0
 79162  1  0  0  0
 80 82  1  0  0  0
 80 83  1  0  0  0
 80163  1  0  0  0
 80164  1  0  0  0
 81 83  1  0  0  0
 81 84  1  0  0  0
 81165  1  0  0  0
 81166  1  0  0  0
 82 85  1  0  0  0
 82167  1  0  0  0
 82168  1  0  0  0
 83169  1  0  0  0
 84170  1  0  0  0
 85171  1  0  0  0
M  CHG  1  85   1
M  ISO  4   1 100  68 101  79 101  84 100
M  END
> <chiral flag>
0

> <version>
0

> <s_m_source_file>
/data/baiqing/PycharmProjects/Reinvent-master-3.2/result/LINK_invent/BTK/process_docking_weight1_custom_sum_contain_oxygen_bond_distance_aromatic_linkinvent_7_9_3/rearranged_h_0093.sdf

> <i_m_source_file_index>
32

> <r_mmod_Potential_Energy-OPLS-2005>
-59.0366744995117

> <r_mmod_Stretch_Energy-OPLS-2005>
38.3824729919434

> <r_mmod_Bend_Energy-OPLS-2005>
105.449180603027

> <r_mmod_Torsional_Energy-OPLS-2005>
305.163848876953

> <r_mmod_Improper_Torsional_Energy-OPLS-2005>
3.11557412147522

> <r_mmod_Van_der_Waal_Energy-OPLS-2005>
159.128036499023

> <r_mmod_Electrostatic_Energy-OPLS-2005>
-254.955810546875

> <r_mmod_Solvation_Energy-OPLS-2005>
-425.782867431641

> <b_mmod_Minimization_Converged-OPLS-2005>
0

> <r_mmod_RMS_Derivative-OPLS-2005>
2.31458640098572

$$$$
32
                    3D
 Structure written by MMmdl.
171179  0  0  1  0            999 V2000
  -30.6521  -14.5289   20.5654 C   0  0  0  0  0  0
  -30.4379  -12.3344   19.4380 C   0  0  0  0  0  0
  -29.5064  -12.5215   18.2193 C   0  0  0  0  0  0
  -28.0265  -12.3676   18.6291 C   0  0  0  0  0  0
  -27.6659  -13.2054   19.8848 C   0  0  2  0  0  0
  -28.7077  -12.9834   21.0074 C   0  0  0  0  0  0
  -25.2610  -13.8146   20.5687 C   0  0  0  0  0  0
  -24.1856  -13.0428   20.9177 C   0  0  0  0  0  0
  -24.6399  -11.6895   20.8734 C   0  0  0  0  0  0
  -23.9059  -10.4289   21.0409 C   0  0  0  0  0  0
  -24.3609   -9.4204   21.9182 C   0  0  0  0  0  0
  -23.6285   -8.2243   22.0755 C   0  0  0  0  0  0
  -22.4267   -8.0284   21.3547 C   0  0  0  0  0  0
  -21.9902   -9.0259   20.4646 C   0  0  0  0  0  0
  -22.7233  -10.2139   20.3052 C   0  0  0  0  0  0
  -21.6853   -6.0739   22.5278 C   0  0  0  0  0  0
  -21.4012   -6.5645   23.8213 C   0  0  0  0  0  0
  -21.3664   -5.6793   24.9172 C   0  0  0  0  0  0
  -21.6040   -4.3056   24.7222 C   0  0  0  0  0  0
  -21.8822   -3.8151   23.4343 C   0  0  0  0  0  0
  -21.9190   -4.6965   22.3397 C   0  0  0  0  0  0
  -22.7881  -13.5226   21.1848 C   0  0  0  0  0  0
  -22.1664   -4.2152   21.0975 F   0  0  0  0  0  0
  -21.5630   -3.4539   25.7740 F   0  0  0  0  0  0
  -30.0373  -13.3138   20.4638 N   0  0  0  0  0  0
  -26.3050  -12.9313   20.3403 N   0  0  0  0  0  0
  -25.9329  -11.6475   20.5784 N   0  0  0  0  0  0
  -22.0520  -12.8227   22.0409 N   0  0  0  0  0  0
  -25.4326  -15.1870   20.4105 N   0  0  0  0  0  0
  -31.7633  -14.7577   20.0800 O   0  0  0  0  0  0
  -21.6633   -6.8880   21.4242 O   0  0  0  0  0  0
  -22.3576  -14.5536   20.6700 O   0  0  0  0  0  0
  -24.6175  -31.8658   23.2090 C   0  0  0  0  0  0
  -25.9050  -32.4812   23.8391 C   0  0  1  0  0  0
  -27.2278  -27.4005   20.1082 C   0  0  0  0  0  0
  -25.5908  -33.8614   24.2323 N   0  0  0  0  0  0
  -23.4085  -30.4899   21.5488 C   0  0  2  0  0  0
  -24.8567  -28.9594   20.1083 C   0  0  0  0  0  0
  -22.7430  -29.4639   22.4954 C   0  0  0  0  0  0
  -18.0277  -28.1391   22.8491 C   0  0  0  0  0  0
  -24.1479  -36.7306   23.2635 C   0  0  0  0  0  0
  -25.9414  -30.8221   21.3676 C   0  0  0  0  0  0
  -26.0189  -29.4563   20.7123 C   0  0  0  0  0  0
  -27.2110  -28.6859   20.7073 C   0  0  0  0  0  0
  -26.0525  -26.9406   19.4731 C   0  0  0  0  0  0
  -24.8707  -27.7031   19.4814 C   0  0  0  0  0  0
  -23.6181  -29.8267   20.1624 C   0  0  0  0  0  0
  -25.4102  -36.3112   24.0339 C   0  0  1  0  0  0
  -20.5872  -28.3672   23.1304 C   0  0  2  0  0  0
  -20.6769  -26.9404   22.5416 C   0  0  0  0  0  0
  -19.5746  -26.6387   21.5222 C   0  0  0  0  0  0
  -18.1918  -26.7932   22.1627 C   0  0  0  0  0  0
  -19.1527  -28.8850   23.2898 C   0  0  0  0  0  0
  -18.9459  -30.1457   23.8901 C   0  0  0  0  0  0
  -17.6456  -30.6595   24.0564 C   0  0  0  0  0  0
  -25.9035  -34.9473   23.5131 C   0  0  0  0  0  0
  -16.5349  -29.9093   23.6326 C   0  0  0  0  0  0
  -16.7262  -28.6518   23.0342 C   0  0  0  0  0  0
  -26.4466  -31.6598   25.0729 C   0  0  0  0  0  0
  -25.3728  -31.3707   26.1478 C   0  0  0  0  0  0
  -27.0296  -30.3036   24.6121 C   0  0  0  0  0  0
  -27.6046  -32.4318   25.7484 C   0  0  0  0  0  0
  -27.5577  -37.1806   24.8467 C   0  0  0  0  0  0
  -21.4153  -29.3038   22.3704 N   0  0  0  0  0  0
  -26.4283  -37.3806   23.9417 N   0  0  0  0  0  0
  -24.6743  -31.0741   22.0997 N   0  0  0  0  0  0
  -23.4187  -28.8154   23.2984 O   0  0  0  0  0  0
  -28.3401  -26.5743   20.1514 O   0  0  0  0  0  0
  -26.5596  -34.8934   22.4690 O   0  0  0  0  0  0
  -23.5355  -32.1421   23.7459 O   0  0  0  0  0  0
  -28.8557  -21.7304   22.8393 C   0  0  0  0  0  0
  -29.8025  -20.2597   21.1631 C   0  0  0  0  0  0
  -29.2264  -21.5245   21.4959 C   0  0  0  0  0  0
  -29.0938  -20.7647   23.8309 C   0  0  0  0  0  0
  -30.0344  -19.2389   22.1383 C   0  0  0  0  0  0
  -29.6990  -19.5203   23.5026 C   0  0  0  0  0  0
  -28.6862  -21.1263   25.2560 C   0  0  0  0  0  0
  -28.7066  -16.3686   24.2574 C   0  0  0  0  0  0
  -28.8438  -17.3427   26.5745 C   0  0  0  0  0  0
  -28.9111  -22.6081   20.4151 C   0  0  0  0  0  0
  -30.6864  -17.8836   21.7186 C   0  0  0  0  0  0
  -29.9993  -18.5457   24.6522 C   0  0  0  0  0  0
  -29.1427  -24.1547   20.7278 C   0  0  0  0  0  0
  -29.8562  -16.9705   20.7678 C   0  0  0  0  0  0
  -28.1010  -25.3381   20.8820 C   0  0  0  0  0  0
  -28.7988  -17.6634   25.0720 C   0  0  0  0  0  0
  -29.8725  -15.5137   21.0671 N   0  0  0  0  0  0
  -31.4825  -12.4450   19.1423 H   0  0  0  0  0  0
  -30.3491  -11.3211   19.8339 H   0  0  0  0  0  0
  -29.7540  -11.8020   17.4375 H   0  0  0  0  0  0
  -29.6663  -13.5099   17.7852 H   0  0  0  0  0  0
  -27.8457  -11.3097   18.8278 H   0  0  0  0  0  0
  -27.3752  -12.6364   17.7966 H   0  0  0  0  0  0
  -27.7086  -14.2536   19.5866 H   0  0  0  0  0  0
  -28.6950  -11.9426   21.3368 H   0  0  0  0  0  0
  -28.4613  -13.5682   21.8945 H   0  0  0  0  0  0
  -25.2761   -9.5687   22.4751 H   0  0  0  0  0  0
  -24.0003   -7.4631   22.7475 H   0  0  0  0  0  0
  -21.0836   -8.8767   19.8955 H   0  0  0  0  0  0
  -22.3687  -10.9671   19.6161 H   0  0  0  0  0  0
  -21.2004   -7.6153   23.9717 H   0  0  0  0  0  0
  -21.1490   -6.0524   25.9077 H   0  0  0  0  0  0
  -22.0597   -2.7613   23.2836 H   0  0  0  0  0  0
  -22.4129  -11.9869   22.4766 H   0  0  0  0  0  0
  -21.1147  -13.1287   22.2628 H   0  0  0  0  0  0
  -24.6651  -15.8406   20.5164 H   0  0  0  0  0  0
  -26.2860  -15.6301   20.0940 H   0  0  0  0  0  0
  -26.7102  -32.5519   23.1144 H   0  0  0  0  0  0
  -25.0086  -33.9778   25.0487 H   0  0  0  0  0  0
  -22.6980  -31.3075   21.4109 H   0  0  0  0  0  0
  -23.3751  -35.9635   23.3309 H   0  0  0  0  0  0
  -24.3559  -36.8916   22.2045 H   0  0  0  0  0  0
  -23.7235  -37.6515   23.6641 H   0  0  0  0  0  0
  -26.0586  -31.5865   20.5975 H   0  0  0  0  0  0
  -26.8266  -30.8753   21.9891 H   0  0  0  0  0  0
  -28.1036  -29.0587   21.1889 H   0  0  0  0  0  0
  -26.0428  -25.9774   18.9818 H   0  0  0  0  0  0
  -23.9802  -27.3197   19.0028 H   0  0  0  0  0  0
  -23.7250  -30.6045   19.4062 H   0  0  0  0  0  0
  -22.7414  -29.2490   19.8635 H   0  0  0  0  0  0
  -25.1282  -36.1969   25.0835 H   0  0  0  0  0  0
  -20.9977  -28.3249   24.1418 H   0  0  0  0  0  0
  -20.5691  -26.2269   23.3604 H   0  0  0  0  0  0
  -21.6629  -26.7447   22.1197 H   0  0  0  0  0  0
  -19.6907  -25.6304   21.1234 H   0  0  0  0  0  0
  -19.6696  -27.3211   20.6763 H   0  0  0  0  0  0
  -17.4193  -26.6682   21.4023 H   0  0  0  0  0  0
  -18.0309  -26.0088   22.9028 H   0  0  0  0  0  0
  -19.7938  -30.7276   24.2259 H   0  0  0  0  0  0
  -17.5019  -31.6268   24.5174 H   0  0  0  0  0  0
  -15.5354  -30.2999   23.7666 H   0  0  0  0  0  0
  -15.8657  -28.0849   22.7040 H   0  0  0  0  0  0
  -24.5904  -30.7050   25.7809 H   0  0  0  0  0  0
  -24.8905  -32.2865   26.4909 H   0  0  0  0  0  0
  -25.8080  -30.8878   27.0243 H   0  0  0  0  0  0
  -26.2841  -29.6815   24.1151 H   0  0  0  0  0  0
  -27.4035  -29.7253   25.4586 H   0  0  0  0  0  0
  -27.8694  -30.4349   23.9294 H   0  0  0  0  0  0
  -27.2664  -33.3615   26.2077 H   0  0  0  0  0  0
  -28.3840  -32.6886   25.0296 H   0  0  0  0  0  0
  -28.0737  -31.8431   26.5388 H   0  0  0  0  0  0
  -28.2604  -38.0091   24.7511 H   0  0  0  0  0  0
  -28.1065  -36.2626   24.6293 H   0  0  0  0  0  0
  -27.2286  -37.1457   25.8868 H   0  0  0  0  0  0
  -20.9312  -29.8760   21.6934 H   0  0  0  0  0  0
  -26.0175  -38.2887   24.1433 H   0  0  0  0  0  0
  -28.3711  -22.6407   23.1536 H   0  0  0  0  0  0
  -30.0712  -20.0642   20.1334 H   0  0  0  0  0  0
  -28.0778  -22.0322   25.2812 H   0  0  0  0  0  0
  -29.5640  -21.3065   25.8765 H   0  0  0  0  0  0
  -28.0919  -20.3409   25.7214 H   0  0  0  0  0  0
  -27.8986  -15.7289   24.6154 H   0  0  0  0  0  0
  -29.6329  -15.7956   24.3134 H   0  0  0  0  0  0
  -28.4992  -16.5880   23.2122 H   0  0  0  0  0  0
  -27.9936  -16.7303   26.8754 H   0  0  0  0  0  0
  -28.8103  -18.2525   27.1760 H   0  0  0  0  0  0
  -29.7514  -16.7993   26.8410 H   0  0  0  0  0  0
  -27.8735  -22.4492   20.1078 H   0  0  0  0  0  0
  -29.5021  -22.3430   19.5349 H   0  0  0  0  0  0
  -30.9748  -17.2843   22.5736 H   0  0  0  0  0  0
  -31.6386  -18.1120   21.2381 H   0  0  0  0  0  0
  -30.2989  -19.1504   25.5072 H   0  0  0  0  0  0
  -30.8985  -17.9560   24.4947 H   0  0  0  0  0  0
  -28.5578  -23.8706   21.5846 H   0  0  0  0  0  0
  -28.9132  -24.3041   19.6711 H   0  0  0  0  0  0
  -30.1413  -17.1499   19.7293 H   0  0  0  0  0  0
  -28.8094  -17.2710   20.8376 H   0  0  0  0  0  0
  -28.0468  -25.6753   21.9247 H   0  0  0  0  0  0
  -27.1035  -24.9447   20.6644 H   0  0  0  0  0  0
  -27.8778  -18.2239   24.9044 H   0  0  0  0  0  0
  -29.0285  -15.1702   21.4999 H   0  0  0  0  0  0
  1 25  1  0  0  0
  1 30  2  0  0  0
  1 87  1  0  0  0
  2  3  1  0  0  0
  2 25  1  0  0  0
  2 88  1  0  0  0
  2 89  1  0  0  0
  3  4  1  0  0  0
  3 90  1  0  0  0
  3 91  1  0  0  0
  4  5  1  0  0  0
  4 92  1  0  0  0
  4 93  1  0  0  0
  5  6  1  0  0  0
  5 26  1  0  0  0
  5 94  1  0  0  0
  6 25  1  0  0  0
  6 95  1  0  0  0
  6 96  1  0  0  0
  7  8  2  0  0  0
  7 26  1  0  0  0
  7 29  1  0  0  0
  8  9  1  0  0  0
  8 22  1  0  0  0
  9 10  1  0  0  0
  9 27  2  0  0  0
 10 11  2  0  0  0
 10 15  1  0  0  0
 11 12  1  0  0  0
 11 97  1  0  0  0
 12 13  2  0  0  0
 12 98  1  0  0  0
 13 14  1  0  0  0
 13 31  1  0  0  0
 14 15  2  0  0  0
 14 99  1  0  0  0
 15100  1  0  0  0
 16 17  2  0  0  0
 16 21  1  0  0  0
 16 31  1  0  0  0
 17 18  1  0  0  0
 17101  1  0  0  0
 18 19  2  0  0  0
 18102  1  0  0  0
 19 20  1  0  0  0
 19 24  1  0  0  0
 20 21  2  0  0  0
 20103  1  0  0  0
 21 23  1  0  0  0
 22 28  1  0  0  0
 22 32  2  0  0  0
 26 27  1  0  0  0
 28104  1  0  0  0
 28105  1  0  0  0
 29106  1  0  0  0
 29107  1  0  0  0
 33 34  1  0  0  0
 33 66  1  0  0  0
 33 70  2  0  0  0
 34 36  1  0  0  0
 34 59  1  0  0  0
 34108  1  0  0  0
 35 44  2  0  0  0
 35 45  1  0  0  0
 35 68  1  0  0  0
 36 56  1  0  0  0
 36109  1  0  0  0
 37 39  1  0  0  0
 37 47  1  0  0  0
 37 66  1  0  0  0
 37110  1  0  0  0
 38 43  2  0  0  0
 38 46  1  0  0  0
 38 47  1  0  0  0
 39 64  1  0  0  0
 39 67  2  0  0  0
 40 52  1  0  0  0
 40 53  2  0  0  0
 40 58  1  0  0  0
 41111  1  0  0  0
 41112  1  0  0  0
 41113  1  0  0  0
 41 48  1  0  0  0
 42 43  1  0  0  0
 42 66  1  0  0  0
 42114  1  0  0  0
 42115  1  0  0  0
 43 44  1  0  0  0
 44116  1  0  0  0
 45 46  2  0  0  0
 45117  1  0  0  0
 46118  1  0  0  0
 47119  1  0  0  0
 47120  1  0  0  0
 48 56  1  0  0  0
 48 65  1  0  0  0
 48121  1  0  0  0
 49 50  1  0  0  0
 49 53  1  0  0  0
 49 64  1  0  0  0
 49122  1  0  0  0
 50 51  1  0  0  0
 50123  1  0  0  0
 50124  1  0  0  0
 51 52  1  0  0  0
 51125  1  0  0  0
 51126  1  0  0  0
 52127  1  0  0  0
 52128  1  0  0  0
 53 54  1  0  0  0
 54 55  2  0  0  0
 54129  1  0  0  0
 55 57  1  0  0  0
 55130  1  0  0  0
 56 69  2  0  0  0
 57 58  2  0  0  0
 57131  1  0  0  0
 58132  1  0  0  0
 59 60  1  0  0  0
 59 61  1  0  0  0
 59 62  1  0  0  0
 60133  1  0  0  0
 60134  1  0  0  0
 60135  1  0  0  0
 61136  1  0  0  0
 61137  1  0  0  0
 61138  1  0  0  0
 62139  1  0  0  0
 62140  1  0  0  0
 62141  1  0  0  0
 63 65  1  0  0  0
 63142  1  0  0  0
 63143  1  0  0  0
 63144  1  0  0  0
 64145  1  0  0  0
 65146  1  0  0  0
 68 85  1  0  0  0
 71 73  2  0  0  0
 71 74  1  0  0  0
 71147  1  0  0  0
 72 73  1  0  0  0
 72 75  2  0  0  0
 72148  1  0  0  0
 73 80  1  0  0  0
 74 76  2  0  0  0
 74 77  1  0  0  0
 75 76  1  0  0  0
 75 81  1  0  0  0
 76 82  1  0  0  0
 77149  1  0  0  0
 77150  1  0  0  0
 77151  1  0  0  0
 78152  1  0  0  0
 78153  1  0  0  0
 78154  1  0  0  0
 78 86  1  0  0  0
 79 86  1  0  0  0
 79155  1  0  0  0
 79156  1  0  0  0
 79157  1  0  0  0
 80 83  1  0  0  0
 80158  1  0  0  0
 80159  1  0  0  0
 81 84  1  0  0  0
 81160  1  0  0  0
 81161  1  0  0  0
 82 86  1  0  0  0
 82162  1  0  0  0
 82163  1  0  0  0
 83 85  1  0  0  0
 83164  1  0  0  0
 83165  1  0  0  0
 84 87  1  0  0  0
 84166  1  0  0  0
 84167  1  0  0  0
 85168  1  0  0  0
 85169  1  0  0  0
 86170  1  0  0  0
 87171  1  0  0  0
M  ISO  4   1 100  68 101  85 101  87 100
M  END
> <chiral flag>
0

> <version>
0

> <s_m_source_file>
/data/baiqing/PycharmProjects/Reinvent-master-3.2/result/LINK_invent/BTK/process_docking_weight1_custom_sum_contain_oxygen_bond_distance_aromatic_linkinvent_7_9_3/rearranged_h_0093.sdf

> <i_m_source_file_index>
33

> <r_mmod_Potential_Energy-OPLS-2005>
256.658020019531

> <r_mmod_Stretch_Energy-OPLS-2005>
62.9319267272949

> <r_mmod_Bend_Energy-OPLS-2005>
346.487518310547

> <r_mmod_Torsional_Energy-OPLS-2005>
246.372024536133

> <r_mmod_Improper_Torsional_Energy-OPLS-2005>
5.56128931045532

> <r_mmod_Van_der_Waal_Energy-OPLS-2005>
170.032470703125

> <r_mmod_Electrostatic_Energy-OPLS-2005>
-397.481536865234

> <r_mmod_Solvation_Energy-OPLS-2005>
-199.424407958984

> <b_mmod_Minimization_Converged-OPLS-2005>
0

> <r_mmod_RMS_Derivative-OPLS-2005>
2.35349440574646

$$$$
33
                    3D
 Structure written by MMmdl.
160168  0  0  1  0            999 V2000
  -30.6441  -14.6869   20.4731 C   0  0  0  0  0  0
  -30.4300  -12.4185   19.4766 C   0  0  0  0  0  0
  -29.5105  -12.4982   18.2384 C   0  0  0  0  0  0
  -28.0344  -12.3355   18.6491 C   0  0  0  0  0  0
  -27.6453  -13.2298   19.8564 C   0  0  2  0  0  0
  -28.6885  -13.1459   20.9935 C   0  0  0  0  0  0
  -25.2511  -13.8206   20.5693 C   0  0  0  0  0  0
  -24.1794  -13.0460   20.9206 C   0  0  0  0  0  0
  -24.6384  -11.6937   20.8756 C   0  0  0  0  0  0
  -23.9063  -10.4304   21.0401 C   0  0  0  0  0  0
  -24.3613   -9.4215   21.9176 C   0  0  0  0  0  0
  -23.6281   -8.2255   22.0760 C   0  0  0  0  0  0
  -22.4262   -8.0289   21.3554 C   0  0  0  0  0  0
  -21.9900   -9.0263   20.4657 C   0  0  0  0  0  0
  -22.7234  -10.2140   20.3050 C   0  0  0  0  0  0
  -21.6861   -6.0729   22.5283 C   0  0  0  0  0  0
  -21.4018   -6.5628   23.8217 C   0  0  0  0  0  0
  -21.3659   -5.6779   24.9174 C   0  0  0  0  0  0
  -21.6039   -4.3043   24.7221 C   0  0  0  0  0  0
  -21.8818   -3.8136   23.4342 C   0  0  0  0  0  0
  -21.9196   -4.6954   22.3402 C   0  0  0  0  0  0
  -22.7815  -13.5253   21.1855 C   0  0  0  0  0  0
  -22.1665   -4.2142   21.0979 F   0  0  0  0  0  0
  -21.5630   -3.4528   25.7732 F   0  0  0  0  0  0
  -29.9988  -13.4759   20.4185 N   0  0  0  0  0  0
  -26.2948  -12.9415   20.3301 N   0  0  0  0  0  0
  -25.9312  -11.6558   20.5751 N   0  0  0  0  0  0
  -22.0434  -12.8264   22.0414 N   0  0  0  0  0  0
  -25.4170  -15.1933   20.4118 N   0  0  0  0  0  0
  -31.8211  -14.7827   20.1204 O   0  0  0  0  0  0
  -21.6638   -6.8875   21.4244 O   0  0  0  0  0  0
  -22.3506  -14.5552   20.6686 O   0  0  0  0  0  0
  -24.6272  -31.8589   23.2040 C   0  0  0  0  0  0
  -25.9122  -32.4773   23.8355 C   0  0  1  0  0  0
  -27.2142  -27.2912   20.1155 C   0  0  0  0  0  0
  -25.5943  -33.8578   24.2281 N   0  0  0  0  0  0
  -23.4215  -30.4861   21.5455 C   0  0  2  0  0  0
  -24.8681  -28.9446   20.1062 C   0  0  0  0  0  0
  -22.7475  -29.4626   22.4909 C   0  0  0  0  0  0
  -18.0282  -28.1388   22.8500 C   0  0  0  0  0  0
  -24.1490  -36.7287   23.2636 C   0  0  0  0  0  0
  -25.9666  -30.7817   21.3802 C   0  0  0  0  0  0
  -26.0385  -29.4076   20.7200 C   0  0  0  0  0  0
  -27.2142  -28.5928   20.7163 C   0  0  0  0  0  0
  -26.0232  -26.9051   19.4551 C   0  0  0  0  0  0
  -24.8646  -27.7003   19.4639 C   0  0  0  0  0  0
  -23.6381  -29.8270   20.1588 C   0  0  0  0  0  0
  -25.4118  -36.3075   24.0324 C   0  0  1  0  0  0
  -20.5884  -28.3696   23.1274 C   0  0  2  0  0  0
  -20.6765  -26.9416   22.5406 C   0  0  0  0  0  0
  -19.5740  -26.6391   21.5209 C   0  0  0  0  0  0
  -18.1922  -26.7934   22.1630 C   0  0  0  0  0  0
  -19.1536  -28.8861   23.2885 C   0  0  0  0  0  0
  -18.9454  -30.1460   23.8904 C   0  0  0  0  0  0
  -17.6454  -30.6596   24.0562 C   0  0  0  0  0  0
  -25.9057  -34.9447   23.5099 C   0  0  0  0  0  0
  -16.5347  -29.9091   23.6329 C   0  0  0  0  0  0
  -16.7267  -28.6502   23.0368 C   0  0  0  0  0  0
  -26.4512  -31.6585   25.0725 C   0  0  0  0  0  0
  -25.3748  -31.3731   26.1453 C   0  0  0  0  0  0
  -27.0344  -30.3000   24.6187 C   0  0  0  0  0  0
  -27.6058  -32.4332   25.7505 C   0  0  0  0  0  0
  -27.5579  -37.1800   24.8466 C   0  0  0  0  0  0
  -21.4184  -29.3053   22.3669 N   0  0  0  0  0  0
  -26.4291  -37.3775   23.9411 N   0  0  0  0  0  0
  -24.6904  -31.0593   22.0996 N   0  0  0  0  0  0
  -23.4196  -28.8145   23.2971 O   0  0  0  0  0  0
  -28.3049  -26.3969   20.1955 O   0  0  0  0  0  0
  -26.5613  -34.8914   22.4657 O   0  0  0  0  0  0
  -23.5434  -32.1388   23.7364 O   0  0  0  0  0  0
  -29.5887  -19.8046   20.1472 C   0  0  0  0  0  0
  -28.7739  -20.9144   20.5899 C   0  0  0  0  0  0
  -29.4918  -18.5057   20.7752 C   0  0  0  0  0  0
  -27.9079  -20.5837   21.6684 C   0  0  0  0  0  0
  -24.7101  -20.0908   22.2464 C   0  0  0  0  0  0
  -28.6587  -22.2933   19.8098 C   0  0  0  0  0  0
  -26.8558  -21.5466   22.2141 C   0  0  0  0  0  0
  -30.3432  -17.2419   20.3599 C   0  0  0  0  0  0
  -25.4345  -21.3131   21.6588 C   0  0  0  0  0  0
  -28.9765  -23.7466   20.4352 C   0  0  0  0  0  0
  -28.0580  -24.9520   19.9026 C   0  0  0  0  0  0
  -28.6578  -18.3392   21.8272 N   0  0  0  0  0  0
  -27.9002  -19.3562   22.2591 N   0  0  0  0  0  0
  -29.9030  -15.8257   20.6919 N   0  0  0  0  0  0
  -31.4735  -12.5269   19.1761 H   0  0  0  0  0  0
  -30.3590  -11.4376   19.9494 H   0  0  0  0  0  0
  -29.7829  -11.7285   17.5148 H   0  0  0  0  0  0
  -29.6522  -13.4555   17.7337 H   0  0  0  0  0  0
  -27.8805  -11.2869   18.9058 H   0  0  0  0  0  0
  -27.3807  -12.5367   17.8000 H   0  0  0  0  0  0
  -27.6462  -14.2545   19.4859 H   0  0  0  0  0  0
  -28.7055  -12.1466   21.4314 H   0  0  0  0  0  0
  -28.4298  -13.8316   21.8026 H   0  0  0  0  0  0
  -25.2741   -9.5704   22.4771 H   0  0  0  0  0  0
  -23.9991   -7.4647   22.7488 H   0  0  0  0  0  0
  -21.0829   -8.8788   19.8964 H   0  0  0  0  0  0
  -22.3683  -10.9685   19.6177 H   0  0  0  0  0  0
  -21.2014   -7.6139   23.9722 H   0  0  0  0  0  0
  -21.1484   -6.0503   25.9081 H   0  0  0  0  0  0
  -22.0596   -2.7598   23.2847 H   0  0  0  0  0  0
  -22.4022  -11.9939   22.4852 H   0  0  0  0  0  0
  -21.1063  -13.1335   22.2586 H   0  0  0  0  0  0
  -24.6441  -15.8404   20.5208 H   0  0  0  0  0  0
  -26.2668  -15.6447   20.0999 H   0  0  0  0  0  0
  -26.7176  -32.5431   23.1086 H   0  0  0  0  0  0
  -25.0100  -33.9728   25.0435 H   0  0  0  0  0  0
  -22.7149  -31.3072   21.4046 H   0  0  0  0  0  0
  -23.3748  -35.9624   23.3299 H   0  0  0  0  0  0
  -24.3571  -36.8917   22.2049 H   0  0  0  0  0  0
  -23.7252  -37.6493   23.6659 H   0  0  0  0  0  0
  -26.1028  -31.5451   20.6129 H   0  0  0  0  0  0
  -26.8464  -30.8279   22.0113 H   0  0  0  0  0  0
  -28.1076  -28.9412   21.2146 H   0  0  0  0  0  0
  -25.9464  -25.9649   18.9311 H   0  0  0  0  0  0
  -23.9705  -27.3453   18.9700 H   0  0  0  0  0  0
  -23.7609  -30.6070   19.4064 H   0  0  0  0  0  0
  -22.7562  -29.2616   19.8506 H   0  0  0  0  0  0
  -25.1298  -36.1917   25.0816 H   0  0  0  0  0  0
  -20.9987  -28.3270   24.1391 H   0  0  0  0  0  0
  -20.5657  -26.2306   23.3608 H   0  0  0  0  0  0
  -21.6634  -26.7435   22.1209 H   0  0  0  0  0  0
  -19.6902  -25.6298   21.1245 H   0  0  0  0  0  0
  -19.6684  -27.3196   20.6733 H   0  0  0  0  0  0
  -17.4194  -26.6689   21.4028 H   0  0  0  0  0  0
  -18.0327  -26.0063   22.9012 H   0  0  0  0  0  0
  -19.7925  -30.7275   24.2278 H   0  0  0  0  0  0
  -17.5006  -31.6278   24.5162 H   0  0  0  0  0  0
  -15.5346  -30.3003   23.7644 H   0  0  0  0  0  0
  -15.8662  -28.0817   22.7098 H   0  0  0  0  0  0
  -24.5909  -30.7098   25.7784 H   0  0  0  0  0  0
  -24.8957  -32.2902   26.4880 H   0  0  0  0  0  0
  -25.8074  -30.8900   27.0220 H   0  0  0  0  0  0
  -26.2905  -29.6759   24.1215 H   0  0  0  0  0  0
  -27.4035  -29.7256   25.4693 H   0  0  0  0  0  0
  -27.8790  -30.4277   23.9413 H   0  0  0  0  0  0
  -27.2643  -33.3628   26.2068 H   0  0  0  0  0  0
  -28.3876  -32.6902   25.0347 H   0  0  0  0  0  0
  -28.0706  -31.8464   26.5440 H   0  0  0  0  0  0
  -28.2592  -38.0095   24.7501 H   0  0  0  0  0  0
  -28.1076  -36.2628   24.6303 H   0  0  0  0  0  0
  -27.2291  -37.1462   25.8866 H   0  0  0  0  0  0
  -20.9348  -29.8795   21.6909 H   0  0  0  0  0  0
  -26.0164  -38.2846   24.1422 H   0  0  0  0  0  0
  -30.2520  -19.9318   19.3036 H   0  0  0  0  0  0
  -23.6811  -20.0376   21.8869 H   0  0  0  0  0  0
  -24.6774  -20.1324   23.3363 H   0  0  0  0  0  0
  -25.1988  -19.1582   21.9633 H   0  0  0  0  0  0
  -27.6276  -22.3217   19.4547 H   0  0  0  0  0  0
  -29.2444  -22.1980   18.8947 H   0  0  0  0  0  0
  -27.1360  -22.5739   22.0012 H   0  0  0  0  0  0
  -26.8470  -21.4847   23.3024 H   0  0  0  0  0  0
  -31.3348  -17.3912   20.7898 H   0  0  0  0  0  0
  -30.4838  -17.2945   19.2799 H   0  0  0  0  0  0
  -24.8337  -22.1939   21.8869 H   0  0  0  0  0  0
  -25.4617  -21.2452   20.5696 H   0  0  0  0  0  0
  -30.0227  -23.9818   20.2381 H   0  0  0  0  0  0
  -28.9048  -23.7180   21.5227 H   0  0  0  0  0  0
  -28.0037  -24.8654   18.8165 H   0  0  0  0  0  0
  -27.0673  -24.6958   20.2781 H   0  0  0  0  0  0
  -28.9417  -15.7123   20.9736 H   0  0  0  0  0  0
  1 25  1  0  0  0
  1 30  2  0  0  0
  1 84  1  0  0  0
  2  3  1  0  0  0
  2 25  1  0  0  0
  2 85  1  0  0  0
  2 86  1  0  0  0
  3  4  1  0  0  0
  3 87  1  0  0  0
  3 88  1  0  0  0
  4  5  1  0  0  0
  4 89  1  0  0  0
  4 90  1  0  0  0
  5  6  1  0  0  0
  5 26  1  0  0  0
  5 91  1  0  0  0
  6 25  1  0  0  0
  6 92  1  0  0  0
  6 93  1  0  0  0
  7  8  2  0  0  0
  7 26  1  0  0  0
  7 29  1  0  0  0
  8  9  1  0  0  0
  8 22  1  0  0  0
  9 10  1  0  0  0
  9 27  2  0  0  0
 10 11  2  0  0  0
 10 15  1  0  0  0
 11 12  1  0  0  0
 11 94  1  0  0  0
 12 13  2  0  0  0
 12 95  1  0  0  0
 13 14  1  0  0  0
 13 31  1  0  0  0
 14 15  2  0  0  0
 14 96  1  0  0  0
 15 97  1  0  0  0
 16 17  2  0  0  0
 16 21  1  0  0  0
 16 31  1  0  0  0
 17 18  1  0  0  0
 17 98  1  0  0  0
 18 19  2  0  0  0
 18 99  1  0  0  0
 19 20  1  0  0  0
 19 24  1  0  0  0
 20 21  2  0  0  0
 20100  1  0  0  0
 21 23  1  0  0  0
 22 28  1  0  0  0
 22 32  2  0  0  0
 26 27  1  0  0  0
 28101  1  0  0  0
 28102  1  0  0  0
 29103  1  0  0  0
 29104  1  0  0  0
 33 34  1  0  0  0
 33 66  1  0  0  0
 33 70  2  0  0  0
 34 36  1  0  0  0
 34 59  1  0  0  0
 34105  1  0  0  0
 35 44  2  0  0  0
 35 45  1  0  0  0
 35 68  1  0  0  0
 36 56  1  0  0  0
 36106  1  0  0  0
 37 39  1  0  0  0
 37 47  1  0  0  0
 37 66  1  0  0  0
 37107  1  0  0  0
 38 43  2  0  0  0
 38 46  1  0  0  0
 38 47  1  0  0  0
 39 64  1  0  0  0
 39 67  2  0  0  0
 40 52  1  0  0  0
 40 53  2  0  0  0
 40 58  1  0  0  0
 41108  1  0  0  0
 41109  1  0  0  0
 41110  1  0  0  0
 41 48  1  0  0  0
 42 43  1  0  0  0
 42 66  1  0  0  0
 42111  1  0  0  0
 42112  1  0  0  0
 43 44  1  0  0  0
 44113  1  0  0  0
 45 46  2  0  0  0
 45114  1  0  0  0
 46115  1  0  0  0
 47116  1  0  0  0
 47117  1  0  0  0
 48 56  1  0  0  0
 48 65  1  0  0  0
 48118  1  0  0  0
 49 50  1  0  0  0
 49 53  1  0  0  0
 49 64  1  0  0  0
 49119  1  0  0  0
 50 51  1  0  0  0
 50120  1  0  0  0
 50121  1  0  0  0
 51 52  1  0  0  0
 51122  1  0  0  0
 51123  1  0  0  0
 52124  1  0  0  0
 52125  1  0  0  0
 53 54  1  0  0  0
 54 55  2  0  0  0
 54126  1  0  0  0
 55 57  1  0  0  0
 55127  1  0  0  0
 56 69  2  0  0  0
 57 58  2  0  0  0
 57128  1  0  0  0
 58129  1  0  0  0
 59 60  1  0  0  0
 59 61  1  0  0  0
 59 62  1  0  0  0
 60130  1  0  0  0
 60131  1  0  0  0
 60132  1  0  0  0
 61133  1  0  0  0
 61134  1  0  0  0
 61135  1  0  0  0
 62136  1  0  0  0
 62137  1  0  0  0
 62138  1  0  0  0
 63 65  1  0  0  0
 63139  1  0  0  0
 63140  1  0  0  0
 63141  1  0  0  0
 64142  1  0  0  0
 65143  1  0  0  0
 68 81  1  0  0  0
 71 72  2  0  0  0
 71 73  1  0  0  0
 71144  1  0  0  0
 72 74  1  0  0  0
 72 76  1  0  0  0
 73 78  1  0  0  0
 73 82  2  0  0  0
 74 77  1  0  0  0
 74 83  2  0  0  0
 75 79  1  0  0  0
 75145  1  0  0  0
 75146  1  0  0  0
 75147  1  0  0  0
 76 80  1  0  0  0
 76148  1  0  0  0
 76149  1  0  0  0
 77 79  1  0  0  0
 77150  1  0  0  0
 77151  1  0  0  0
 78 84  1  0  0  0
 78152  1  0  0  0
 78153  1  0  0  0
 79154  1  0  0  0
 79155  1  0  0  0
 80 81  1  0  0  0
 80156  1  0  0  0
 80157  1  0  0  0
 81158  1  0  0  0
 81159  1  0  0  0
 82 83  1  0  0  0
 84160  1  0  0  0
M  ISO  4   1 100  68 101  81 101  84 100
M  END
> <chiral flag>
0

> <version>
0

> <s_m_source_file>
/data/baiqing/PycharmProjects/Reinvent-master-3.2/result/LINK_invent/BTK/process_docking_weight1_custom_sum_contain_oxygen_bond_distance_aromatic_linkinvent_7_9_3/rearranged_h_0093.sdf

> <i_m_source_file_index>
34

> <r_mmod_Potential_Energy-OPLS-2005>
59.2061462402344

> <r_mmod_Stretch_Energy-OPLS-2005>
102.309844970703

> <r_mmod_Bend_Energy-OPLS-2005>
159.92253112793

> <r_mmod_Torsional_Energy-OPLS-2005>
207.002182006836

> <r_mmod_Improper_Torsional_Energy-OPLS-2005>
6.88044595718384

> <r_mmod_Van_der_Waal_Energy-OPLS-2005>
144.222015380859

> <r_mmod_Electrostatic_Energy-OPLS-2005>
-404.620178222656

> <r_mmod_Solvation_Energy-OPLS-2005>
-224.326324462891

> <b_mmod_Minimization_Converged-OPLS-2005>
0

> <r_mmod_RMS_Derivative-OPLS-2005>
1.95679926872253

$$$$
34
                    3D
 Structure written by MMmdl.
152160  0  0  1  0            999 V2000
  -30.4964  -14.9871   20.3717 C   0  0  0  0  0  0
  -30.4357  -12.6070   19.4898 C   0  0  0  0  0  0
  -29.5207  -12.5392   18.2477 C   0  0  0  0  0  0
  -28.0509  -12.3322   18.6588 C   0  0  0  0  0  0
  -27.6245  -13.2527   19.8337 C   0  0  2  0  0  0
  -28.6688  -13.2812   20.9671 C   0  0  0  0  0  0
  -25.2434  -13.8218   20.5682 C   0  0  0  0  0  0
  -24.1760  -13.0430   20.9193 C   0  0  0  0  0  0
  -24.6395  -11.6925   20.8737 C   0  0  0  0  0  0
  -23.9102  -10.4291   21.0403 C   0  0  0  0  0  0
  -24.3648   -9.4218   21.9190 C   0  0  0  0  0  0
  -23.6317   -8.2266   22.0755 C   0  0  0  0  0  0
  -22.4301   -8.0280   21.3536 C   0  0  0  0  0  0
  -21.9935   -9.0248   20.4645 C   0  0  0  0  0  0
  -22.7264  -10.2133   20.3067 C   0  0  0  0  0  0
  -21.6870   -6.0740   22.5257 C   0  0  0  0  0  0
  -21.4028   -6.5642   23.8181 C   0  0  0  0  0  0
  -21.3684   -5.6786   24.9146 C   0  0  0  0  0  0
  -21.6057   -4.3045   24.7203 C   0  0  0  0  0  0
  -21.8833   -3.8137   23.4320 C   0  0  0  0  0  0
  -21.9202   -4.6965   22.3378 C   0  0  0  0  0  0
  -22.7782  -13.5197   21.1859 C   0  0  0  0  0  0
  -22.1659   -4.2159   21.0962 F   0  0  0  0  0  0
  -21.5651   -3.4525   25.7720 F   0  0  0  0  0  0
  -29.9349  -13.7092   20.3601 N   0  0  0  0  0  0
  -26.2861  -12.9465   20.3211 N   0  0  0  0  0  0
  -25.9334  -11.6586   20.5702 N   0  0  0  0  0  0
  -22.0445  -12.8190   22.0420 N   0  0  0  0  0  0
  -25.4074  -15.1959   20.4170 N   0  0  0  0  0  0
  -31.7072  -15.0631   20.1325 O   0  0  0  0  0  0
  -21.6654   -6.8888   21.4223 O   0  0  0  0  0  0
  -22.3479  -14.5494   20.6700 O   0  0  0  0  0  0
  -24.6461  -31.8384   23.1843 C   0  0  0  0  0  0
  -25.9231  -32.4654   23.8239 C   0  0  1  0  0  0
  -27.2093  -27.1006   20.1394 C   0  0  0  0  0  0
  -25.5979  -33.8466   24.2149 N   0  0  0  0  0  0
  -23.4500  -30.4590   21.5291 C   0  0  2  0  0  0
  -24.8952  -28.8768   20.1052 C   0  0  0  0  0  0
  -22.7575  -29.4514   22.4827 C   0  0  0  0  0  0
  -18.0302  -28.1367   22.8479 C   0  0  0  0  0  0
  -24.1507  -36.7240   23.2646 C   0  0  0  0  0  0
  -26.0084  -30.6997   21.3885 C   0  0  0  0  0  0
  -26.0727  -29.3078   20.7274 C   0  0  0  0  0  0
  -27.2264  -28.4333   20.7297 C   0  0  0  0  0  0
  -26.0051  -26.7802   19.4770 C   0  0  0  0  0  0
  -24.8757  -27.6277   19.4658 C   0  0  0  0  0  0
  -23.6769  -29.7859   20.1486 C   0  0  0  0  0  0
  -25.4131  -36.2996   24.0313 C   0  0  1  0  0  0
  -20.5916  -28.3694   23.1216 C   0  0  2  0  0  0
  -20.6788  -26.9397   22.5391 C   0  0  0  0  0  0
  -19.5765  -26.6353   21.5204 C   0  0  0  0  0  0
  -18.1946  -26.7903   22.1616 C   0  0  0  0  0  0
  -19.1560  -28.8844   23.2847 C   0  0  0  0  0  0
  -18.9485  -30.1439   23.8872 C   0  0  0  0  0  0
  -17.6485  -30.6569   24.0539 C   0  0  0  0  0  0
  -25.9083  -34.9381   23.5039 C   0  0  0  0  0  0
  -16.5373  -29.9061   23.6327 C   0  0  0  0  0  0
  -16.7287  -28.6470   23.0368 C   0  0  0  0  0  0
  -26.4536  -31.6537   25.0705 C   0  0  0  0  0  0
  -25.3730  -31.3753   26.1413 C   0  0  0  0  0  0
  -27.0394  -30.2912   24.6335 C   0  0  0  0  0  0
  -27.6037  -32.4317   25.7519 C   0  0  0  0  0  0
  -27.5569  -37.1779   24.8458 C   0  0  0  0  0  0
  -21.4262  -29.3037   22.3595 N   0  0  0  0  0  0
  -26.4276  -37.3719   23.9416 N   0  0  0  0  0  0
  -24.7217  -31.0208   22.0890 N   0  0  0  0  0  0
  -23.4205  -28.8063   23.2988 O   0  0  0  0  0  0
  -28.2661  -26.1137   20.2413 O   0  0  0  0  0  0
  -26.5667  -34.8889   22.4623 O   0  0  0  0  0  0
  -23.5570  -32.1276   23.7045 O   0  0  0  0  0  0
  -27.6093  -17.9628   19.3059 C   0  0  0  0  0  0
  -26.4114  -18.5041   18.8319 C   0  0  0  0  0  0
  -27.0920  -20.6325   19.3256 C   0  0  0  0  0  0
  -28.6465  -18.7525   19.8607 C   0  0  0  0  0  0
  -28.3594  -20.2609   19.8378 C   0  0  0  0  0  0
  -29.1629  -21.6557   20.1654 C   0  0  0  0  0  0
  -29.8672  -17.7360   20.3138 C   0  0  0  0  0  0
  -28.4685  -23.1690   20.5994 C   0  0  0  0  0  0
  -28.2768  -24.6203   19.7322 C   0  0  0  0  0  0
  -26.1446  -19.8116   18.8530 N   0  0  0  0  0  0
  -29.6738  -16.1503   20.4467 N   0  0  0  0  0  0
  -31.4662  -12.7730   19.1735 H   0  0  0  0  0  0
  -30.4327  -11.6554   20.0240 H   0  0  0  0  0  0
  -29.8403  -11.7357   17.5830 H   0  0  0  0  0  0
  -29.6128  -13.4639   17.6754 H   0  0  0  0  0  0
  -27.9286  -11.2855   18.9424 H   0  0  0  0  0  0
  -27.3975  -12.4947   17.8005 H   0  0  0  0  0  0
  -27.5856  -14.2597   19.4174 H   0  0  0  0  0  0
  -28.7678  -12.3009   21.4370 H   0  0  0  0  0  0
  -28.3651  -13.9761   21.7513 H   0  0  0  0  0  0
  -25.2813   -9.5697   22.4735 H   0  0  0  0  0  0
  -24.0031   -7.4683   22.7493 H   0  0  0  0  0  0
  -21.0853   -8.8755   19.8975 H   0  0  0  0  0  0
  -22.3706  -10.9652   19.6158 H   0  0  0  0  0  0
  -21.1993   -7.6146   23.9674 H   0  0  0  0  0  0
  -21.1506   -6.0523   25.9052 H   0  0  0  0  0  0
  -22.0593   -2.7608   23.2795 H   0  0  0  0  0  0
  -22.4091  -11.9871   22.4808 H   0  0  0  0  0  0
  -21.1067  -13.1196   22.2632 H   0  0  0  0  0  0
  -24.6427  -15.8446   20.5661 H   0  0  0  0  0  0
  -26.2583  -15.6450   20.1104 H   0  0  0  0  0  0
  -26.7295  -32.5229   23.0959 H   0  0  0  0  0  0
  -25.0145  -33.9567   25.0304 H   0  0  0  0  0  0
  -22.7550  -31.2870   21.3708 H   0  0  0  0  0  0
  -23.3759  -35.9582   23.3272 H   0  0  0  0  0  0
  -24.3597  -36.8907   22.2068 H   0  0  0  0  0  0
  -23.7272  -37.6434   23.6703 H   0  0  0  0  0  0
  -26.1776  -31.4558   20.6194 H   0  0  0  0  0  0
  -26.8752  -30.7403   22.0379 H   0  0  0  0  0  0
  -28.1214  -28.7553   21.2446 H   0  0  0  0  0  0
  -25.8864  -25.8299   18.9822 H   0  0  0  0  0  0
  -23.9744  -27.2939   18.9691 H   0  0  0  0  0  0
  -23.8238  -30.5604   19.3948 H   0  0  0  0  0  0
  -22.7893  -29.2355   19.8311 H   0  0  0  0  0  0
  -25.1325  -36.1807   25.0800 H   0  0  0  0  0  0
  -21.0014  -28.3295   24.1332 H   0  0  0  0  0  0
  -20.5657  -26.2327   23.3625 H   0  0  0  0  0  0
  -21.6662  -26.7393   22.1204 H   0  0  0  0  0  0
  -19.6939  -25.6259   21.1251 H   0  0  0  0  0  0
  -19.6691  -27.3149   20.6727 H   0  0  0  0  0  0
  -17.4219  -26.6627   21.4025 H   0  0  0  0  0  0
  -18.0352  -26.0030   22.8994 H   0  0  0  0  0  0
  -19.7967  -30.7254   24.2222 H   0  0  0  0  0  0
  -17.5044  -31.6250   24.5143 H   0  0  0  0  0  0
  -15.5371  -30.2968   23.7648 H   0  0  0  0  0  0
  -15.8680  -28.0773   22.7115 H   0  0  0  0  0  0
  -24.5939  -30.7042   25.7789 H   0  0  0  0  0  0
  -24.8897  -32.2939   26.4743 H   0  0  0  0  0  0
  -25.8052  -30.9037   27.0248 H   0  0  0  0  0  0
  -26.3009  -29.6629   24.1340 H   0  0  0  0  0  0
  -27.3957  -29.7231   25.4940 H   0  0  0  0  0  0
  -27.8950  -30.4109   23.9687 H   0  0  0  0  0  0
  -27.2595  -33.3643   26.2007 H   0  0  0  0  0  0
  -28.3922  -32.6823   25.0412 H   0  0  0  0  0  0
  -28.0618  -31.8498   26.5527 H   0  0  0  0  0  0
  -28.2549  -38.0104   24.7495 H   0  0  0  0  0  0
  -28.1088  -36.2621   24.6279 H   0  0  0  0  0  0
  -27.2284  -37.1425   25.8858 H   0  0  0  0  0  0
  -20.9456  -29.8787   21.6810 H   0  0  0  0  0  0
  -26.0121  -38.2786   24.1403 H   0  0  0  0  0  0
  -27.7091  -16.8965   19.1904 H   0  0  0  0  0  0
  -25.6493  -17.8626   18.4149 H   0  0  0  0  0  0
  -26.8120  -21.6728   19.2520 H   0  0  0  0  0  0
  -29.8174  -21.8449   19.3131 H   0  0  0  0  0  0
  -29.8418  -21.3835   20.9743 H   0  0  0  0  0  0
  -30.2474  -18.0985   21.2683 H   0  0  0  0  0  0
  -30.6751  -17.8940   19.5965 H   0  0  0  0  0  0
  -29.1347  -23.4873   21.4008 H   0  0  0  0  0  0
  -27.5356  -22.9720   21.1303 H   0  0  0  0  0  0
  -27.4319  -24.4614   19.0680 H   0  0  0  0  0  0
  -29.1214  -24.6252   19.0438 H   0  0  0  0  0  0
  -28.7099  -15.9141   20.6184 H   0  0  0  0  0  0
  1 25  1  0  0  0
  1 30  2  0  0  0
  1 81  1  0  0  0
  2  3  1  0  0  0
  2 25  1  0  0  0
  2 82  1  0  0  0
  2 83  1  0  0  0
  3  4  1  0  0  0
  3 84  1  0  0  0
  3 85  1  0  0  0
  4  5  1  0  0  0
  4 86  1  0  0  0
  4 87  1  0  0  0
  5  6  1  0  0  0
  5 26  1  0  0  0
  5 88  1  0  0  0
  6 25  1  0  0  0
  6 89  1  0  0  0
  6 90  1  0  0  0
  7  8  2  0  0  0
  7 26  1  0  0  0
  7 29  1  0  0  0
  8  9  1  0  0  0
  8 22  1  0  0  0
  9 10  1  0  0  0
  9 27  2  0  0  0
 10 11  2  0  0  0
 10 15  1  0  0  0
 11 12  1  0  0  0
 11 91  1  0  0  0
 12 13  2  0  0  0
 12 92  1  0  0  0
 13 14  1  0  0  0
 13 31  1  0  0  0
 14 15  2  0  0  0
 14 93  1  0  0  0
 15 94  1  0  0  0
 16 17  2  0  0  0
 16 21  1  0  0  0
 16 31  1  0  0  0
 17 18  1  0  0  0
 17 95  1  0  0  0
 18 19  2  0  0  0
 18 96  1  0  0  0
 19 20  1  0  0  0
 19 24  1  0  0  0
 20 21  2  0  0  0
 20 97  1  0  0  0
 21 23  1  0  0  0
 22 28  1  0  0  0
 22 32  2  0  0  0
 26 27  1  0  0  0
 28 98  1  0  0  0
 28 99  1  0  0  0
 29100  1  0  0  0
 29101  1  0  0  0
 33 34  1  0  0  0
 33 66  1  0  0  0
 33 70  2  0  0  0
 34 36  1  0  0  0
 34 59  1  0  0  0
 34102  1  0  0  0
 35 44  2  0  0  0
 35 45  1  0  0  0
 35 68  1  0  0  0
 36 56  1  0  0  0
 36103  1  0  0  0
 37 39  1  0  0  0
 37 47  1  0  0  0
 37 66  1  0  0  0
 37104  1  0  0  0
 38 43  2  0  0  0
 38 46  1  0  0  0
 38 47  1  0  0  0
 39 64  1  0  0  0
 39 67  2  0  0  0
 40 52  1  0  0  0
 40 53  2  0  0  0
 40 58  1  0  0  0
 41105  1  0  0  0
 41106  1  0  0  0
 41107  1  0  0  0
 41 48  1  0  0  0
 42 43  1  0  0  0
 42 66  1  0  0  0
 42108  1  0  0  0
 42109  1  0  0  0
 43 44  1  0  0  0
 44110  1  0  0  0
 45 46  2  0  0  0
 45111  1  0  0  0
 46112  1  0  0  0
 47113  1  0  0  0
 47114  1  0  0  0
 48 56  1  0  0  0
 48 65  1  0  0  0
 48115  1  0  0  0
 49 50  1  0  0  0
 49 53  1  0  0  0
 49 64  1  0  0  0
 49116  1  0  0  0
 50 51  1  0  0  0
 50117  1  0  0  0
 50118  1  0  0  0
 51 52  1  0  0  0
 51119  1  0  0  0
 51120  1  0  0  0
 52121  1  0  0  0
 52122  1  0  0  0
 53 54  1  0  0  0
 54 55  2  0  0  0
 54123  1  0  0  0
 55 57  1  0  0  0
 55124  1  0  0  0
 56 69  2  0  0  0
 57 58  2  0  0  0
 57125  1  0  0  0
 58126  1  0  0  0
 59 60  1  0  0  0
 59 61  1  0  0  0
 59 62  1  0  0  0
 60127  1  0  0  0
 60128  1  0  0  0
 60129  1  0  0  0
 61130  1  0  0  0
 61131  1  0  0  0
 61132  1  0  0  0
 62133  1  0  0  0
 62134  1  0  0  0
 62135  1  0  0  0
 63 65  1  0  0  0
 63136  1  0  0  0
 63137  1  0  0  0
 63138  1  0  0  0
 64139  1  0  0  0
 65140  1  0  0  0
 68 79  1  0  0  0
 71 72  2  0  0  0
 71 74  1  0  0  0
 71141  1  0  0  0
 72 80  1  0  0  0
 72142  1  0  0  0
 73 75  1  0  0  0
 73 80  2  0  0  0
 73143  1  0  0  0
 74 75  2  0  0  0
 74 77  1  0  0  0
 75 76  1  0  0  0
 76 78  1  0  0  0
 76144  1  0  0  0
 76145  1  0  0  0
 77 81  1  0  0  0
 77146  1  0  0  0
 77147  1  0  0  0
 78 79  1  0  0  0
 78148  1  0  0  0
 78149  1  0  0  0
 79150  1  0  0  0
 79151  1  0  0  0
 81152  1  0  0  0
M  ISO  4   1 100  68 101  79 101  81 100
M  END
> <chiral flag>
0

> <version>
0

> <s_m_source_file>
/data/baiqing/PycharmProjects/Reinvent-master-3.2/result/LINK_invent/BTK/process_docking_weight1_custom_sum_contain_oxygen_bond_distance_aromatic_linkinvent_7_9_3/rearranged_h_0093.sdf

> <i_m_source_file_index>
35

> <r_mmod_Potential_Energy-OPLS-2005>
434.614837646484

> <r_mmod_Stretch_Energy-OPLS-2005>
316.112548828125

> <r_mmod_Bend_Energy-OPLS-2005>
357.477325439453

> <r_mmod_Torsional_Energy-OPLS-2005>
210.49299621582

> <r_mmod_Improper_Torsional_Energy-OPLS-2005>
4.55312538146973

> <r_mmod_Van_der_Waal_Energy-OPLS-2005>
134.666763305664

> <r_mmod_Electrostatic_Energy-OPLS-2005>
-581.37353515625

> <r_mmod_Solvation_Energy-OPLS-2005>
-231.128890991211

> <b_mmod_Minimization_Converged-OPLS-2005>
0

> <r_mmod_RMS_Derivative-OPLS-2005>
3.51642560958862

$$$$
35
                    3D
 Structure written by MMmdl.
171179  0  0  1  0            999 V2000
  -30.6992  -14.5073   20.5649 C   0  0  0  0  0  0
  -30.4242  -12.3310   19.4255 C   0  0  0  0  0  0
  -29.4957  -12.5053   18.2073 C   0  0  0  0  0  0
  -28.0174  -12.3633   18.6197 C   0  0  0  0  0  0
  -27.6587  -13.2119   19.8694 C   0  0  2  0  0  0
  -28.7022  -13.0188   20.9919 C   0  0  0  0  0  0
  -25.2585  -13.8180   20.5685 C   0  0  0  0  0  0
  -24.1840  -13.0449   20.9174 C   0  0  0  0  0  0
  -24.6397  -11.6916   20.8730 C   0  0  0  0  0  0
  -23.9063  -10.4302   21.0400 C   0  0  0  0  0  0
  -24.3618   -9.4219   21.9178 C   0  0  0  0  0  0
  -23.6296   -8.2255   22.0753 C   0  0  0  0  0  0
  -22.4276   -8.0290   21.3550 C   0  0  0  0  0  0
  -21.9911   -9.0259   20.4650 C   0  0  0  0  0  0
  -22.7233  -10.2140   20.3055 C   0  0  0  0  0  0
  -21.6860   -6.0738   22.5277 C   0  0  0  0  0  0
  -21.4016   -6.5640   23.8211 C   0  0  0  0  0  0
  -21.3661   -5.6793   24.9173 C   0  0  0  0  0  0
  -21.6047   -4.3058   24.7222 C   0  0  0  0  0  0
  -21.8821   -3.8149   23.4344 C   0  0  0  0  0  0
  -21.9200   -4.6965   22.3401 C   0  0  0  0  0  0
  -22.7862  -13.5240   21.1840 C   0  0  0  0  0  0
  -22.1667   -4.2152   21.0977 F   0  0  0  0  0  0
  -21.5626   -3.4541   25.7734 F   0  0  0  0  0  0
  -30.0275  -13.3293   20.4321 N   0  0  0  0  0  0
  -26.3015  -12.9351   20.3346 N   0  0  0  0  0  0
  -25.9325  -11.6508   20.5755 N   0  0  0  0  0  0
  -22.0509  -12.8235   22.0402 N   0  0  0  0  0  0
  -25.4313  -15.1900   20.4095 N   0  0  0  0  0  0
  -31.8354  -14.6753   20.1160 O   0  0  0  0  0  0
  -21.6649   -6.8878   21.4240 O   0  0  0  0  0  0
  -22.3550  -14.5547   20.6694 O   0  0  0  0  0  0
  -24.6213  -31.8659   23.2092 C   0  0  0  0  0  0
  -25.9087  -32.4807   23.8401 C   0  0  1  0  0  0
  -27.2232  -27.3859   20.0895 C   0  0  0  0  0  0
  -25.5923  -33.8607   24.2320 N   0  0  0  0  0  0
  -23.4096  -30.4938   21.5520 C   0  0  2  0  0  0
  -24.8516  -28.9619   20.1127 C   0  0  0  0  0  0
  -22.7443  -29.4657   22.4969 C   0  0  0  0  0  0
  -18.0281  -28.1382   22.8491 C   0  0  0  0  0  0
  -24.1486  -36.7313   23.2637 C   0  0  0  0  0  0
  -25.9475  -30.8149   21.3728 C   0  0  0  0  0  0
  -26.0194  -29.4495   20.7121 C   0  0  0  0  0  0
  -27.2077  -28.6717   20.6944 C   0  0  0  0  0  0
  -26.0257  -26.9351   19.4782 C   0  0  0  0  0  0
  -24.8521  -27.7053   19.4925 C   0  0  0  0  0  0
  -23.6191  -29.8358   20.1644 C   0  0  0  0  0  0
  -25.4107  -36.3103   24.0336 C   0  0  1  0  0  0
  -20.5877  -28.3678   23.1297 C   0  0  2  0  0  0
  -20.6772  -26.9410   22.5409 C   0  0  0  0  0  0
  -19.5745  -26.6385   21.5212 C   0  0  0  0  0  0
  -18.1924  -26.7926   22.1626 C   0  0  0  0  0  0
  -19.1532  -28.8846   23.2891 C   0  0  0  0  0  0
  -18.9458  -30.1450   23.8906 C   0  0  0  0  0  0
  -17.6459  -30.6585   24.0565 C   0  0  0  0  0  0
  -25.9043  -34.9469   23.5125 C   0  0  0  0  0  0
  -16.5349  -29.9088   23.6326 C   0  0  0  0  0  0
  -16.7270  -28.6505   23.0348 C   0  0  0  0  0  0
  -26.4487  -31.6599   25.0751 C   0  0  0  0  0  0
  -25.3740  -31.3725   26.1492 C   0  0  0  0  0  0
  -27.0323  -30.3029   24.6175 C   0  0  0  0  0  0
  -27.6054  -32.4330   25.7515 C   0  0  0  0  0  0
  -27.5582  -37.1812   24.8464 C   0  0  0  0  0  0
  -21.4167  -29.3042   22.3702 N   0  0  0  0  0  0
  -26.4292  -37.3792   23.9410 N   0  0  0  0  0  0
  -24.6781  -31.0729   22.1017 N   0  0  0  0  0  0
  -23.4197  -28.8193   23.3018 O   0  0  0  0  0  0
  -28.3711  -26.5937   20.1179 O   0  0  0  0  0  0
  -26.5603  -34.8923   22.4686 O   0  0  0  0  0  0
  -23.5395  -32.1430   23.7459 O   0  0  0  0  0  0
  -31.8266  -19.6431   21.2105 C   0  0  0  0  0  0
  -29.6580  -20.6183   20.7546 C   0  0  0  0  0  0
  -30.4848  -19.4623   20.8241 C   0  0  0  0  0  0
  -32.3127  -20.8991   21.6238 C   0  0  0  0  0  0
  -30.1254  -21.9119   21.1389 C   0  0  0  0  0  0
  -31.4556  -22.0349   21.6358 C   0  0  0  0  0  0
  -34.6944  -21.3371   20.8790 C   0  0  0  0  0  0
  -31.7416  -23.3829   23.7668 C   0  0  0  0  0  0
  -30.2235  -17.7515   18.9762 C   0  0  0  0  0  0
  -33.7752  -20.9667   22.0502 C   0  0  0  0  0  0
  -29.1530  -23.1189   21.1005 C   0  0  0  0  0  0
  -31.9529  -23.3472   22.2470 C   0  0  0  0  0  0
  -29.4024  -24.2209   20.0142 C   0  0  0  0  0  0
  -30.5073  -16.8992   21.3853 C   0  0  0  0  0  0
  -28.2050  -25.1914   19.7719 C   0  0  0  0  0  0
  -29.9620  -18.0479   20.4605 C   0  0  1  0  0  0
  -30.0045  -15.5320   21.1067 N   0  0  0  0  0  0
  -31.4675  -12.4347   19.1215 H   0  0  0  0  0  0
  -30.3331  -11.3256   19.8392 H   0  0  0  0  0  0
  -29.7424  -11.7704   17.4396 H   0  0  0  0  0  0
  -29.6595  -13.4859   17.7562 H   0  0  0  0  0  0
  -27.8314  -11.3080   18.8222 H   0  0  0  0  0  0
  -27.3674  -12.6303   17.7854 H   0  0  0  0  0  0
  -27.6955  -14.2564   19.5593 H   0  0  0  0  0  0
  -28.6890  -11.9893   21.3528 H   0  0  0  0  0  0
  -28.4607  -13.6351   21.8588 H   0  0  0  0  0  0
  -25.2767   -9.5700   22.4744 H   0  0  0  0  0  0
  -24.0018   -7.4649   22.7466 H   0  0  0  0  0  0
  -21.0847   -8.8770   19.8952 H   0  0  0  0  0  0
  -22.3689  -10.9676   19.6162 H   0  0  0  0  0  0
  -21.2004   -7.6148   23.9709 H   0  0  0  0  0  0
  -21.1480   -6.0525   25.9072 H   0  0  0  0  0  0
  -22.0600   -2.7613   23.2841 H   0  0  0  0  0  0
  -22.4137  -11.9901   22.4787 H   0  0  0  0  0  0
  -21.1122  -13.1246   22.2601 H   0  0  0  0  0  0
  -24.6668  -15.8473   20.5208 H   0  0  0  0  0  0
  -26.2852  -15.6287   20.0871 H   0  0  0  0  0  0
  -26.7157  -32.5492   23.1160 H   0  0  0  0  0  0
  -25.0079  -33.9761   25.0469 H   0  0  0  0  0  0
  -22.7010  -31.3136   21.4158 H   0  0  0  0  0  0
  -23.3741  -35.9653   23.3303 H   0  0  0  0  0  0
  -24.3581  -36.8927   22.2051 H   0  0  0  0  0  0
  -23.7242  -37.6523   23.6649 H   0  0  0  0  0  0
  -26.0753  -31.5828   20.6085 H   0  0  0  0  0  0
  -26.8303  -30.8571   21.9995 H   0  0  0  0  0  0
  -28.1077  -29.0453   21.1631 H   0  0  0  0  0  0
  -25.9569  -25.9797   18.9812 H   0  0  0  0  0  0
  -23.9554  -27.3248   19.0225 H   0  0  0  0  0  0
  -23.7360  -30.6154   19.4108 H   0  0  0  0  0  0
  -22.7395  -29.2649   19.8614 H   0  0  0  0  0  0
  -25.1279  -36.1969   25.0829 H   0  0  0  0  0  0
  -20.9971  -28.3246   24.1416 H   0  0  0  0  0  0
  -20.5673  -26.2292   23.3603 H   0  0  0  0  0  0
  -21.6640  -26.7446   22.1201 H   0  0  0  0  0  0
  -19.6905  -25.6295   21.1241 H   0  0  0  0  0  0
  -19.6677  -27.3197   20.6741 H   0  0  0  0  0  0
  -17.4194  -26.6677   21.4028 H   0  0  0  0  0  0
  -18.0325  -26.0065   22.9019 H   0  0  0  0  0  0
  -19.7934  -30.7264   24.2281 H   0  0  0  0  0  0
  -17.5013  -31.6265   24.5168 H   0  0  0  0  0  0
  -15.5350  -30.2995   23.7638 H   0  0  0  0  0  0
  -15.8670  -28.0826   22.7057 H   0  0  0  0  0  0
  -24.5905  -30.7079   25.7834 H   0  0  0  0  0  0
  -24.8944  -32.2890   26.4942 H   0  0  0  0  0  0
  -25.8086  -30.8895   27.0253 H   0  0  0  0  0  0
  -26.2890  -29.6792   24.1197 H   0  0  0  0  0  0
  -27.4028  -29.7268   25.4665 H   0  0  0  0  0  0
  -27.8756  -30.4321   23.9387 H   0  0  0  0  0  0
  -27.2660  -33.3615   26.2119 H   0  0  0  0  0  0
  -28.3850  -32.6919   25.0339 H   0  0  0  0  0  0
  -28.0740  -31.8447   26.5414 H   0  0  0  0  0  0
  -28.2600  -38.0108   24.7512 H   0  0  0  0  0  0
  -28.1076  -36.2642   24.6281 H   0  0  0  0  0  0
  -27.2308  -37.1456   25.8870 H   0  0  0  0  0  0
  -20.9336  -29.8780   21.6932 H   0  0  0  0  0  0
  -26.0179  -38.2873   24.1403 H   0  0  0  0  0  0
  -32.5070  -18.8046   21.2131 H   0  0  0  0  0  0
  -28.6359  -20.5043   20.4213 H   0  0  0  0  0  0
  -35.7378  -21.3609   21.1935 H   0  0  0  0  0  0
  -34.4474  -22.3177   20.4720 H   0  0  0  0  0  0
  -34.6082  -20.6108   20.0699 H   0  0  0  0  0  0
  -32.1102  -24.3187   24.1876 H   0  0  0  0  0  0
  -32.2625  -22.5659   24.2666 H   0  0  0  0  0  0
  -30.6838  -23.3017   24.0178 H   0  0  0  0  0  0
  -29.8048  -18.5312   18.3392 H   0  0  0  0  0  0
  -29.7707  -16.8084   18.6709 H   0  0  0  0  0  0
  -31.2924  -17.6899   18.7696 H   0  0  0  0  0  0
  -34.0770  -19.9960   22.4460 H   0  0  0  0  0  0
  -33.9175  -21.6577   22.8796 H   0  0  0  0  0  0
  -29.1254  -23.5845   22.0857 H   0  0  0  0  0  0
  -28.1486  -22.7188   20.9569 H   0  0  0  0  0  0
  -31.4579  -24.2099   21.8193 H   0  0  0  0  0  0
  -33.0039  -23.5070   22.0104 H   0  0  0  0  0  0
  -29.5868  -23.6997   19.0739 H   0  0  0  0  0  0
  -30.3056  -24.8004   20.1875 H   0  0  0  0  0  0
  -30.2469  -17.1313   22.4188 H   0  0  0  0  0  0
  -31.5959  -16.8751   21.3588 H   0  0  0  0  0  0
  -27.3383  -24.7890   20.2983 H   0  0  0  0  0  0
  -27.9707  -25.1446   18.7071 H   0  0  0  0  0  0
  -28.8797  -18.0769   20.5954 H   0  0  0  0  0  0
  -29.0665  -15.3212   21.4120 H   0  0  0  0  0  0
  1 25  1  0  0  0
  1 30  2  0  0  0
  1 87  1  0  0  0
  2  3  1  0  0  0
  2 25  1  0  0  0
  2 88  1  0  0  0
  2 89  1  0  0  0
  3  4  1  0  0  0
  3 90  1  0  0  0
  3 91  1  0  0  0
  4  5  1  0  0  0
  4 92  1  0  0  0
  4 93  1  0  0  0
  5  6  1  0  0  0
  5 26  1  0  0  0
  5 94  1  0  0  0
  6 25  1  0  0  0
  6 95  1  0  0  0
  6 96  1  0  0  0
  7  8  2  0  0  0
  7 26  1  0  0  0
  7 29  1  0  0  0
  8  9  1  0  0  0
  8 22  1  0  0  0
  9 10  1  0  0  0
  9 27  2  0  0  0
 10 11  2  0  0  0
 10 15  1  0  0  0
 11 12  1  0  0  0
 11 97  1  0  0  0
 12 13  2  0  0  0
 12 98  1  0  0  0
 13 14  1  0  0  0
 13 31  1  0  0  0
 14 15  2  0  0  0
 14 99  1  0  0  0
 15100  1  0  0  0
 16 17  2  0  0  0
 16 21  1  0  0  0
 16 31  1  0  0  0
 17 18  1  0  0  0
 17101  1  0  0  0
 18 19  2  0  0  0
 18102  1  0  0  0
 19 20  1  0  0  0
 19 24  1  0  0  0
 20 21  2  0  0  0
 20103  1  0  0  0
 21 23  1  0  0  0
 22 28  1  0  0  0
 22 32  2  0  0  0
 26 27  1  0  0  0
 28104  1  0  0  0
 28105  1  0  0  0
 29106  1  0  0  0
 29107  1  0  0  0
 33 34  1  0  0  0
 33 66  1  0  0  0
 33 70  2  0  0  0
 34 36  1  0  0  0
 34 59  1  0  0  0
 34108  1  0  0  0
 35 44  2  0  0  0
 35 45  1  0  0  0
 35 68  1  0  0  0
 36 56  1  0  0  0
 36109  1  0  0  0
 37 39  1  0  0  0
 37 47  1  0  0  0
 37 66  1  0  0  0
 37110  1  0  0  0
 38 43  2  0  0  0
 38 46  1  0  0  0
 38 47  1  0  0  0
 39 64  1  0  0  0
 39 67  2  0  0  0
 40 52  1  0  0  0
 40 53  2  0  0  0
 40 58  1  0  0  0
 41111  1  0  0  0
 41112  1  0  0  0
 41113  1  0  0  0
 41 48  1  0  0  0
 42 43  1  0  0  0
 42 66  1  0  0  0
 42114  1  0  0  0
 42115  1  0  0  0
 43 44  1  0  0  0
 44116  1  0  0  0
 45 46  2  0  0  0
 45117  1  0  0  0
 46118  1  0  0  0
 47119  1  0  0  0
 47120  1  0  0  0
 48 56  1  0  0  0
 48 65  1  0  0  0
 48121  1  0  0  0
 49 50  1  0  0  0
 49 53  1  0  0  0
 49 64  1  0  0  0
 49122  1  0  0  0
 50 51  1  0  0  0
 50123  1  0  0  0
 50124  1  0  0  0
 51 52  1  0  0  0
 51125  1  0  0  0
 51126  1  0  0  0
 52127  1  0  0  0
 52128  1  0  0  0
 53 54  1  0  0  0
 54 55  2  0  0  0
 54129  1  0  0  0
 55 57  1  0  0  0
 55130  1  0  0  0
 56 69  2  0  0  0
 57 58  2  0  0  0
 57131  1  0  0  0
 58132  1  0  0  0
 59 60  1  0  0  0
 59 61  1  0  0  0
 59 62  1  0  0  0
 60133  1  0  0  0
 60134  1  0  0  0
 60135  1  0  0  0
 61136  1  0  0  0
 61137  1  0  0  0
 61138  1  0  0  0
 62139  1  0  0  0
 62140  1  0  0  0
 62141  1  0  0  0
 63 65  1  0  0  0
 63142  1  0  0  0
 63143  1  0  0  0
 63144  1  0  0  0
 64145  1  0  0  0
 65146  1  0  0  0
 68 85  1  0  0  0
 71 73  2  0  0  0
 71 74  1  0  0  0
 71147  1  0  0  0
 72 73  1  0  0  0
 72 75  2  0  0  0
 72148  1  0  0  0
 73 86  1  0  0  0
 74 76  2  0  0  0
 74 80  1  0  0  0
 75 76  1  0  0  0
 75 81  1  0  0  0
 76 82  1  0  0  0
 77 80  1  0  0  0
 77149  1  0  0  0
 77150  1  0  0  0
 77151  1  0  0  0
 78 82  1  0  0  0
 78152  1  0  0  0
 78153  1  0  0  0
 78154  1  0  0  0
 79155  1  0  0  0
 79156  1  0  0  0
 79157  1  0  0  0
 79 86  1  0  0  0
 80158  1  0  0  0
 80159  1  0  0  0
 81 83  1  0  0  0
 81160  1  0  0  0
 81161  1  0  0  0
 82162  1  0  0  0
 82163  1  0  0  0
 83 85  1  0  0  0
 83164  1  0  0  0
 83165  1  0  0  0
 84 86  1  0  0  0
 84 87  1  0  0  0
 84166  1  0  0  0
 84167  1  0  0  0
 85168  1  0  0  0
 85169  1  0  0  0
 86170  1  0  0  0
 87171  1  0  0  0
M  ISO  4   1 100  68 101  85 101  87 100
M  END
> <chiral flag>
0

> <version>
0

> <s_m_source_file>
/data/baiqing/PycharmProjects/Reinvent-master-3.2/result/LINK_invent/BTK/process_docking_weight1_custom_sum_contain_oxygen_bond_distance_aromatic_linkinvent_7_9_3/rearranged_h_0093.sdf

> <i_m_source_file_index>
36

> <r_mmod_Potential_Energy-OPLS-2005>
-79.6230163574219

> <r_mmod_Stretch_Energy-OPLS-2005>
52.75732421875

> <r_mmod_Bend_Energy-OPLS-2005>
109.391105651855

> <r_mmod_Torsional_Energy-OPLS-2005>
211.269027709961

> <r_mmod_Improper_Torsional_Energy-OPLS-2005>
3.09633088111877

> <r_mmod_Van_der_Waal_Energy-OPLS-2005>
160.234039306641

> <r_mmod_Electrostatic_Energy-OPLS-2005>
-436.822326660156

> <r_mmod_Solvation_Energy-OPLS-2005>
-200.316528320312

> <b_mmod_Minimization_Converged-OPLS-2005>
0

> <r_mmod_RMS_Derivative-OPLS-2005>
1.00268268585205

$$$$
36
                    3D
 Structure written by MMmdl.
169177  0  0  1  0            999 V2000
  -30.5545  -14.7608   20.4398 C   0  0  0  0  0  0
  -30.4374  -12.4580   19.4891 C   0  0  0  0  0  0
  -29.5186  -12.5121   18.2460 C   0  0  0  0  0  0
  -28.0393  -12.3331   18.6486 C   0  0  0  0  0  0
  -27.6378  -13.2282   19.8528 C   0  0  2  0  0  0
  -28.6774  -13.1483   20.9927 C   0  0  0  0  0  0
  -25.2467  -13.8159   20.5682 C   0  0  0  0  0  0
  -24.1767  -13.0415   20.9194 C   0  0  0  0  0  0
  -24.6358  -11.6906   20.8737 C   0  0  0  0  0  0
  -23.9041  -10.4291   21.0395 C   0  0  0  0  0  0
  -24.3590   -9.4206   21.9173 C   0  0  0  0  0  0
  -23.6284   -8.2232   22.0746 C   0  0  0  0  0  0
  -22.4258   -8.0255   21.3548 C   0  0  0  0  0  0
  -21.9886   -9.0216   20.4633 C   0  0  0  0  0  0
  -22.7207  -10.2108   20.3044 C   0  0  0  0  0  0
  -21.6841   -6.0720   22.5276 C   0  0  0  0  0  0
  -21.4021   -6.5627   23.8210 C   0  0  0  0  0  0
  -21.3665   -5.6789   24.9170 C   0  0  0  0  0  0
  -21.6039   -4.3053   24.7217 C   0  0  0  0  0  0
  -21.8825   -3.8135   23.4338 C   0  0  0  0  0  0
  -21.9203   -4.6953   22.3398 C   0  0  0  0  0  0
  -22.7795  -13.5204   21.1861 C   0  0  0  0  0  0
  -22.1660   -4.2134   21.0975 F   0  0  0  0  0  0
  -21.5640   -3.4538   25.7732 F   0  0  0  0  0  0
  -29.9787  -13.5122   20.4235 N   0  0  0  0  0  0
  -26.2880  -12.9374   20.3263 N   0  0  0  0  0  0
  -25.9280  -11.6511   20.5725 N   0  0  0  0  0  0
  -22.0452  -12.8198   22.0431 N   0  0  0  0  0  0
  -25.4138  -15.1864   20.4058 N   0  0  0  0  0  0
  -31.7294  -14.8991   20.0895 O   0  0  0  0  0  0
  -21.6631   -6.8845   21.4224 O   0  0  0  0  0  0
  -22.3482  -14.5505   20.6687 O   0  0  0  0  0  0
  -24.6328  -31.8526   23.1966 C   0  0  0  0  0  0
  -25.9155  -32.4722   23.8308 C   0  0  1  0  0  0
  -27.2060  -27.2503   20.1503 C   0  0  0  0  0  0
  -25.5969  -33.8534   24.2231 N   0  0  0  0  0  0
  -23.4274  -30.4790   21.5373 C   0  0  2  0  0  0
  -24.8677  -28.9093   20.1170 C   0  0  0  0  0  0
  -22.7483  -29.4653   22.4891 C   0  0  0  0  0  0
  -18.0316  -28.1403   22.8544 C   0  0  0  0  0  0
  -24.1483  -36.7270   23.2649 C   0  0  0  0  0  0
  -25.9717  -30.7613   21.3758 C   0  0  0  0  0  0
  -26.0379  -29.3788   20.7302 C   0  0  0  0  0  0
  -27.2099  -28.5629   20.7323 C   0  0  0  0  0  0
  -26.0209  -26.8428   19.5089 C   0  0  0  0  0  0
  -24.8618  -27.6484   19.4985 C   0  0  0  0  0  0
  -23.6436  -29.8049   20.1554 C   0  0  0  0  0  0
  -25.4116  -36.3072   24.0335 C   0  0  1  0  0  0
  -20.5929  -28.3718   23.1288 C   0  0  2  0  0  0
  -20.6810  -26.9438   22.5410 C   0  0  0  0  0  0
  -19.5763  -26.6398   21.5245 C   0  0  0  0  0  0
  -18.1948  -26.7963   22.1651 C   0  0  0  0  0  0
  -19.1569  -28.8878   23.2911 C   0  0  0  0  0  0
  -18.9484  -30.1515   23.8886 C   0  0  0  0  0  0
  -17.6469  -30.6598   24.0604 C   0  0  0  0  0  0
  -25.9077  -34.9452   23.5084 C   0  0  0  0  0  0
  -16.5366  -29.9118   23.6340 C   0  0  0  0  0  0
  -16.7295  -28.6538   23.0346 C   0  0  0  0  0  0
  -26.4525  -31.6562   25.0715 C   0  0  0  0  0  0
  -25.3728  -31.3706   26.1414 C   0  0  0  0  0  0
  -27.0387  -30.2998   24.6190 C   0  0  0  0  0  0
  -27.6086  -32.4321   25.7463 C   0  0  0  0  0  0
  -27.5561  -37.1786   24.8469 C   0  0  0  0  0  0
  -21.4189  -29.3050   22.3626 N   0  0  0  0  0  0
  -26.4267  -37.3798   23.9436 N   0  0  0  0  0  0
  -24.6961  -31.0534   22.0914 N   0  0  0  0  0  0
  -23.4197  -28.8201   23.2982 O   0  0  0  0  0  0
  -28.3347  -26.4159   20.0887 O   0  0  0  0  0  0
  -26.5620  -34.8948   22.4635 O   0  0  0  0  0  0
  -23.5491  -32.1340   23.7273 O   0  0  0  0  0  0
  -28.8406  -21.7188   18.6983 C   0  0  0  0  0  0
  -28.4396  -21.1317   20.7592 C   0  0  0  0  0  0
  -28.3497  -22.2508   19.9232 C   0  0  0  0  0  0
  -29.1018  -20.3605   18.7733 C   0  0  0  0  0  0
  -26.2982  -23.5170   20.7374 C   0  0  0  0  0  0
  -29.9269  -20.2976   16.3655 C   0  0  0  0  0  0
  -28.3209  -18.5705   17.1296 C   0  0  0  0  0  0
  -29.3631  -18.6447   22.2162 C   0  0  0  0  0  0
  -27.4807  -17.9834   20.7771 C   0  0  0  0  0  0
  -29.8865  -17.3108   20.1418 C   0  0  0  0  0  0
  -28.4097  -25.0140   20.6418 C   0  0  0  0  0  0
  -27.6654  -23.7030   20.0548 C   0  0  1  0  0  0
  -29.4744  -19.4828   17.5947 C   0  0  0  0  0  0
  -28.9333  -18.5026   20.7410 C   0  0  0  0  0  0
  -28.8977  -19.9335   20.1058 N   0  0  0  0  0  0
  -29.7232  -15.8593   20.6224 N   0  0  0  0  0  0
  -31.4793  -12.5967   19.1959 H   0  0  0  0  0  0
  -30.3904  -11.4808   19.9684 H   0  0  0  0  0  0
  -29.8119  -11.7449   17.5272 H   0  0  0  0  0  0
  -29.6425  -13.4697   17.7405 H   0  0  0  0  0  0
  -27.8945  -11.2835   18.9075 H   0  0  0  0  0  0
  -27.3870  -12.5314   17.7958 H   0  0  0  0  0  0
  -27.6291  -14.2503   19.4750 H   0  0  0  0  0  0
  -28.7153  -12.1442   21.4151 H   0  0  0  0  0  0
  -28.4091  -13.8159   21.8123 H   0  0  0  0  0  0
  -25.2730   -9.5703   22.4737 H   0  0  0  0  0  0
  -24.0011   -7.4623   22.7465 H   0  0  0  0  0  0
  -21.0819   -8.8696   19.8938 H   0  0  0  0  0  0
  -22.3634  -10.9621   19.6153 H   0  0  0  0  0  0
  -21.1991   -7.6132   23.9703 H   0  0  0  0  0  0
  -21.1498   -6.0521   25.9086 H   0  0  0  0  0  0
  -22.0602   -2.7590   23.2839 H   0  0  0  0  0  0
  -22.4068  -11.9861   22.4836 H   0  0  0  0  0  0
  -21.1054  -13.1208   22.2597 H   0  0  0  0  0  0
  -24.6434  -15.8383   20.5055 H   0  0  0  0  0  0
  -26.2440  -15.6201   20.0266 H   0  0  0  0  0  0
  -26.7222  -32.5346   23.1050 H   0  0  0  0  0  0
  -25.0191  -33.9649   25.0431 H   0  0  0  0  0  0
  -22.7276  -31.3050   21.3892 H   0  0  0  0  0  0
  -23.3762  -35.9585   23.3303 H   0  0  0  0  0  0
  -24.3585  -36.8881   22.2063 H   0  0  0  0  0  0
  -23.7219  -37.6464   23.6667 H   0  0  0  0  0  0
  -26.1099  -31.5060   20.5918 H   0  0  0  0  0  0
  -26.8540  -30.8130   22.0016 H   0  0  0  0  0  0
  -28.1123  -28.9275   21.2066 H   0  0  0  0  0  0
  -25.9840  -25.8916   19.0004 H   0  0  0  0  0  0
  -23.9674  -27.2823   19.0118 H   0  0  0  0  0  0
  -23.7781  -30.5763   19.3974 H   0  0  0  0  0  0
  -22.7571  -29.2433   19.8533 H   0  0  0  0  0  0
  -25.1312  -36.1894   25.0827 H   0  0  0  0  0  0
  -21.0044  -28.3304   24.1395 H   0  0  0  0  0  0
  -20.5792  -26.2318   23.3610 H   0  0  0  0  0  0
  -21.6675  -26.7496   22.1153 H   0  0  0  0  0  0
  -19.6899  -25.6310   21.1260 H   0  0  0  0  0  0
  -19.6703  -27.3241   20.6803 H   0  0  0  0  0  0
  -17.4232  -26.6788   21.4020 H   0  0  0  0  0  0
  -18.0302  -26.0107   22.9021 H   0  0  0  0  0  0
  -19.7950  -30.7401   24.2167 H   0  0  0  0  0  0
  -17.5004  -31.6263   24.5240 H   0  0  0  0  0  0
  -15.5365  -30.2989   23.7681 H   0  0  0  0  0  0
  -15.8706  -28.0862   22.6993 H   0  0  0  0  0  0
  -24.5921  -30.7034   25.7730 H   0  0  0  0  0  0
  -24.8893  -32.2873   26.4799 H   0  0  0  0  0  0
  -25.8045  -30.8890   27.0193 H   0  0  0  0  0  0
  -26.2935  -29.6710   24.1278 H   0  0  0  0  0  0
  -27.4183  -29.7315   25.4686 H   0  0  0  0  0  0
  -27.8801  -30.4334   23.9384 H   0  0  0  0  0  0
  -27.2694  -33.3651   26.1974 H   0  0  0  0  0  0
  -28.3913  -32.6782   25.0282 H   0  0  0  0  0  0
  -28.0725  -31.8446   26.5396 H   0  0  0  0  0  0
  -28.2591  -38.0069   24.7552 H   0  0  0  0  0  0
  -28.1044  -36.2619   24.6250 H   0  0  0  0  0  0
  -27.2288  -37.1377   25.8869 H   0  0  0  0  0  0
  -20.9345  -29.8703   21.6786 H   0  0  0  0  0  0
  -26.0128  -38.2866   24.1437 H   0  0  0  0  0  0
  -28.8891  -22.2890   17.7820 H   0  0  0  0  0  0
  -28.1251  -21.0680   21.7912 H   0  0  0  0  0  0
  -25.6903  -22.7855   20.2029 H   0  0  0  0  0  0
  -25.7274  -24.4434   20.7850 H   0  0  0  0  0  0
  -26.4181  -23.1618   21.7622 H   0  0  0  0  0  0
  -30.7823  -20.9309   16.5991 H   0  0  0  0  0  0
  -29.1319  -20.9428   15.9865 H   0  0  0  0  0  0
  -30.2222  -19.6460   15.5419 H   0  0  0  0  0  0
  -28.0143  -17.8494   17.8788 H   0  0  0  0  0  0
  -28.6073  -17.9880   16.2516 H   0  0  0  0  0  0
  -27.4361  -19.1524   16.8652 H   0  0  0  0  0  0
  -29.4620  -17.6725   22.7021 H   0  0  0  0  0  0
  -28.6396  -19.2018   22.8093 H   0  0  0  0  0  0
  -30.3228  -19.1545   22.2959 H   0  0  0  0  0  0
  -27.3876  -17.0885   21.3928 H   0  0  0  0  0  0
  -27.0956  -17.7347   19.7922 H   0  0  0  0  0  0
  -26.8032  -18.7269   21.1989 H   0  0  0  0  0  0
  -30.9321  -17.5945   20.2646 H   0  0  0  0  0  0
  -29.7367  -17.2261   19.0716 H   0  0  0  0  0  0
  -29.4746  -24.7907   20.5819 H   0  0  0  0  0  0
  -28.2171  -25.0801   21.7137 H   0  0  0  0  0  0
  -27.4595  -23.9723   19.0204 H   0  0  0  0  0  0
  -30.3352  -18.8740   17.8659 H   0  0  0  0  0  0
  -28.7979  -15.6243   20.9448 H   0  0  0  0  0  0
  1 25  1  0  0  0
  1 30  2  0  0  0
  1 86  1  0  0  0
  2  3  1  0  0  0
  2 25  1  0  0  0
  2 87  1  0  0  0
  2 88  1  0  0  0
  3  4  1  0  0  0
  3 89  1  0  0  0
  3 90  1  0  0  0
  4  5  1  0  0  0
  4 91  1  0  0  0
  4 92  1  0  0  0
  5  6  1  0  0  0
  5 26  1  0  0  0
  5 93  1  0  0  0
  6 25  1  0  0  0
  6 94  1  0  0  0
  6 95  1  0  0  0
  7  8  2  0  0  0
  7 26  1  0  0  0
  7 29  1  0  0  0
  8  9  1  0  0  0
  8 22  1  0  0  0
  9 10  1  0  0  0
  9 27  2  0  0  0
 10 11  2  0  0  0
 10 15  1  0  0  0
 11 12  1  0  0  0
 11 96  1  0  0  0
 12 13  2  0  0  0
 12 97  1  0  0  0
 13 14  1  0  0  0
 13 31  1  0  0  0
 14 15  2  0  0  0
 14 98  1  0  0  0
 15 99  1  0  0  0
 16 17  2  0  0  0
 16 21  1  0  0  0
 16 31  1  0  0  0
 17 18  1  0  0  0
 17100  1  0  0  0
 18 19  2  0  0  0
 18101  1  0  0  0
 19 20  1  0  0  0
 19 24  1  0  0  0
 20 21  2  0  0  0
 20102  1  0  0  0
 21 23  1  0  0  0
 22 28  1  0  0  0
 22 32  2  0  0  0
 26 27  1  0  0  0
 28103  1  0  0  0
 28104  1  0  0  0
 29105  1  0  0  0
 29106  1  0  0  0
 33 34  1  0  0  0
 33 66  1  0  0  0
 33 70  2  0  0  0
 34 36  1  0  0  0
 34 59  1  0  0  0
 34107  1  0  0  0
 35 44  2  0  0  0
 35 45  1  0  0  0
 35 68  1  0  0  0
 36 56  1  0  0  0
 36108  1  0  0  0
 37 39  1  0  0  0
 37 47  1  0  0  0
 37 66  1  0  0  0
 37109  1  0  0  0
 38 43  2  0  0  0
 38 46  1  0  0  0
 38 47  1  0  0  0
 39 64  1  0  0  0
 39 67  2  0  0  0
 40 52  1  0  0  0
 40 53  2  0  0  0
 40 58  1  0  0  0
 41110  1  0  0  0
 41111  1  0  0  0
 41112  1  0  0  0
 41 48  1  0  0  0
 42 43  1  0  0  0
 42 66  1  0  0  0
 42113  1  0  0  0
 42114  1  0  0  0
 43 44  1  0  0  0
 44115  1  0  0  0
 45 46  2  0  0  0
 45116  1  0  0  0
 46117  1  0  0  0
 47118  1  0  0  0
 47119  1  0  0  0
 48 56  1  0  0  0
 48 65  1  0  0  0
 48120  1  0  0  0
 49 50  1  0  0  0
 49 53  1  0  0  0
 49 64  1  0  0  0
 49121  1  0  0  0
 50 51  1  0  0  0
 50122  1  0  0  0
 50123  1  0  0  0
 51 52  1  0  0  0
 51124  1  0  0  0
 51125  1  0  0  0
 52126  1  0  0  0
 52127  1  0  0  0
 53 54  1  0  0  0
 54 55  2  0  0  0
 54128  1  0  0  0
 55 57  1  0  0  0
 55129  1  0  0  0
 56 69  2  0  0  0
 57 58  2  0  0  0
 57130  1  0  0  0
 58131  1  0  0  0
 59 60  1  0  0  0
 59 61  1  0  0  0
 59 62  1  0  0  0
 60132  1  0  0  0
 60133  1  0  0  0
 60134  1  0  0  0
 61135  1  0  0  0
 61136  1  0  0  0
 61137  1  0  0  0
 62138  1  0  0  0
 62139  1  0  0  0
 62140  1  0  0  0
 63 65  1  0  0  0
 63141  1  0  0  0
 63142  1  0  0  0
 63143  1  0  0  0
 64144  1  0  0  0
 65145  1  0  0  0
 68 81  1  0  0  0
 71 73  1  0  0  0
 71 74  2  0  0  0
 71146  1  0  0  0
 72 73  2  0  0  0
 72 85  1  0  0  0
 72147  1  0  0  0
 73 82  1  0  0  0
 74 83  1  0  0  0
 74 85  1  0  0  0
 75148  1  0  0  0
 75149  1  0  0  0
 75150  1  0  0  0
 75 82  1  0  0  0
 76151  1  0  0  0
 76152  1  0  0  0
 76153  1  0  0  0
 76 83  1  0  0  0
 77 83  1  0  0  0
 77154  1  0  0  0
 77155  1  0  0  0
 77156  1  0  0  0
 78157  1  0  0  0
 78158  1  0  0  0
 78159  1  0  0  0
 78 84  1  0  0  0
 79 84  1  0  0  0
 79160  1  0  0  0
 79161  1  0  0  0
 79162  1  0  0  0
 80 84  1  0  0  0
 80 86  1  0  0  0
 80163  1  0  0  0
 80164  1  0  0  0
 81 82  1  0  0  0
 81165  1  0  0  0
 81166  1  0  0  0
 82167  1  0  0  0
 83168  1  0  0  0
 84 85  1  0  0  0
 86169  1  0  0  0
M  ISO  4   1 100  68 101  81 101  86 100
M  END
> <chiral flag>
0

> <version>
0

> <s_m_source_file>
/data/baiqing/PycharmProjects/Reinvent-master-3.2/result/LINK_invent/BTK/process_docking_weight1_custom_sum_contain_oxygen_bond_distance_aromatic_linkinvent_7_9_3/rearranged_h_0093.sdf

> <i_m_source_file_index>
37

> <r_mmod_Potential_Energy-OPLS-2005>
193.198791503906

> <r_mmod_Stretch_Energy-OPLS-2005>
140.665924072266

> <r_mmod_Bend_Energy-OPLS-2005>
222.882125854492

> <r_mmod_Torsional_Energy-OPLS-2005>
288.466461181641

> <r_mmod_Improper_Torsional_Energy-OPLS-2005>
9.48959445953369

> <r_mmod_Van_der_Waal_Energy-OPLS-2005>
112.165534973145

> <r_mmod_Electrostatic_Energy-OPLS-2005>
-469.138916015625

> <r_mmod_Solvation_Energy-OPLS-2005>
-198.468170166016

> <b_mmod_Minimization_Converged-OPLS-2005>
0

> <r_mmod_RMS_Derivative-OPLS-2005>
4.61239194869995

$$$$
37
                    3D
 Structure written by MMmdl.
173180  0  0  1  0            999 V2000
  -30.7589  -14.4320   20.6464 C   0  0  0  0  0  0
  -30.4188  -12.3045   19.4392 C   0  0  0  0  0  0
  -29.5028  -12.5221   18.2179 C   0  0  0  0  0  0
  -28.0209  -12.3849   18.6225 C   0  0  0  0  0  0
  -27.6675  -13.2109   19.8897 C   0  0  2  0  0  0
  -28.7059  -12.9543   21.0041 C   0  0  0  0  0  0
  -25.2598  -13.8174   20.5710 C   0  0  0  0  0  0
  -24.1864  -13.0453   20.9196 C   0  0  0  0  0  0
  -24.6428  -11.6910   20.8755 C   0  0  0  0  0  0
  -23.9110  -10.4294   21.0425 C   0  0  0  0  0  0
  -24.3641   -9.4184   21.9199 C   0  0  0  0  0  0
  -23.6295   -8.2224   22.0755 C   0  0  0  0  0  0
  -22.4270   -8.0288   21.3551 C   0  0  0  0  0  0
  -21.9933   -9.0278   20.4654 C   0  0  0  0  0  0
  -22.7287  -10.2144   20.3062 C   0  0  0  0  0  0
  -21.6837   -6.0737   22.5281 C   0  0  0  0  0  0
  -21.4012   -6.5640   23.8219 C   0  0  0  0  0  0
  -21.3656   -5.6790   24.9180 C   0  0  0  0  0  0
  -21.6036   -4.3052   24.7234 C   0  0  0  0  0  0
  -21.8814   -3.8151   23.4351 C   0  0  0  0  0  0
  -21.9189   -4.6967   22.3405 C   0  0  0  0  0  0
  -22.7880  -13.5224   21.1851 C   0  0  0  0  0  0
  -22.1650   -4.2138   21.0985 F   0  0  0  0  0  0
  -21.5629   -3.4546   25.7755 F   0  0  0  0  0  0
  -30.0332  -13.2885   20.4692 N   0  0  0  0  0  0
  -26.3060  -12.9349   20.3425 N   0  0  0  0  0  0
  -25.9350  -11.6501   20.5784 N   0  0  0  0  0  0
  -22.0523  -12.8210   22.0398 N   0  0  0  0  0  0
  -25.4351  -15.1902   20.4110 N   0  0  0  0  0  0
  -31.8880  -14.5343   20.1502 O   0  0  0  0  0  0
  -21.6627   -6.8891   21.4244 O   0  0  0  0  0  0
  -22.3559  -14.5541   20.6708 O   0  0  0  0  0  0
  -24.6103  -31.8708   23.2095 C   0  0  0  0  0  0
  -25.9006  -32.4841   23.8393 C   0  0  1  0  0  0
  -27.2446  -27.4725   20.0884 C   0  0  0  0  0  0
  -25.5906  -33.8634   24.2338 N   0  0  0  0  0  0
  -23.3979  -30.4879   21.5509 C   0  0  2  0  0  0
  -24.8482  -28.9570   20.1131 C   0  0  0  0  0  0
  -22.7390  -29.4627   22.5015 C   0  0  0  0  0  0
  -18.0229  -28.1318   22.8445 C   0  0  0  0  0  0
  -24.1504  -36.7308   23.2643 C   0  0  0  0  0  0
  -25.9209  -30.8469   21.3563 C   0  0  0  0  0  0
  -26.0042  -29.4818   20.7061 C   0  0  0  0  0  0
  -27.2087  -28.7465   20.6917 C   0  0  0  0  0  0
  -26.0795  -26.9511   19.4919 C   0  0  0  0  0  0
  -24.8787  -27.6882   19.5034 C   0  0  0  0  0  0
  -23.6054  -29.8189   20.1655 C   0  0  0  0  0  0
  -25.4132  -36.3124   24.0343 C   0  0  1  0  0  0
  -20.5822  -28.3611   23.1310 C   0  0  2  0  0  0
  -20.6762  -26.9375   22.5393 C   0  0  0  0  0  0
  -19.5760  -26.6354   21.5165 C   0  0  0  0  0  0
  -18.1904  -26.7857   22.1559 C   0  0  0  0  0  0
  -19.1479  -28.8787   23.2856 C   0  0  0  0  0  0
  -18.9440  -30.1392   23.8876 C   0  0  0  0  0  0
  -17.6464  -30.6564   24.0531 C   0  0  0  0  0  0
  -25.9051  -34.9485   23.5135 C   0  0  0  0  0  0
  -16.5348  -29.9066   23.6295 C   0  0  0  0  0  0
  -16.7232  -28.6458   23.0338 C   0  0  0  0  0  0
  -26.4457  -31.6607   25.0696 C   0  0  0  0  0  0
  -25.3711  -31.3712   26.1444 C   0  0  0  0  0  0
  -27.0316  -30.3080   24.6003 C   0  0  0  0  0  0
  -27.6041  -32.4324   25.7439 C   0  0  0  0  0  0
  -27.5599  -37.1806   24.8468 C   0  0  0  0  0  0
  -21.4118  -29.2983   22.3755 N   0  0  0  0  0  0
  -26.4320  -37.3806   23.9394 N   0  0  0  0  0  0
  -24.6609  -31.0824   22.0981 N   0  0  0  0  0  0
  -23.4171  -28.8205   23.3081 O   0  0  0  0  0  0
  -28.3961  -26.7269   20.0972 O   0  0  0  0  0  0
  -26.5611  -34.8937   22.4691 O   0  0  0  0  0  0
  -23.5296  -32.1467   23.7485 O   0  0  0  0  0  0
  -31.9119  -18.2758   18.9260 C   0  0  0  0  0  0
  -29.4340  -20.6578   23.3509 C   0  0  0  0  0  0
  -30.4789  -15.2382   23.4940 C   0  0  0  0  0  0
  -31.4670  -17.5803   20.2179 C   0  0  0  0  0  0
  -28.5841  -23.3057   21.7735 C   0  0  0  0  0  0
  -28.0895  -18.0682   22.1717 C   0  0  0  0  0  0
  -28.7420  -24.3894   20.6818 C   0  0  0  0  0  0
  -28.7093  -21.8770   21.2067 C   0  0  0  0  0  0
  -28.3435  -19.3907   21.4028 C   0  0  0  0  0  0
  -29.3371  -17.3758   22.7807 C   0  0  0  0  0  0
  -30.2151  -16.6792   20.0350 C   0  0  0  0  0  0
  -28.4510  -25.8083   21.1914 C   0  0  0  0  0  0
  -28.4157  -20.7186   22.1985 C   0  0  1  0  0  0
  -29.5872  -15.8756   22.3981 C   0  0  1  0  0  0
  -30.0987  -15.5734   21.0145 N   0  0  0  0  0  0
  -31.4660  -12.3792   19.1422 H   0  0  0  0  0  0
  -30.3006  -11.2909   19.8259 H   0  0  0  0  0  0
  -29.7455  -11.8069   17.4312 H   0  0  0  0  0  0
  -29.6823  -13.5140   17.7988 H   0  0  0  0  0  0
  -27.8306  -11.3291   18.8127 H   0  0  0  0  0  0
  -27.3744  -12.6638   17.7902 H   0  0  0  0  0  0
  -27.7213  -14.2662   19.6182 H   0  0  0  0  0  0
  -28.6883  -11.8993   21.2811 H   0  0  0  0  0  0
  -28.4620  -13.4726   21.9236 H   0  0  0  0  0  0
  -25.2783   -9.5615   22.4795 H   0  0  0  0  0  0
  -23.9985   -7.4588   22.7452 H   0  0  0  0  0  0
  -21.0865   -8.8832   19.8956 H   0  0  0  0  0  0
  -22.3784  -10.9695   19.6169 H   0  0  0  0  0  0
  -21.2011   -7.6151   23.9723 H   0  0  0  0  0  0
  -21.1476   -6.0526   25.9083 H   0  0  0  0  0  0
  -22.0602   -2.7614   23.2868 H   0  0  0  0  0  0
  -22.4123  -11.9847   22.4767 H   0  0  0  0  0  0
  -21.1136  -13.1225   22.2608 H   0  0  0  0  0  0
  -24.6816  -15.8562   20.5415 H   0  0  0  0  0  0
  -26.2973  -15.6233   20.1086 H   0  0  0  0  0  0
  -26.7104  -32.5579   23.1177 H   0  0  0  0  0  0
  -25.0088  -33.9789   25.0512 H   0  0  0  0  0  0
  -22.6823  -31.3002   21.4140 H   0  0  0  0  0  0
  -23.3775  -35.9630   23.3316 H   0  0  0  0  0  0
  -24.3608  -36.8907   22.2056 H   0  0  0  0  0  0
  -23.7240  -37.6507   23.6652 H   0  0  0  0  0  0
  -26.0198  -31.6143   20.5880 H   0  0  0  0  0  0
  -26.8114  -30.9063   21.9699 H   0  0  0  0  0  0
  -28.1046  -29.1479   21.1453 H   0  0  0  0  0  0
  -26.1045  -25.9787   19.0217 H   0  0  0  0  0  0
  -23.9931  -27.2771   19.0397 H   0  0  0  0  0  0
  -23.7096  -30.5943   19.4059 H   0  0  0  0  0  0
  -22.7307  -29.2330   19.8762 H   0  0  0  0  0  0
  -25.1300  -36.2010   25.0839 H   0  0  0  0  0  0
  -20.9836  -28.3188   24.1457 H   0  0  0  0  0  0
  -20.5655  -26.2240   23.3566 H   0  0  0  0  0  0
  -21.6644  -26.7458   22.1207 H   0  0  0  0  0  0
  -19.6980  -25.6257   21.1199 H   0  0  0  0  0  0
  -19.6723  -27.3148   20.6677 H   0  0  0  0  0  0
  -17.4194  -26.6529   21.3947 H   0  0  0  0  0  0
  -18.0354  -25.9984   22.8953 H   0  0  0  0  0  0
  -19.7961  -30.7120   24.2288 H   0  0  0  0  0  0
  -17.5074  -31.6251   24.5109 H   0  0  0  0  0  0
  -15.5354  -30.2994   23.7667 H   0  0  0  0  0  0
  -15.8591  -28.0809   22.7094 H   0  0  0  0  0  0
  -24.5862  -30.7083   25.7783 H   0  0  0  0  0  0
  -24.8907  -32.2872   26.4888 H   0  0  0  0  0  0
  -25.8036  -30.8876   27.0209 H   0  0  0  0  0  0
  -26.2850  -29.6797   24.1128 H   0  0  0  0  0  0
  -27.4252  -29.7342   25.4402 H   0  0  0  0  0  0
  -27.8598  -30.4470   23.9047 H   0  0  0  0  0  0
  -27.2681  -33.3631   26.2019 H   0  0  0  0  0  0
  -28.3829  -32.6872   25.0241 H   0  0  0  0  0  0
  -28.0735  -31.8439   26.5331 H   0  0  0  0  0  0
  -28.2622  -38.0112   24.7545 H   0  0  0  0  0  0
  -28.1099  -36.2633   24.6275 H   0  0  0  0  0  0
  -27.2301  -37.1419   25.8872 H   0  0  0  0  0  0
  -20.9291  -29.8743   21.7005 H   0  0  0  0  0  0
  -26.0221  -38.2889   24.1391 H   0  0  0  0  0  0
  -32.7364  -18.9603   19.1307 H   0  0  0  0  0  0
  -31.1054  -18.8550   18.4757 H   0  0  0  0  0  0
  -32.2611  -17.5540   18.1867 H   0  0  0  0  0  0
  -29.4577  -21.5786   23.9314 H   0  0  0  0  0  0
  -30.4450  -20.4639   22.9903 H   0  0  0  0  0  0
  -29.1731  -19.8621   24.0476 H   0  0  0  0  0  0
  -30.1624  -15.5321   24.4955 H   0  0  0  0  0  0
  -31.5201  -15.5504   23.3925 H   0  0  0  0  0  0
  -30.4443  -14.1500   23.4794 H   0  0  0  0  0  0
  -31.2757  -18.3605   20.9476 H   0  0  0  0  0  0
  -32.3090  -17.0136   20.6181 H   0  0  0  0  0  0
  -27.6060  -23.4181   22.2444 H   0  0  0  0  0  0
  -29.3225  -23.4696   22.5593 H   0  0  0  0  0  0
  -27.5983  -17.3700   21.4935 H   0  0  0  0  0  0
  -27.3519  -18.2528   22.9514 H   0  0  0  0  0  0
  -28.0573  -24.1740   19.8600 H   0  0  0  0  0  0
  -29.7494  -24.3600   20.2634 H   0  0  0  0  0  0
  -29.6988  -21.7469   20.7652 H   0  0  0  0  0  0
  -28.0102  -21.7975   20.3741 H   0  0  0  0  0  0
  -27.5191  -19.4932   20.6974 H   0  0  0  0  0  0
  -29.2310  -19.3003   20.7815 H   0  0  0  0  0  0
  -29.1634  -17.4058   23.8582 H   0  0  0  0  0  0
  -30.2340  -17.9785   22.6807 H   0  0  0  0  0  0
  -30.2623  -16.2428   19.0335 H   0  0  0  0  0  0
  -29.2989  -17.2544   19.9901 H   0  0  0  0  0  0
  -29.2293  -26.1291   21.8842 H   0  0  0  0  0  0
  -27.5181  -25.8039   21.7611 H   0  0  0  0  0  0
  -27.4325  -20.8988   22.6376 H   0  0  0  0  0  0
  -28.6031  -15.4272   22.4879 H   0  0  0  0  0  0
  1 25  1  0  0  0
  1 30  2  0  0  0
  1 85  1  0  0  0
  2  3  1  0  0  0
  2 25  1  0  0  0
  2 86  1  0  0  0
  2 87  1  0  0  0
  3  4  1  0  0  0
  3 88  1  0  0  0
  3 89  1  0  0  0
  4  5  1  0  0  0
  4 90  1  0  0  0
  4 91  1  0  0  0
  5  6  1  0  0  0
  5 26  1  0  0  0
  5 92  1  0  0  0
  6 25  1  0  0  0
  6 93  1  0  0  0
  6 94  1  0  0  0
  7  8  2  0  0  0
  7 26  1  0  0  0
  7 29  1  0  0  0
  8  9  1  0  0  0
  8 22  1  0  0  0
  9 10  1  0  0  0
  9 27  2  0  0  0
 10 11  2  0  0  0
 10 15  1  0  0  0
 11 12  1  0  0  0
 11 95  1  0  0  0
 12 13  2  0  0  0
 12 96  1  0  0  0
 13 14  1  0  0  0
 13 31  1  0  0  0
 14 15  2  0  0  0
 14 97  1  0  0  0
 15 98  1  0  0  0
 16 17  2  0  0  0
 16 21  1  0  0  0
 16 31  1  0  0  0
 17 18  1  0  0  0
 17 99  1  0  0  0
 18 19  2  0  0  0
 18100  1  0  0  0
 19 20  1  0  0  0
 19 24  1  0  0  0
 20 21  2  0  0  0
 20101  1  0  0  0
 21 23  1  0  0  0
 22 28  1  0  0  0
 22 32  2  0  0  0
 26 27  1  0  0  0
 28102  1  0  0  0
 28103  1  0  0  0
 29104  1  0  0  0
 29105  1  0  0  0
 33 34  1  0  0  0
 33 66  1  0  0  0
 33 70  2  0  0  0
 34 36  1  0  0  0
 34 59  1  0  0  0
 34106  1  0  0  0
 35 44  2  0  0  0
 35 45  1  0  0  0
 35 68  1  0  0  0
 36 56  1  0  0  0
 36107  1  0  0  0
 37 39  1  0  0  0
 37 47  1  0  0  0
 37 66  1  0  0  0
 37108  1  0  0  0
 38 43  2  0  0  0
 38 46  1  0  0  0
 38 47  1  0  0  0
 39 64  1  0  0  0
 39 67  2  0  0  0
 40 52  1  0  0  0
 40 53  2  0  0  0
 40 58  1  0  0  0
 41109  1  0  0  0
 41110  1  0  0  0
 41111  1  0  0  0
 41 48  1  0  0  0
 42 43  1  0  0  0
 42 66  1  0  0  0
 42112  1  0  0  0
 42113  1  0  0  0
 43 44  1  0  0  0
 44114  1  0  0  0
 45 46  2  0  0  0
 45115  1  0  0  0
 46116  1  0  0  0
 47117  1  0  0  0
 47118  1  0  0  0
 48 56  1  0  0  0
 48 65  1  0  0  0
 48119  1  0  0  0
 49 50  1  0  0  0
 49 53  1  0  0  0
 49 64  1  0  0  0
 49120  1  0  0  0
 50 51  1  0  0  0
 50121  1  0  0  0
 50122  1  0  0  0
 51 52  1  0  0  0
 51123  1  0  0  0
 51124  1  0  0  0
 52125  1  0  0  0
 52126  1  0  0  0
 53 54  1  0  0  0
 54 55  2  0  0  0
 54127  1  0  0  0
 55 57  1  0  0  0
 55128  1  0  0  0
 56 69  2  0  0  0
 57 58  2  0  0  0
 57129  1  0  0  0
 58130  1  0  0  0
 59 60  1  0  0  0
 59 61  1  0  0  0
 59 62  1  0  0  0
 60131  1  0  0  0
 60132  1  0  0  0
 60133  1  0  0  0
 61134  1  0  0  0
 61135  1  0  0  0
 61136  1  0  0  0
 62137  1  0  0  0
 62138  1  0  0  0
 62139  1  0  0  0
 63 65  1  0  0  0
 63140  1  0  0  0
 63141  1  0  0  0
 63142  1  0  0  0
 64143  1  0  0  0
 65144  1  0  0  0
 68 82  1  0  0  0
 71 74  1  0  0  0
 71145  1  0  0  0
 71146  1  0  0  0
 71147  1  0  0  0
 72148  1  0  0  0
 72149  1  0  0  0
 72150  1  0  0  0
 72 83  1  0  0  0
 73151  1  0  0  0
 73152  1  0  0  0
 73153  1  0  0  0
 73 84  1  0  0  0
 74 81  1  0  0  0
 74154  1  0  0  0
 74155  1  0  0  0
 75 77  1  0  0  0
 75 78  1  0  0  0
 75156  1  0  0  0
 75157  1  0  0  0
 76 79  1  0  0  0
 76 80  1  0  0  0
 76158  1  0  0  0
 76159  1  0  0  0
 77 82  1  0  0  0
 77160  1  0  0  0
 77161  1  0  0  0
 78 83  1  0  0  0
 78162  1  0  0  0
 78163  1  0  0  0
 79 83  1  0  0  0
 79164  1  0  0  0
 79165  1  0  0  0
 80 84  1  0  0  0
 80166  1  0  0  0
 80167  1  0  0  0
 81 85  1  0  0  0
 81168  1  0  0  0
 81169  1  0  0  0
 82170  1  0  0  0
 82171  1  0  0  0
 83172  1  0  0  0
 84 85  1  0  0  0
 84173  1  0  0  0
M  ISO  4   1 100  68 101  82 101  85 100
M  END
> <chiral flag>
0

> <version>
0

> <s_m_source_file>
/data/baiqing/PycharmProjects/Reinvent-master-3.2/result/LINK_invent/BTK/process_docking_weight1_custom_sum_contain_oxygen_bond_distance_aromatic_linkinvent_7_9_3/rearranged_h_0093.sdf

> <i_m_source_file_index>
38

> <r_mmod_Potential_Energy-OPLS-2005>
274.178833007812

> <r_mmod_Stretch_Energy-OPLS-2005>
44.9269981384277

> <r_mmod_Bend_Energy-OPLS-2005>
126.438117980957

> <r_mmod_Torsional_Energy-OPLS-2005>
355.12255859375

> <r_mmod_Improper_Torsional_Energy-OPLS-2005>
11.2961330413818

> <r_mmod_Van_der_Waal_Energy-OPLS-2005>
139.868927001953

> <r_mmod_Electrostatic_Energy-OPLS-2005>
-251.028289794922

> <r_mmod_Solvation_Energy-OPLS-2005>
-164.898483276367

> <b_mmod_Minimization_Converged-OPLS-2005>
0

> <r_mmod_RMS_Derivative-OPLS-2005>
3.89666080474854

$$$$
38
                    3D
 Structure written by MMmdl.
179187  0  0  1  0            999 V2000
  -30.7059  -14.4540   20.6381 C   0  0  0  0  0  0
  -30.4183  -12.3464   19.3925 C   0  0  0  0  0  0
  -29.4763  -12.5467   18.1930 C   0  0  0  0  0  0
  -28.0093  -12.3710   18.6323 C   0  0  0  0  0  0
  -27.6583  -13.1915   19.8947 C   0  0  2  0  0  0
  -28.7057  -12.9481   20.9995 C   0  0  0  0  0  0
  -25.2501  -13.8027   20.5779 C   0  0  0  0  0  0
  -24.1754  -13.0316   20.9141 C   0  0  0  0  0  0
  -24.6289  -11.6828   20.8713 C   0  0  0  0  0  0
  -23.8972  -10.4240   21.0382 C   0  0  0  0  0  0
  -24.3574   -9.4207   21.9153 C   0  0  0  0  0  0
  -23.6296   -8.2227   22.0747 C   0  0  0  0  0  0
  -22.4262   -8.0254   21.3540 C   0  0  0  0  0  0
  -21.9867   -9.0203   20.4607 C   0  0  0  0  0  0
  -22.7151  -10.2084   20.3006 C   0  0  0  0  0  0
  -21.6841   -6.0718   22.5271 C   0  0  0  0  0  0
  -21.4017   -6.5641   23.8209 C   0  0  0  0  0  0
  -21.3675   -5.6787   24.9172 C   0  0  0  0  0  0
  -21.6020   -4.3048   24.7212 C   0  0  0  0  0  0
  -21.8831   -3.8138   23.4329 C   0  0  0  0  0  0
  -21.9216   -4.6972   22.3396 C   0  0  0  0  0  0
  -22.7743  -13.5167   21.1821 C   0  0  0  0  0  0
  -22.1677   -4.2143   21.0977 F   0  0  0  0  0  0
  -21.5650   -3.4538   25.7742 F   0  0  0  0  0  0
  -30.0181  -13.2964   20.4354 N   0  0  0  0  0  0
  -26.3011  -12.9188   20.3548 N   0  0  0  0  0  0
  -25.9247  -11.6379   20.5803 N   0  0  0  0  0  0
  -22.0453  -12.8136   22.0400 N   0  0  0  0  0  0
  -25.4096  -15.1686   20.4423 N   0  0  0  0  0  0
  -31.8117  -14.6586   20.1167 O   0  0  0  0  0  0
  -21.6627   -6.8851   21.4220 O   0  0  0  0  0  0
  -22.3453  -14.5501   20.6684 O   0  0  0  0  0  0
  -24.6260  -31.8791   23.2073 C   0  0  0  0  0  0
  -25.9154  -32.4899   23.8499 C   0  0  1  0  0  0
  -27.1877  -27.4207   20.1196 C   0  0  0  0  0  0
  -25.5978  -33.8659   24.2384 N   0  0  0  0  0  0
  -23.4155  -30.5039   21.5487 C   0  0  2  0  0  0
  -24.8594  -28.9823   20.0883 C   0  0  0  0  0  0
  -22.7410  -29.4930   22.5020 C   0  0  0  0  0  0
  -18.0233  -28.1365   22.8469 C   0  0  0  0  0  0
  -24.1461  -36.7335   23.2627 C   0  0  0  0  0  0
  -25.9485  -30.8513   21.3581 C   0  0  0  0  0  0
  -26.0210  -29.4836   20.7013 C   0  0  0  0  0  0
  -27.1967  -28.7041   20.7077 C   0  0  0  0  0  0
  -26.0255  -26.9481   19.4804 C   0  0  0  0  0  0
  -24.8558  -27.7216   19.4659 C   0  0  0  0  0  0
  -23.6156  -29.8381   20.1616 C   0  0  0  0  0  0
  -25.4081  -36.3129   24.0328 C   0  0  1  0  0  0
  -20.5880  -28.3575   23.0835 C   0  0  2  0  0  0
  -20.7572  -27.0058   22.3626 C   0  0  0  0  0  0
  -19.5208  -26.2200   21.9234 C   0  0  0  0  0  0
  -18.1310  -26.8362   22.0737 C   0  0  0  0  0  0
  -19.1571  -28.8694   23.2755 C   0  0  0  0  0  0
  -18.9682  -30.1312   23.8875 C   0  0  0  0  0  0
  -17.6744  -30.6596   24.0745 C   0  0  0  0  0  0
  -25.9057  -34.9542   23.5144 C   0  0  0  0  0  0
  -16.5599  -29.9184   23.6744 C   0  0  0  0  0  0
  -16.7254  -28.6544   23.0736 C   0  0  0  0  0  0
  -26.4521  -31.6605   25.0809 C   0  0  0  0  0  0
  -25.3716  -31.3668   26.1500 C   0  0  0  0  0  0
  -27.0297  -30.3037   24.6070 C   0  0  0  0  0  0
  -27.6111  -32.4324   25.7520 C   0  0  0  0  0  0
  -27.5589  -37.1812   24.8465 C   0  0  0  0  0  0
  -21.4090  -29.3636   22.4098 N   0  0  0  0  0  0
  -26.4302  -37.3813   23.9375 N   0  0  0  0  0  0
  -24.6829  -31.0969   22.0946 N   0  0  0  0  0  0
  -23.4159  -28.8204   23.2840 O   0  0  0  0  0  0
  -28.2152  -26.5328   20.3144 O   0  0  0  0  0  0
  -26.5630  -34.8977   22.4682 O   0  0  0  0  0  0
  -23.5468  -32.1518   23.7542 O   0  0  0  0  0  0
  -28.3095  -16.6492   22.3430 C   0  0  0  0  0  0
  -27.1677  -17.4726   22.1700 C   0  0  0  0  0  0
  -26.9048  -17.9306   20.8549 C   0  0  0  0  0  0
  -27.8950  -17.7547   19.8561 C   0  0  0  0  0  0
  -29.1188  -16.2912   21.2398 C   0  0  0  0  0  0
  -25.4974  -18.3480   20.4440 C   0  0  0  0  0  0
  -29.1794  -18.5302   17.7441 C   0  0  0  0  0  0
  -27.2043  -19.8726   18.4678 C   0  0  0  0  0  0
  -28.1670  -21.9414   23.5119 C   0  0  0  0  0  0
  -26.2287  -17.6729   23.3793 C   0  0  0  0  0  0
  -25.3106  -18.9328   23.5090 C   0  0  0  0  0  0
  -25.8627  -20.2116   24.1716 C   0  0  0  0  0  0
  -27.6575  -24.1926   21.2597 C   0  0  0  0  0  0
  -25.7232  -21.5415   23.3519 C   0  0  0  0  0  0
  -26.7349  -23.5857   22.3721 C   0  0  0  0  0  0
  -27.9029  -25.7090   21.4797 C   0  0  0  0  0  0
  -27.8123  -18.4356   18.4675 C   0  0  0  0  0  0
  -28.9228  -16.8826   20.0424 N   0  0  0  0  0  0
  -30.1669  -15.3528   21.4920 N   0  0  0  0  0  0
  -26.9400  -22.1352   22.7092 N   0  3  1  0  0  0
  -31.4498  -12.4681   19.0754 H   0  0  0  0  0  0
  -30.3451  -11.3181   19.7635 H   0  0  0  0  0  0
  -29.7249  -11.8381   17.3970 H   0  0  0  0  0  0
  -29.6166  -13.5408   17.7666 H   0  0  0  0  0  0
  -27.8725  -11.3118   18.8583 H   0  0  0  0  0  0
  -27.3280  -12.5962   17.8132 H   0  0  0  0  0  0
  -27.7061  -14.2431   19.6229 H   0  0  0  0  0  0
  -28.7077  -11.8899   21.2876 H   0  0  0  0  0  0
  -28.4637  -13.4895   21.9088 H   0  0  0  0  0  0
  -25.2735   -9.5718   22.4702 H   0  0  0  0  0  0
  -24.0006   -7.4650   22.7499 H   0  0  0  0  0  0
  -21.0789   -8.8691   19.8945 H   0  0  0  0  0  0
  -22.3614  -10.9621   19.6120 H   0  0  0  0  0  0
  -21.1981   -7.6143   23.9690 H   0  0  0  0  0  0
  -21.1489   -6.0533   25.9065 H   0  0  0  0  0  0
  -22.0598   -2.7606   23.2835 H   0  0  0  0  0  0
  -22.4033  -11.9701   22.4652 H   0  0  0  0  0  0
  -21.1096  -13.1198   22.2726 H   0  0  0  0  0  0
  -24.6407  -15.8106   20.6034 H   0  0  0  0  0  0
  -26.3133  -15.6300   20.3923 H   0  0  0  0  0  0
  -26.7226  -32.5496   23.1299 H   0  0  0  0  0  0
  -25.0047  -33.9746   25.0500 H   0  0  0  0  0  0
  -22.7140  -31.3284   21.4168 H   0  0  0  0  0  0
  -23.3764  -35.9653   23.3305 H   0  0  0  0  0  0
  -24.3552  -36.8924   22.2047 H   0  0  0  0  0  0
  -23.7236  -37.6531   23.6643 H   0  0  0  0  0  0
  -26.0651  -31.6152   20.5876 H   0  0  0  0  0  0
  -26.8478  -30.9002   21.9731 H   0  0  0  0  0  0
  -28.0833  -29.0524   21.2178 H   0  0  0  0  0  0
  -26.0141  -25.9555   19.0492 H   0  0  0  0  0  0
  -23.9548  -27.3437   18.9931 H   0  0  0  0  0  0
  -23.7108  -30.6177   19.3991 H   0  0  0  0  0  0
  -22.7295  -29.2621   19.8720 H   0  0  0  0  0  0
  -25.1272  -36.1998   25.0845 H   0  0  0  0  0  0
  -20.9502  -28.1992   24.0988 H   0  0  0  0  0  0
  -21.4053  -26.3523   22.9545 H   0  0  0  0  0  0
  -21.3448  -27.1649   21.4585 H   0  0  0  0  0  0
  -19.4832  -25.3387   22.5849 H   0  0  0  0  0  0
  -19.6752  -25.7862   20.9382 H   0  0  0  0  0  0
  -17.7510  -27.0378   21.0738 H   0  0  0  0  0  0
  -17.4616  -26.0994   22.5062 H   0  0  0  0  0  0
  -19.8155  -30.7082   24.2327 H   0  0  0  0  0  0
  -17.5477  -31.6315   24.5445 H   0  0  0  0  0  0
  -15.5757  -30.3253   23.8566 H   0  0  0  0  0  0
  -15.8453  -28.1123   22.7556 H   0  0  0  0  0  0
  -24.5942  -30.6993   25.7779 H   0  0  0  0  0  0
  -24.8921  -32.2805   26.4963 H   0  0  0  0  0  0
  -25.8084  -30.8818   27.0223 H   0  0  0  0  0  0
  -26.2799  -29.6842   24.1148 H   0  0  0  0  0  0
  -27.4066  -29.7203   25.4467 H   0  0  0  0  0  0
  -27.8644  -30.4330   23.9186 H   0  0  0  0  0  0
  -27.2730  -33.3588   26.2103 H   0  0  0  0  0  0
  -28.3889  -32.6863   25.0342 H   0  0  0  0  0  0
  -28.0799  -31.8462   26.5380 H   0  0  0  0  0  0
  -28.2634  -38.0103   24.7543 H   0  0  0  0  0  0
  -28.1067  -36.2624   24.6272 H   0  0  0  0  0  0
  -27.2298  -37.1474   25.8881 H   0  0  0  0  0  0
  -20.9101  -29.9931   21.7898 H   0  0  0  0  0  0
  -26.0201  -38.2890   24.1397 H   0  0  0  0  0  0
  -28.4957  -16.2036   23.3062 H   0  0  0  0  0  0
  -24.7497  -17.7767   20.9805 H   0  0  0  0  0  0
  -25.3138  -18.0668   19.4031 H   0  0  0  0  0  0
  -25.3167  -19.4197   20.5660 H   0  0  0  0  0  0
  -29.0569  -18.9435   16.7428 H   0  0  0  0  0  0
  -29.6106  -17.5359   17.6162 H   0  0  0  0  0  0
  -29.9248  -19.1342   18.2713 H   0  0  0  0  0  0
  -27.6227  -20.5274   19.2324 H   0  0  0  0  0  0
  -26.1291  -19.8867   18.5894 H   0  0  0  0  0  0
  -27.3679  -20.3532   17.5067 H   0  0  0  0  0  0
  -28.4628  -20.8907   23.4999 H   0  0  0  0  0  0
  -27.9955  -22.2416   24.5463 H   0  0  0  0  0  0
  -29.0162  -22.5070   23.1459 H   0  0  0  0  0  0
  -26.8053  -17.5873   24.3021 H   0  0  0  0  0  0
  -25.5717  -16.7975   23.3607 H   0  0  0  0  0  0
  -24.5095  -18.6054   24.1741 H   0  0  0  0  0  0
  -24.7424  -19.1833   22.6287 H   0  0  0  0  0  0
  -26.8156  -20.0550   24.6763 H   0  0  0  0  0  0
  -25.2112  -20.3967   25.0366 H   0  0  0  0  0  0
  -27.2003  -24.0187   20.2875 H   0  0  0  0  0  0
  -28.6146  -23.6670   21.2182 H   0  0  0  0  0  0
  -25.3405  -22.2825   24.0491 H   0  0  0  0  0  0
  -24.9428  -21.4507   22.5985 H   0  0  0  0  0  0
  -25.7055  -23.7508   22.0499 H   0  0  0  0  0  0
  -26.8107  -24.1564   23.2957 H   0  0  0  0  0  0
  -28.7060  -25.8231   22.2150 H   0  0  0  0  0  0
  -27.0193  -26.0989   21.9967 H   0  0  0  0  0  0
  -27.1762  -17.7970   17.8454 H   0  0  0  0  0  0
  -30.8727  -15.7521   22.0922 H   0  0  0  0  0  0
  -27.0761  -21.6544   21.8400 H   0  0  0  0  0  0
  1 25  1  0  0  0
  1 30  2  0  0  0
  1 89  1  0  0  0
  2  3  1  0  0  0
  2 25  1  0  0  0
  2 91  1  0  0  0
  2 92  1  0  0  0
  3  4  1  0  0  0
  3 93  1  0  0  0
  3 94  1  0  0  0
  4  5  1  0  0  0
  4 95  1  0  0  0
  4 96  1  0  0  0
  5  6  1  0  0  0
  5 26  1  0  0  0
  5 97  1  0  0  0
  6 25  1  0  0  0
  6 98  1  0  0  0
  6 99  1  0  0  0
  7  8  2  0  0  0
  7 26  1  0  0  0
  7 29  1  0  0  0
  8  9  1  0  0  0
  8 22  1  0  0  0
  9 10  1  0  0  0
  9 27  2  0  0  0
 10 11  2  0  0  0
 10 15  1  0  0  0
 11 12  1  0  0  0
 11100  1  0  0  0
 12 13  2  0  0  0
 12101  1  0  0  0
 13 14  1  0  0  0
 13 31  1  0  0  0
 14 15  2  0  0  0
 14102  1  0  0  0
 15103  1  0  0  0
 16 17  2  0  0  0
 16 21  1  0  0  0
 16 31  1  0  0  0
 17 18  1  0  0  0
 17104  1  0  0  0
 18 19  2  0  0  0
 18105  1  0  0  0
 19 20  1  0  0  0
 19 24  1  0  0  0
 20 21  2  0  0  0
 20106  1  0  0  0
 21 23  1  0  0  0
 22 28  1  0  0  0
 22 32  2  0  0  0
 26 27  1  0  0  0
 28107  1  0  0  0
 28108  1  0  0  0
 29109  1  0  0  0
 29110  1  0  0  0
 33 34  1  0  0  0
 33 66  1  0  0  0
 33 70  2  0  0  0
 34 36  1  0  0  0
 34 59  1  0  0  0
 34111  1  0  0  0
 35 44  2  0  0  0
 35 45  1  0  0  0
 35 68  1  0  0  0
 36 56  1  0  0  0
 36112  1  0  0  0
 37 39  1  0  0  0
 37 47  1  0  0  0
 37 66  1  0  0  0
 37113  1  0  0  0
 38 43  2  0  0  0
 38 46  1  0  0  0
 38 47  1  0  0  0
 39 64  1  0  0  0
 39 67  2  0  0  0
 40 52  1  0  0  0
 40 53  2  0  0  0
 40 58  1  0  0  0
 41114  1  0  0  0
 41115  1  0  0  0
 41116  1  0  0  0
 41 48  1  0  0  0
 42 43  1  0  0  0
 42 66  1  0  0  0
 42117  1  0  0  0
 42118  1  0  0  0
 43 44  1  0  0  0
 44119  1  0  0  0
 45 46  2  0  0  0
 45120  1  0  0  0
 46121  1  0  0  0
 47122  1  0  0  0
 47123  1  0  0  0
 48 56  1  0  0  0
 48 65  1  0  0  0
 48124  1  0  0  0
 49 50  1  0  0  0
 49 53  1  0  0  0
 49 64  1  0  0  0
 49125  1  0  0  0
 50 51  1  0  0  0
 50126  1  0  0  0
 50127  1  0  0  0
 51 52  1  0  0  0
 51128  1  0  0  0
 51129  1  0  0  0
 52130  1  0  0  0
 52131  1  0  0  0
 53 54  1  0  0  0
 54 55  2  0  0  0
 54132  1  0  0  0
 55 57  1  0  0  0
 55133  1  0  0  0
 56 69  2  0  0  0
 57 58  2  0  0  0
 57134  1  0  0  0
 58135  1  0  0  0
 59 60  1  0  0  0
 59 61  1  0  0  0
 59 62  1  0  0  0
 60136  1  0  0  0
 60137  1  0  0  0
 60138  1  0  0  0
 61139  1  0  0  0
 61140  1  0  0  0
 61141  1  0  0  0
 62142  1  0  0  0
 62143  1  0  0  0
 62144  1  0  0  0
 63 65  1  0  0  0
 63145  1  0  0  0
 63146  1  0  0  0
 63147  1  0  0  0
 64148  1  0  0  0
 65149  1  0  0  0
 68 86  1  0  0  0
 71 72  2  0  0  0
 71 75  1  0  0  0
 71150  1  0  0  0
 72 73  1  0  0  0
 72 80  1  0  0  0
 73 74  2  0  0  0
 73 76  1  0  0  0
 74 87  1  0  0  0
 74 88  1  0  0  0
 75 88  2  0  0  0
 75 89  1  0  0  0
 76151  1  0  0  0
 76152  1  0  0  0
 76153  1  0  0  0
 77154  1  0  0  0
 77155  1  0  0  0
 77156  1  0  0  0
 77 87  1  0  0  0
 78 87  1  0  0  0
 78157  1  0  0  0
 78158  1  0  0  0
 78159  1  0  0  0
 79160  1  0  0  0
 79161  1  0  0  0
 79162  1  0  0  0
 79 90  1  0  0  0
 80 81  1  0  0  0
 80163  1  0  0  0
 80164  1  0  0  0
 81 82  1  0  0  0
 81165  1  0  0  0
 81166  1  0  0  0
 82 84  1  0  0  0
 82167  1  0  0  0
 82168  1  0  0  0
 83 85  1  0  0  0
 83 86  1  0  0  0
 83169  1  0  0  0
 83170  1  0  0  0
 84 90  1  0  0  0
 84171  1  0  0  0
 84172  1  0  0  0
 85 90  1  0  0  0
 85173  1  0  0  0
 85174  1  0  0  0
 86175  1  0  0  0
 86176  1  0  0  0
 87177  1  0  0  0
 89178  1  0  0  0
 90179  1  0  0  0
M  CHG  1  90   1
M  ISO  4   1 100  68 101  86 101  89 100
M  END
> <chiral flag>
0

> <version>
0

> <s_m_source_file>
/data/baiqing/PycharmProjects/Reinvent-master-3.2/result/LINK_invent/BTK/process_docking_weight1_custom_sum_contain_oxygen_bond_distance_aromatic_linkinvent_7_9_3/rearranged_h_0093.sdf

> <i_m_source_file_index>
39

> <r_mmod_Potential_Energy-OPLS-2005>
-25.1786918640137

> <r_mmod_Stretch_Energy-OPLS-2005>
53.162784576416

> <r_mmod_Bend_Energy-OPLS-2005>
184.803497314453

> <r_mmod_Torsional_Energy-OPLS-2005>
381.234649658203

> <r_mmod_Improper_Torsional_Energy-OPLS-2005>
9.05178546905518

> <r_mmod_Van_der_Waal_Energy-OPLS-2005>
166.917053222656

> <r_mmod_Electrostatic_Energy-OPLS-2005>
-452.278961181641

> <r_mmod_Solvation_Energy-OPLS-2005>
-439.191497802734

> <b_mmod_Minimization_Converged-OPLS-2005>
0

> <r_mmod_RMS_Derivative-OPLS-2005>
16.91042137146

$$$$
39
                    3D
 Structure written by MMmdl.
167175  0  0  1  0            999 V2000
  -30.6157  -14.7565   20.5349 C   0  0  0  0  0  0
  -30.4446  -12.4942   19.4753 C   0  0  0  0  0  0
  -29.5183  -12.5310   18.2412 C   0  0  0  0  0  0
  -28.0470  -12.3372   18.6506 C   0  0  0  0  0  0
  -27.6430  -13.2393   19.8488 C   0  0  2  0  0  0
  -28.6805  -13.1748   20.9901 C   0  0  0  0  0  0
  -25.2507  -13.8229   20.5667 C   0  0  0  0  0  0
  -24.1799  -13.0442   20.9163 C   0  0  0  0  0  0
  -24.6417  -11.6938   20.8737 C   0  0  0  0  0  0
  -23.9106  -10.4305   21.0402 C   0  0  0  0  0  0
  -24.3650   -9.4225   21.9163 C   0  0  0  0  0  0
  -23.6317   -8.2278   22.0751 C   0  0  0  0  0  0
  -22.4289   -8.0316   21.3556 C   0  0  0  0  0  0
  -21.9925   -9.0287   20.4643 C   0  0  0  0  0  0
  -22.7283  -10.2152   20.3048 C   0  0  0  0  0  0
  -21.6865   -6.0767   22.5286 C   0  0  0  0  0  0
  -21.4020   -6.5660   23.8224 C   0  0  0  0  0  0
  -21.3645   -5.6798   24.9183 C   0  0  0  0  0  0
  -21.6057   -4.3067   24.7222 C   0  0  0  0  0  0
  -21.8819   -3.8168   23.4340 C   0  0  0  0  0  0
  -21.9201   -4.6992   22.3402 C   0  0  0  0  0  0
  -22.7833  -13.5244   21.1863 C   0  0  0  0  0  0
  -22.1657   -4.2183   21.0973 F   0  0  0  0  0  0
  -21.5618   -3.4533   25.7727 F   0  0  0  0  0  0
  -29.9842  -13.5398   20.4201 N   0  0  0  0  0  0
  -26.2941  -12.9455   20.3242 N   0  0  0  0  0  0
  -25.9351  -11.6579   20.5712 N   0  0  0  0  0  0
  -22.0469  -12.8218   22.0411 N   0  0  0  0  0  0
  -25.4136  -15.1963   20.4132 N   0  0  0  0  0  0
  -31.7909  -14.8731   20.1705 O   0  0  0  0  0  0
  -21.6659   -6.8906   21.4251 O   0  0  0  0  0  0
  -22.3499  -14.5542   20.6735 O   0  0  0  0  0  0
  -24.6284  -31.8553   23.1927 C   0  0  0  0  0  0
  -25.9116  -32.4739   23.8322 C   0  0  1  0  0  0
  -27.2230  -27.2987   20.1579 C   0  0  0  0  0  0
  -25.5913  -33.8542   24.2234 N   0  0  0  0  0  0
  -23.4217  -30.4774   21.5349 C   0  0  2  0  0  0
  -24.8674  -28.9222   20.1130 C   0  0  0  0  0  0
  -22.7482  -29.4614   22.4894 C   0  0  0  0  0  0
  -18.0296  -28.1380   22.8465 C   0  0  0  0  0  0
  -24.1463  -36.7325   23.2641 C   0  0  0  0  0  0
  -25.9622  -30.7865   21.3607 C   0  0  0  0  0  0
  -26.0353  -29.4083   20.7151 C   0  0  0  0  0  0
  -27.2162  -28.6085   20.7250 C   0  0  0  0  0  0
  -26.0370  -26.8633   19.5228 C   0  0  0  0  0  0
  -24.8710  -27.6553   19.5064 C   0  0  0  0  0  0
  -23.6341  -29.8004   20.1552 C   0  0  0  0  0  0
  -25.4085  -36.3060   24.0323 C   0  0  1  0  0  0
  -20.5904  -28.3699   23.1248 C   0  0  2  0  0  0
  -20.6783  -26.9412   22.5399 C   0  0  0  0  0  0
  -19.5754  -26.6373   21.5206 C   0  0  0  0  0  0
  -18.1930  -26.7919   22.1608 C   0  0  0  0  0  0
  -19.1553  -28.8862   23.2847 C   0  0  0  0  0  0
  -18.9462  -30.1459   23.8878 C   0  0  0  0  0  0
  -17.6466  -30.6582   24.0568 C   0  0  0  0  0  0
  -25.9038  -34.9434   23.5081 C   0  0  0  0  0  0
  -16.5362  -29.9078   23.6340 C   0  0  0  0  0  0
  -16.7284  -28.6493   23.0359 C   0  0  0  0  0  0
  -26.4473  -31.6576   25.0718 C   0  0  0  0  0  0
  -25.3685  -31.3770   26.1436 C   0  0  0  0  0  0
  -27.0289  -30.2980   24.6192 C   0  0  0  0  0  0
  -27.6014  -32.4337   25.7502 C   0  0  0  0  0  0
  -27.5551  -37.1798   24.8457 C   0  0  0  0  0  0
  -21.4186  -29.3043   22.3625 N   0  0  0  0  0  0
  -26.4268  -37.3768   23.9404 N   0  0  0  0  0  0
  -24.6902  -31.0580   22.0865 N   0  0  0  0  0  0
  -23.4209  -28.8170   23.2981 O   0  0  0  0  0  0
  -28.3314  -26.4392   20.1974 O   0  0  0  0  0  0
  -26.5616  -34.8908   22.4646 O   0  0  0  0  0  0
  -23.5445  -32.1379   23.7230 O   0  0  0  0  0  0
  -29.5548  -19.9108   21.1039 C   0  0  0  0  0  0
  -28.6604  -20.9716   20.6927 C   0  0  0  0  0  0
  -27.5467  -20.5676   19.8893 C   0  0  0  0  0  0
  -29.3400  -18.5307   20.7503 C   0  0  0  0  0  0
  -27.4253  -19.1731   19.5373 C   0  0  0  0  0  0
  -25.3726  -21.7940   20.5400 C   0  0  0  0  0  0
  -27.0254  -17.5352   17.6270 C   0  0  0  0  0  0
  -25.3127  -19.3166   17.8867 C   0  0  0  0  0  0
  -28.7832  -22.4626   21.2600 C   0  0  0  0  0  0
  -26.5000  -21.6342   19.5110 C   0  0  0  0  0  0
  -30.3139  -17.3163   21.0817 C   0  0  0  0  0  0
  -28.9236  -23.8110   20.3731 C   0  0  0  0  0  0
  -28.1595  -25.1290   20.8814 C   0  0  0  0  0  0
  -26.3531  -18.4860   18.6491 C   0  0  0  0  0  0
  -28.2694  -18.2195   20.0117 N   0  0  0  0  0  0
  -29.8746  -15.8643   20.9073 N   0  0  0  0  0  0
  -31.4779  -12.6534   19.1605 H   0  0  0  0  0  0
  -30.4274  -11.5190   19.9631 H   0  0  0  0  0  0
  -29.8205  -11.7666   17.5254 H   0  0  0  0  0  0
  -29.6306  -13.4888   17.7305 H   0  0  0  0  0  0
  -27.9105  -11.2877   18.9100 H   0  0  0  0  0  0
  -27.3963  -12.5271   17.7970 H   0  0  0  0  0  0
  -27.6350  -14.2615   19.4659 H   0  0  0  0  0  0
  -28.7232  -12.1820   21.4397 H   0  0  0  0  0  0
  -28.3981  -13.8601   21.7917 H   0  0  0  0  0  0
  -25.2814   -9.5728   22.4702 H   0  0  0  0  0  0
  -24.0044   -7.4691   22.7467 H   0  0  0  0  0  0
  -21.0868   -8.8838   19.8941 H   0  0  0  0  0  0
  -22.3773  -10.9694   19.6137 H   0  0  0  0  0  0
  -21.2003   -7.6160   23.9750 H   0  0  0  0  0  0
  -21.1452   -6.0507   25.9085 H   0  0  0  0  0  0
  -22.0599   -2.7631   23.2835 H   0  0  0  0  0  0
  -22.4081  -11.9890   22.4833 H   0  0  0  0  0  0
  -21.1084  -13.1251   22.2572 H   0  0  0  0  0  0
  -24.6387  -15.8383   20.5383 H   0  0  0  0  0  0
  -26.2713  -15.6612   20.1423 H   0  0  0  0  0  0
  -26.7181  -32.5380   23.1076 H   0  0  0  0  0  0
  -25.0050  -33.9720   25.0366 H   0  0  0  0  0  0
  -22.7181  -31.2976   21.3814 H   0  0  0  0  0  0
  -23.3696  -35.9683   23.3293 H   0  0  0  0  0  0
  -24.3573  -36.8967   22.2062 H   0  0  0  0  0  0
  -23.7235  -37.6530   23.6688 H   0  0  0  0  0  0
  -26.0940  -31.5404   20.5833 H   0  0  0  0  0  0
  -26.8452  -30.8419   21.9850 H   0  0  0  0  0  0
  -28.1102  -28.9745   21.2111 H   0  0  0  0  0  0
  -25.9986  -25.8874   19.0586 H   0  0  0  0  0  0
  -23.9728  -27.2776   19.0397 H   0  0  0  0  0  0
  -23.7373  -30.5647   19.3835 H   0  0  0  0  0  0
  -22.7560  -29.2189   19.8718 H   0  0  0  0  0  0
  -25.1235  -36.1928   25.0820 H   0  0  0  0  0  0
  -21.0005  -28.3293   24.1368 H   0  0  0  0  0  0
  -20.5664  -26.2315   23.3611 H   0  0  0  0  0  0
  -21.6648  -26.7414   22.1199 H   0  0  0  0  0  0
  -19.6933  -25.6279   21.1247 H   0  0  0  0  0  0
  -19.6702  -27.3178   20.6736 H   0  0  0  0  0  0
  -17.4200  -26.6660   21.4014 H   0  0  0  0  0  0
  -18.0322  -26.0068   22.9008 H   0  0  0  0  0  0
  -19.7959  -30.7262   24.2221 H   0  0  0  0  0  0
  -17.5044  -31.6262   24.5156 H   0  0  0  0  0  0
  -15.5366  -30.2983   23.7678 H   0  0  0  0  0  0
  -15.8671  -28.0816   22.7094 H   0  0  0  0  0  0
  -24.5845  -30.7119   25.7800 H   0  0  0  0  0  0
  -24.8877  -32.2947   26.4848 H   0  0  0  0  0  0
  -25.7987  -30.8978   27.0232 H   0  0  0  0  0  0
  -26.2848  -29.6751   24.1205 H   0  0  0  0  0  0
  -27.3921  -29.7242   25.4729 H   0  0  0  0  0  0
  -27.8746  -30.4229   23.9424 H   0  0  0  0  0  0
  -27.2617  -33.3674   26.2013 H   0  0  0  0  0  0
  -28.3865  -32.6855   25.0360 H   0  0  0  0  0  0
  -28.0602  -31.8489   26.5487 H   0  0  0  0  0  0
  -28.2551  -38.0105   24.7483 H   0  0  0  0  0  0
  -28.1035  -36.2629   24.6257 H   0  0  0  0  0  0
  -27.2289  -37.1438   25.8868 H   0  0  0  0  0  0
  -20.9361  -29.8779   21.6843 H   0  0  0  0  0  0
  -26.0132  -38.2832   24.1413 H   0  0  0  0  0  0
  -30.4024  -20.1500   21.7320 H   0  0  0  0  0  0
  -25.7712  -22.0303   21.5248 H   0  0  0  0  0  0
  -24.7536  -20.9015   20.6278 H   0  0  0  0  0  0
  -24.7200  -22.6211   20.2565 H   0  0  0  0  0  0
  -27.4473  -16.6588   18.1230 H   0  0  0  0  0  0
  -27.8382  -18.0336   17.0962 H   0  0  0  0  0  0
  -26.3209  -17.1685   16.8804 H   0  0  0  0  0  0
  -24.6872  -19.9123   18.5480 H   0  0  0  0  0  0
  -24.6225  -18.6527   17.3674 H   0  0  0  0  0  0
  -25.7732  -19.9424   17.1213 H   0  0  0  0  0  0
  -29.6168  -22.4710   21.9614 H   0  0  0  0  0  0
  -27.9226  -22.6028   21.9115 H   0  0  0  0  0  0
  -26.1068  -21.5170   18.5151 H   0  0  0  0  0  0
  -26.9406  -22.6094   19.3957 H   0  0  0  0  0  0
  -30.6529  -17.4328   22.1129 H   0  0  0  0  0  0
  -31.2006  -17.4710   20.4651 H   0  0  0  0  0  0
  -28.6646  -23.6448   19.3317 H   0  0  0  0  0  0
  -29.9857  -24.0459   20.3351 H   0  0  0  0  0  0
  -27.0994  -24.8909   20.9727 H   0  0  0  0  0  0
  -28.4937  -25.3048   21.9056 H   0  0  0  0  0  0
  -25.7675  -17.8782   19.3396 H   0  0  0  0  0  0
  -28.9019  -15.7047   21.1127 H   0  0  0  0  0  0
  1 25  1  0  0  0
  1 30  2  0  0  0
  1 86  1  0  0  0
  2  3  1  0  0  0
  2 25  1  0  0  0
  2 87  1  0  0  0
  2 88  1  0  0  0
  3  4  1  0  0  0
  3 89  1  0  0  0
  3 90  1  0  0  0
  4  5  1  0  0  0
  4 91  1  0  0  0
  4 92  1  0  0  0
  5  6  1  0  0  0
  5 26  1  0  0  0
  5 93  1  0  0  0
  6 25  1  0  0  0
  6 94  1  0  0  0
  6 95  1  0  0  0
  7  8  2  0  0  0
  7 26  1  0  0  0
  7 29  1  0  0  0
  8  9  1  0  0  0
  8 22  1  0  0  0
  9 10  1  0  0  0
  9 27  2  0  0  0
 10 11  2  0  0  0
 10 15  1  0  0  0
 11 12  1  0  0  0
 11 96  1  0  0  0
 12 13  2  0  0  0
 12 97  1  0  0  0
 13 14  1  0  0  0
 13 31  1  0  0  0
 14 15  2  0  0  0
 14 98  1  0  0  0
 15 99  1  0  0  0
 16 17  2  0  0  0
 16 21  1  0  0  0
 16 31  1  0  0  0
 17 18  1  0  0  0
 17100  1  0  0  0
 18 19  2  0  0  0
 18101  1  0  0  0
 19 20  1  0  0  0
 19 24  1  0  0  0
 20 21  2  0  0  0
 20102  1  0  0  0
 21 23  1  0  0  0
 22 28  1  0  0  0
 22 32  2  0  0  0
 26 27  1  0  0  0
 28103  1  0  0  0
 28104  1  0  0  0
 29105  1  0  0  0
 29106  1  0  0  0
 33 34  1  0  0  0
 33 66  1  0  0  0
 33 70  2  0  0  0
 34 36  1  0  0  0
 34 59  1  0  0  0
 34107  1  0  0  0
 35 44  2  0  0  0
 35 45  1  0  0  0
 35 68  1  0  0  0
 36 56  1  0  0  0
 36108  1  0  0  0
 37 39  1  0  0  0
 37 47  1  0  0  0
 37 66  1  0  0  0
 37109  1  0  0  0
 38 43  2  0  0  0
 38 46  1  0  0  0
 38 47  1  0  0  0
 39 64  1  0  0  0
 39 67  2  0  0  0
 40 52  1  0  0  0
 40 53  2  0  0  0
 40 58  1  0  0  0
 41110  1  0  0  0
 41111  1  0  0  0
 41112  1  0  0  0
 41 48  1  0  0  0
 42 43  1  0  0  0
 42 66  1  0  0  0
 42113  1  0  0  0
 42114  1  0  0  0
 43 44  1  0  0  0
 44115  1  0  0  0
 45 46  2  0  0  0
 45116  1  0  0  0
 46117  1  0  0  0
 47118  1  0  0  0
 47119  1  0  0  0
 48 56  1  0  0  0
 48 65  1  0  0  0
 48120  1  0  0  0
 49 50  1  0  0  0
 49 53  1  0  0  0
 49 64  1  0  0  0
 49121  1  0  0  0
 50 51  1  0  0  0
 50122  1  0  0  0
 50123  1  0  0  0
 51 52  1  0  0  0
 51124  1  0  0  0
 51125  1  0  0  0
 52126  1  0  0  0
 52127  1  0  0  0
 53 54  1  0  0  0
 54 55  2  0  0  0
 54128  1  0  0  0
 55 57  1  0  0  0
 55129  1  0  0  0
 56 69  2  0  0  0
 57 58  2  0  0  0
 57130  1  0  0  0
 58131  1  0  0  0
 59 60  1  0  0  0
 59 61  1  0  0  0
 59 62  1  0  0  0
 60132  1  0  0  0
 60133  1  0  0  0
 60134  1  0  0  0
 61135  1  0  0  0
 61136  1  0  0  0
 61137  1  0  0  0
 62138  1  0  0  0
 62139  1  0  0  0
 62140  1  0  0  0
 63 65  1  0  0  0
 63141  1  0  0  0
 63142  1  0  0  0
 63143  1  0  0  0
 64144  1  0  0  0
 65145  1  0  0  0
 68 83  1  0  0  0
 71 72  2  0  0  0
 71 74  1  0  0  0
 71146  1  0  0  0
 72 73  1  0  0  0
 72 79  1  0  0  0
 73 75  2  0  0  0
 73 80  1  0  0  0
 74 81  1  0  0  0
 74 85  2  0  0  0
 75 84  1  0  0  0
 75 85  1  0  0  0
 76 80  1  0  0  0
 76147  1  0  0  0
 76148  1  0  0  0
 76149  1  0  0  0
 77150  1  0  0  0
 77151  1  0  0  0
 77152  1  0  0  0
 77 84  1  0  0  0
 78 84  1  0  0  0
 78153  1  0  0  0
 78154  1  0  0  0
 78155  1  0  0  0
 79 82  1  0  0  0
 79156  1  0  0  0
 79157  1  0  0  0
 80158  1  0  0  0
 80159  1  0  0  0
 81 86  1  0  0  0
 81160  1  0  0  0
 81161  1  0  0  0
 82 83  1  0  0  0
 82162  1  0  0  0
 82163  1  0  0  0
 83164  1  0  0  0
 83165  1  0  0  0
 84166  1  0  0  0
 86167  1  0  0  0
M  ISO  4   1 100  68 101  83 101  86 100
M  END
> <chiral flag>
0

> <version>
0

> <s_m_source_file>
/data/baiqing/PycharmProjects/Reinvent-master-3.2/result/LINK_invent/BTK/process_docking_weight1_custom_sum_contain_oxygen_bond_distance_aromatic_linkinvent_7_9_3/rearranged_h_0093.sdf

> <i_m_source_file_index>
40

> <r_mmod_Potential_Energy-OPLS-2005>
-121.150283813477

> <r_mmod_Stretch_Energy-OPLS-2005>
114.783142089844

> <r_mmod_Bend_Energy-OPLS-2005>
186.248916625977

> <r_mmod_Torsional_Energy-OPLS-2005>
228.965209960938

> <r_mmod_Improper_Torsional_Energy-OPLS-2005>
4.10169744491577

> <r_mmod_Van_der_Waal_Energy-OPLS-2005>
151.845718383789

> <r_mmod_Electrostatic_Energy-OPLS-2005>
-681.706481933594

> <r_mmod_Solvation_Energy-OPLS-2005>
-205.461212158203

> <b_mmod_Minimization_Converged-OPLS-2005>
0

> <r_mmod_RMS_Derivative-OPLS-2005>
4.92496204376221

$$$$
40
                    3D
 Structure written by MMmdl.
177185  0  0  1  0            999 V2000
  -30.6588  -14.4401   20.5876 C   0  0  0  0  0  0
  -30.4350  -12.2955   19.3995 C   0  0  0  0  0  0
  -29.4922  -12.5130   18.1952 C   0  0  0  0  0  0
  -28.0110  -12.3781   18.6058 C   0  0  0  0  0  0
  -27.6668  -13.1930   19.8821 C   0  0  2  0  0  0
  -28.7077  -12.9081   20.9879 C   0  0  0  0  0  0
  -25.2603  -13.8127   20.5663 C   0  0  0  0  0  0
  -24.1858  -13.0416   20.9153 C   0  0  0  0  0  0
  -24.6385  -11.6881   20.8709 C   0  0  0  0  0  0
  -23.9039  -10.4278   21.0389 C   0  0  0  0  0  0
  -24.3573   -9.4193   21.9174 C   0  0  0  0  0  0
  -23.6259   -8.2218   22.0767 C   0  0  0  0  0  0
  -22.4260   -8.0248   21.3519 C   0  0  0  0  0  0
  -21.9869   -9.0240   20.4641 C   0  0  0  0  0  0
  -22.7193  -10.2124   20.3040 C   0  0  0  0  0  0
  -21.6843   -6.0708   22.5265 C   0  0  0  0  0  0
  -21.4014   -6.5617   23.8190 C   0  0  0  0  0  0
  -21.3657   -5.6773   24.9159 C   0  0  0  0  0  0
  -21.6044   -4.3040   24.7211 C   0  0  0  0  0  0
  -21.8824   -3.8119   23.4338 C   0  0  0  0  0  0
  -21.9190   -4.6938   22.3390 C   0  0  0  0  0  0
  -22.7862  -13.5230   21.1805 C   0  0  0  0  0  0
  -22.1659   -4.2119   21.0971 F   0  0  0  0  0  0
  -21.5644   -3.4540   25.7735 F   0  0  0  0  0  0
  -30.0412  -13.2403   20.4513 N   0  0  0  0  0  0
  -26.3054  -12.9281   20.3382 N   0  0  0  0  0  0
  -25.9306  -11.6451   20.5729 N   0  0  0  0  0  0
  -22.0519  -12.8252   22.0404 N   0  0  0  0  0  0
  -25.4315  -15.1844   20.4024 N   0  0  0  0  0  0
  -31.7643  -14.7064   20.1042 O   0  0  0  0  0  0
  -21.6616   -6.8854   21.4227 O   0  0  0  0  0  0
  -22.3540  -14.5521   20.6651 O   0  0  0  0  0  0
  -24.6110  -31.8705   23.2091 C   0  0  0  0  0  0
  -25.9016  -32.4817   23.8391 C   0  0  1  0  0  0
  -27.2398  -27.4682   20.0921 C   0  0  0  0  0  0
  -25.5878  -33.8615   24.2335 N   0  0  0  0  0  0
  -23.3971  -30.4922   21.5484 C   0  0  2  0  0  0
  -24.8474  -28.9529   20.1199 C   0  0  0  0  0  0
  -22.7371  -29.4695   22.5010 C   0  0  0  0  0  0
  -18.0239  -28.1357   22.8480 C   0  0  0  0  0  0
  -24.1489  -36.7333   23.2628 C   0  0  0  0  0  0
  -25.9197  -30.8431   21.3601 C   0  0  0  0  0  0
  -26.0020  -29.4739   20.7182 C   0  0  0  0  0  0
  -27.2046  -28.7354   20.7116 C   0  0  0  0  0  0
  -26.0785  -26.9522   19.4889 C   0  0  0  0  0  0
  -24.8757  -27.6865   19.5060 C   0  0  0  0  0  0
  -23.6055  -29.8166   20.1654 C   0  0  0  0  0  0
  -25.4100  -36.3108   24.0337 C   0  0  1  0  0  0
  -20.5814  -28.3661   23.1314 C   0  0  2  0  0  0
  -20.6745  -26.9408   22.5405 C   0  0  0  0  0  0
  -19.5738  -26.6382   21.5180 C   0  0  0  0  0  0
  -18.1909  -26.7900   22.1591 C   0  0  0  0  0  0
  -19.1485  -28.8815   23.2883 C   0  0  0  0  0  0
  -18.9435  -30.1409   23.8912 C   0  0  0  0  0  0
  -17.6455  -30.6575   24.0565 C   0  0  0  0  0  0
  -25.9025  -34.9482   23.5130 C   0  0  0  0  0  0
  -16.5337  -29.9098   23.6311 C   0  0  0  0  0  0
  -16.7234  -28.6497   23.0349 C   0  0  0  0  0  0
  -26.4465  -31.6564   25.0685 C   0  0  0  0  0  0
  -25.3747  -31.3651   26.1440 C   0  0  0  0  0  0
  -27.0267  -30.3016   24.5996 C   0  0  0  0  0  0
  -27.6033  -32.4272   25.7457 C   0  0  0  0  0  0
  -27.5583  -37.1814   24.8451 C   0  0  0  0  0  0
  -21.4105  -29.3055   22.3746 N   0  0  0  0  0  0
  -26.4311  -37.3791   23.9371 N   0  0  0  0  0  0
  -24.6600  -31.0828   22.0979 N   0  0  0  0  0  0
  -23.4155  -28.8254   23.3057 O   0  0  0  0  0  0
  -28.4012  -26.7463   20.0246 O   0  0  0  0  0  0
  -26.5616  -34.8958   22.4705 O   0  0  0  0  0  0
  -23.5308  -32.1448   23.7498 O   0  0  0  0  0  0
  -28.5110  -19.5100   20.6272 C   0  0  0  0  0  0
  -27.4831  -20.3063   20.1966 C   0  0  0  0  0  0
  -27.1086  -19.7227   18.9525 C   0  0  0  0  0  0
  -26.0268  -21.0255   22.0818 C   0  0  0  0  0  0
  -24.1826  -22.5107   16.8937 C   0  0  0  0  0  0
  -26.0485  -22.9998   15.2753 C   0  0  0  0  0  0
  -26.0304  -20.1846   18.0122 C   0  0  0  0  0  0
  -26.4864  -21.4015   17.1904 C   0  0  0  0  0  0
  -28.4109  -23.4041   20.0962 C   0  0  0  0  0  0
  -29.3218  -24.5659   20.5389 C   0  0  0  0  0  0
  -27.8676  -22.5786   21.2805 C   0  0  0  0  0  0
  -29.6597  -17.4103   19.6768 C   0  0  0  0  0  0
  -30.0032  -16.8322   21.0794 C   0  0  0  0  0  0
  -28.5638  -25.7977   21.0729 C   0  0  0  0  0  0
  -26.8447  -21.4993   20.8755 C   0  0  1  0  0  0
  -25.4326  -21.9372   16.2002 C   0  0  0  0  0  0
  -27.8540  -18.6677   18.6469 N   0  0  0  0  0  0
  -28.6918  -18.5063   19.6961 N   0  0  0  0  0  0
  -29.8778  -15.3743   21.1487 N   0  0  0  0  0  0
  -31.4733  -12.4273   19.0939 H   0  0  0  0  0  0
  -30.3636  -11.2713   19.7692 H   0  0  0  0  0  0
  -29.7229  -11.8006   17.4020 H   0  0  0  0  0  0
  -29.6679  -13.5049   17.7746 H   0  0  0  0  0  0
  -27.8072  -11.3199   18.7754 H   0  0  0  0  0  0
  -27.3668  -12.6805   17.7801 H   0  0  0  0  0  0
  -27.7281  -14.2496   19.6196 H   0  0  0  0  0  0
  -28.6784  -11.8522   21.2610 H   0  0  0  0  0  0
  -28.4672  -13.4375   21.9101 H   0  0  0  0  0  0
  -25.2734   -9.5688   22.4725 H   0  0  0  0  0  0
  -23.9976   -7.4614   22.7497 H   0  0  0  0  0  0
  -21.0796   -8.8742   19.8937 H   0  0  0  0  0  0
  -22.3643  -10.9655   19.6129 H   0  0  0  0  0  0
  -21.1998   -7.6121   23.9683 H   0  0  0  0  0  0
  -21.1489   -6.0512   25.9062 H   0  0  0  0  0  0
  -22.0608   -2.7584   23.2842 H   0  0  0  0  0  0
  -22.4117  -11.9896   22.4777 H   0  0  0  0  0  0
  -21.1125  -13.1259   22.2590 H   0  0  0  0  0  0
  -24.6570  -15.8320   20.4956 H   0  0  0  0  0  0
  -26.2767  -15.6255   20.0622 H   0  0  0  0  0  0
  -26.7071  -32.5591   23.1147 H   0  0  0  0  0  0
  -25.0014  -33.9748   25.0476 H   0  0  0  0  0  0
  -22.6816  -31.3077   21.4079 H   0  0  0  0  0  0
  -23.3749  -35.9675   23.3289 H   0  0  0  0  0  0
  -24.3593  -36.8952   22.2042 H   0  0  0  0  0  0
  -23.7287  -37.6550   23.6663 H   0  0  0  0  0  0
  -26.0217  -31.6072   20.5882 H   0  0  0  0  0  0
  -26.8086  -30.9053   21.9751 H   0  0  0  0  0  0
  -28.1017  -29.1327   21.1672 H   0  0  0  0  0  0
  -26.1135  -25.9907   18.9976 H   0  0  0  0  0  0
  -23.9881  -27.2761   19.0409 H   0  0  0  0  0  0
  -23.7086  -30.5886   19.3998 H   0  0  0  0  0  0
  -22.7314  -29.2319   19.8753 H   0  0  0  0  0  0
  -25.1281  -36.1976   25.0847 H   0  0  0  0  0  0
  -20.9868  -28.3227   24.1453 H   0  0  0  0  0  0
  -20.5615  -26.2280   23.3580 H   0  0  0  0  0  0
  -21.6643  -26.7471   22.1240 H   0  0  0  0  0  0
  -19.6933  -25.6288   21.1217 H   0  0  0  0  0  0
  -19.6689  -27.3199   20.6700 H   0  0  0  0  0  0
  -17.4185  -26.6602   21.3992 H   0  0  0  0  0  0
  -18.0355  -26.0038   22.8990 H   0  0  0  0  0  0
  -19.7934  -30.7164   24.2350 H   0  0  0  0  0  0
  -17.5043  -31.6269   24.5142 H   0  0  0  0  0  0
  -15.5345  -30.3019   23.7639 H   0  0  0  0  0  0
  -15.8621  -28.0822   22.7086 H   0  0  0  0  0  0
  -24.5952  -30.6935   25.7819 H   0  0  0  0  0  0
  -24.8881  -32.2762   26.4920 H   0  0  0  0  0  0
  -25.8134  -30.8850   27.0192 H   0  0  0  0  0  0
  -26.2778  -29.6763   24.1117 H   0  0  0  0  0  0
  -27.4118  -29.7255   25.4415 H   0  0  0  0  0  0
  -27.8573  -30.4309   23.9061 H   0  0  0  0  0  0
  -27.2665  -33.3591   26.2045 H   0  0  0  0  0  0
  -28.3874  -32.6804   25.0291 H   0  0  0  0  0  0
  -28.0663  -31.8368   26.5374 H   0  0  0  0  0  0
  -28.2610  -38.0105   24.7531 H   0  0  0  0  0  0
  -28.1094  -36.2651   24.6277 H   0  0  0  0  0  0
  -27.2300  -37.1467   25.8858 H   0  0  0  0  0  0
  -20.9251  -29.8844   21.7031 H   0  0  0  0  0  0
  -26.0197  -38.2874   24.1382 H   0  0  0  0  0  0
  -29.1069  -19.5638   21.5280 H   0  0  0  0  0  0
  -25.2506  -20.3218   21.7761 H   0  0  0  0  0  0
  -25.5319  -21.8651   22.5716 H   0  0  0  0  0  0
  -26.6545  -20.5310   22.8234 H   0  0  0  0  0  0
  -23.4558  -22.8559   16.1569 H   0  0  0  0  0  0
  -24.4273  -23.3588   17.5350 H   0  0  0  0  0  0
  -23.6746  -21.7660   17.5060 H   0  0  0  0  0  0
  -25.3482  -23.2863   14.4914 H   0  0  0  0  0  0
  -26.9531  -22.6326   14.7883 H   0  0  0  0  0  0
  -26.3128  -23.9036   15.8255 H   0  0  0  0  0  0
  -25.1412  -20.4290   18.5884 H   0  0  0  0  0  0
  -25.7342  -19.3792   17.3404 H   0  0  0  0  0  0
  -27.3823  -21.1188   16.6375 H   0  0  0  0  0  0
  -26.7954  -22.1998   17.8649 H   0  0  0  0  0  0
  -28.9675  -22.7412   19.4305 H   0  0  0  0  0  0
  -27.5868  -23.8029   19.5049 H   0  0  0  0  0  0
  -29.9589  -24.8707   19.7076 H   0  0  0  0  0  0
  -30.0072  -24.2050   21.3071 H   0  0  0  0  0  0
  -27.3835  -23.2595   21.9809 H   0  0  0  0  0  0
  -28.6912  -22.1316   21.8356 H   0  0  0  0  0  0
  -29.2694  -16.6273   19.0216 H   0  0  0  0  0  0
  -30.5711  -17.7778   19.2022 H   0  0  0  0  0  0
  -29.3187  -17.2289   21.8288 H   0  0  0  0  0  0
  -30.9994  -17.1448   21.3903 H   0  0  0  0  0  0
  -29.1377  -26.2701   21.8694 H   0  0  0  0  0  0
  -27.6103  -25.5074   21.5169 H   0  0  0  0  0  0
  -26.1344  -21.9778   20.1988 H   0  0  0  0  0  0
  -25.1188  -21.1015   15.5748 H   0  0  0  0  0  0
  -29.0115  -15.0257   21.5336 H   0  0  0  0  0  0
  1 25  1  0  0  0
  1 30  2  0  0  0
  1 89  1  0  0  0
  2  3  1  0  0  0
  2 25  1  0  0  0
  2 90  1  0  0  0
  2 91  1  0  0  0
  3  4  1  0  0  0
  3 92  1  0  0  0
  3 93  1  0  0  0
  4  5  1  0  0  0
  4 94  1  0  0  0
  4 95  1  0  0  0
  5  6  1  0  0  0
  5 26  1  0  0  0
  5 96  1  0  0  0
  6 25  1  0  0  0
  6 97  1  0  0  0
  6 98  1  0  0  0
  7  8  2  0  0  0
  7 26  1  0  0  0
  7 29  1  0  0  0
  8  9  1  0  0  0
  8 22  1  0  0  0
  9 10  1  0  0  0
  9 27  2  0  0  0
 10 11  2  0  0  0
 10 15  1  0  0  0
 11 12  1  0  0  0
 11 99  1  0  0  0
 12 13  2  0  0  0
 12100  1  0  0  0
 13 14  1  0  0  0
 13 31  1  0  0  0
 14 15  2  0  0  0
 14101  1  0  0  0
 15102  1  0  0  0
 16 17  2  0  0  0
 16 21  1  0  0  0
 16 31  1  0  0  0
 17 18  1  0  0  0
 17103  1  0  0  0
 18 19  2  0  0  0
 18104  1  0  0  0
 19 20  1  0  0  0
 19 24  1  0  0  0
 20 21  2  0  0  0
 20105  1  0  0  0
 21 23  1  0  0  0
 22 28  1  0  0  0
 22 32  2  0  0  0
 26 27  1  0  0  0
 28106  1  0  0  0
 28107  1  0  0  0
 29108  1  0  0  0
 29109  1  0  0  0
 33 34  1  0  0  0
 33 66  1  0  0  0
 33 70  2  0  0  0
 34 36  1  0  0  0
 34 59  1  0  0  0
 34110  1  0  0  0
 35 44  2  0  0  0
 35 45  1  0  0  0
 35 68  1  0  0  0
 36 56  1  0  0  0
 36111  1  0  0  0
 37 39  1  0  0  0
 37 47  1  0  0  0
 37 66  1  0  0  0
 37112  1  0  0  0
 38 43  2  0  0  0
 38 46  1  0  0  0
 38 47  1  0  0  0
 39 64  1  0  0  0
 39 67  2  0  0  0
 40 52  1  0  0  0
 40 53  2  0  0  0
 40 58  1  0  0  0
 41113  1  0  0  0
 41114  1  0  0  0
 41115  1  0  0  0
 41 48  1  0  0  0
 42 43  1  0  0  0
 42 66  1  0  0  0
 42116  1  0  0  0
 42117  1  0  0  0
 43 44  1  0  0  0
 44118  1  0  0  0
 45 46  2  0  0  0
 45119  1  0  0  0
 46120  1  0  0  0
 47121  1  0  0  0
 47122  1  0  0  0
 48 56  1  0  0  0
 48 65  1  0  0  0
 48123  1  0  0  0
 49 50  1  0  0  0
 49 53  1  0  0  0
 49 64  1  0  0  0
 49124  1  0  0  0
 50 51  1  0  0  0
 50125  1  0  0  0
 50126  1  0  0  0
 51 52  1  0  0  0
 51127  1  0  0  0
 51128  1  0  0  0
 52129  1  0  0  0
 52130  1  0  0  0
 53 54  1  0  0  0
 54 55  2  0  0  0
 54131  1  0  0  0
 55 57  1  0  0  0
 55132  1  0  0  0
 56 69  2  0  0  0
 57 58  2  0  0  0
 57133  1  0  0  0
 58134  1  0  0  0
 59 60  1  0  0  0
 59 61  1  0  0  0
 59 62  1  0  0  0
 60135  1  0  0  0
 60136  1  0  0  0
 60137  1  0  0  0
 61138  1  0  0  0
 61139  1  0  0  0
 61140  1  0  0  0
 62141  1  0  0  0
 62142  1  0  0  0
 62143  1  0  0  0
 63 65  1  0  0  0
 63144  1  0  0  0
 63145  1  0  0  0
 63146  1  0  0  0
 64147  1  0  0  0
 65148  1  0  0  0
 68 84  1  0  0  0
 71 72  2  0  0  0
 71 88  1  0  0  0
 71149  1  0  0  0
 72 73  1  0  0  0
 72 85  1  0  0  0
 73 77  1  0  0  0
 73 87  2  0  0  0
 74150  1  0  0  0
 74151  1  0  0  0
 74152  1  0  0  0
 74 85  1  0  0  0
 75153  1  0  0  0
 75154  1  0  0  0
 75155  1  0  0  0
 75 86  1  0  0  0
 76 86  1  0  0  0
 76156  1  0  0  0
 76157  1  0  0  0
 76158  1  0  0  0
 77 78  1  0  0  0
 77159  1  0  0  0
 77160  1  0  0  0
 78 86  1  0  0  0
 78161  1  0  0  0
 78162  1  0  0  0
 79 80  1  0  0  0
 79 81  1  0  0  0
 79163  1  0  0  0
 79164  1  0  0  0
 80 84  1  0  0  0
 80165  1  0  0  0
 80166  1  0  0  0
 81 85  1  0  0  0
 81167  1  0  0  0
 81168  1  0  0  0
 82 83  1  0  0  0
 82 88  1  0  0  0
 82169  1  0  0  0
 82170  1  0  0  0
 83 89  1  0  0  0
 83171  1  0  0  0
 83172  1  0  0  0
 84173  1  0  0  0
 84174  1  0  0  0
 85175  1  0  0  0
 86176  1  0  0  0
 87 88  1  0  0  0
 89177  1  0  0  0
M  ISO  4   1 100  68 101  84 101  89 100
M  END
> <chiral flag>
0

> <version>
0

> <s_m_source_file>
/data/baiqing/PycharmProjects/Reinvent-master-3.2/result/LINK_invent/BTK/process_docking_weight1_custom_sum_contain_oxygen_bond_distance_aromatic_linkinvent_7_9_3/rearranged_h_0093.sdf

> <i_m_source_file_index>
41

> <r_mmod_Potential_Energy-OPLS-2005>
-86.0113067626953

> <r_mmod_Stretch_Energy-OPLS-2005>
31.8926639556885

> <r_mmod_Bend_Energy-OPLS-2005>
94.2188568115234

> <r_mmod_Torsional_Energy-OPLS-2005>
260.12646484375

> <r_mmod_Improper_Torsional_Energy-OPLS-2005>
4.63996887207031

> <r_mmod_Van_der_Waal_Energy-OPLS-2005>
113.228034973145

> <r_mmod_Electrostatic_Energy-OPLS-2005>
-392.073944091797

> <r_mmod_Solvation_Energy-OPLS-2005>
-207.233337402344

> <b_mmod_Minimization_Converged-OPLS-2005>
0

> <r_mmod_RMS_Derivative-OPLS-2005>
3.58481359481812

$$$$
41
                    3D
 Structure written by MMmdl.
172180  0  0  1  0            999 V2000
  -30.7841  -14.2390   20.5605 C   0  0  0  0  0  0
  -30.2395  -12.0711   19.4726 C   0  0  0  0  0  0
  -29.4854  -12.6102   18.2665 C   0  0  0  0  0  0
  -28.0010  -12.6676   18.6758 C   0  0  0  0  0  0
  -27.6978  -13.2674   20.0743 C   0  0  2  0  0  0
  -28.7277  -12.8929   21.1766 C   0  0  0  0  0  0
  -25.2671  -13.8413   20.6228 C   0  0  0  0  0  0
  -24.1944  -13.0461   20.9414 C   0  0  0  0  0  0
  -24.6498  -11.7029   20.8879 C   0  0  0  0  0  0
  -23.9039  -10.4441   21.0539 C   0  0  0  0  0  0
  -24.3685   -9.4361   21.9168 C   0  0  0  0  0  0
  -23.6368   -8.2401   22.0723 C   0  0  0  0  0  0
  -22.4333   -8.0374   21.3547 C   0  0  0  0  0  0
  -21.9832   -9.0506   20.4879 C   0  0  0  0  0  0
  -22.7134  -10.2392   20.3280 C   0  0  0  0  0  0
  -21.6974   -6.0759   22.5179 C   0  0  0  0  0  0
  -21.4125   -6.5723   23.8076 C   0  0  0  0  0  0
  -21.3685   -5.6879   24.9060 C   0  0  0  0  0  0
  -21.5976   -4.3138   24.7189 C   0  0  0  0  0  0
  -21.8828   -3.8199   23.4367 C   0  0  0  0  0  0
  -21.9255   -4.6972   22.3381 C   0  0  0  0  0  0
  -22.7969  -13.5337   21.1936 C   0  0  0  0  0  0
  -22.1726   -4.2163   21.0957 F   0  0  0  0  0  0
  -21.5604   -3.4565   25.7735 F   0  0  0  0  0  0
  -30.0449  -13.0874   20.5345 N   0  0  0  0  0  0
  -26.3307  -12.9659   20.4514 N   0  0  0  0  0  0
  -25.9508  -11.6639   20.6027 N   0  0  0  0  0  0
  -22.0568  -12.8414   22.0585 N   0  0  0  0  0  0
  -25.4019  -15.2175   20.4610 N   0  0  0  0  0  0
  -31.7993  -14.3943   19.8790 O   0  0  0  0  0  0
  -21.6851   -6.8858   21.4115 O   0  0  0  0  0  0
  -22.3715  -14.5508   20.6686 O   0  0  0  0  0  0
  -24.5991  -31.8706   23.2203 C   0  0  0  0  0  0
  -25.8911  -32.4892   23.8530 C   0  0  1  0  0  0
  -27.2581  -27.4945   20.0934 C   0  0  0  0  0  0
  -25.5807  -33.8679   24.2390 N   0  0  0  0  0  0
  -23.3813  -30.4921   21.5648 C   0  0  2  0  0  0
  -24.8339  -28.9722   20.1104 C   0  0  0  0  0  0
  -22.7329  -29.4647   22.5118 C   0  0  0  0  0  0
  -18.0205  -28.1287   22.8527 C   0  0  0  0  0  0
  -24.1456  -36.7374   23.2669 C   0  0  0  0  0  0
  -25.9021  -30.8662   21.3503 C   0  0  0  0  0  0
  -25.9859  -29.5011   20.6955 C   0  0  0  0  0  0
  -27.1927  -28.7734   20.6934 C   0  0  0  0  0  0
  -26.0703  -26.9453   19.5432 C   0  0  0  0  0  0
  -24.8717  -27.6973   19.5286 C   0  0  0  0  0  0
  -23.5772  -29.8288   20.1786 C   0  0  0  0  0  0
  -25.4089  -36.3200   24.0389 C   0  0  1  0  0  0
  -20.5811  -28.3563   23.1408 C   0  0  2  0  0  0
  -20.6684  -26.9296   22.5499 C   0  0  0  0  0  0
  -19.5689  -26.6312   21.5242 C   0  0  0  0  0  0
  -18.1869  -26.7827   22.1631 C   0  0  0  0  0  0
  -19.1471  -28.8719   23.2975 C   0  0  0  0  0  0
  -18.9410  -30.1349   23.8945 C   0  0  0  0  0  0
  -17.6424  -30.6541   24.0504 C   0  0  0  0  0  0
  -25.8992  -34.9563   23.5179 C   0  0  0  0  0  0
  -16.5299  -29.9047   23.6289 C   0  0  0  0  0  0
  -16.7210  -28.6431   23.0365 C   0  0  0  0  0  0
  -26.4375  -31.6622   25.0770 C   0  0  0  0  0  0
  -25.3702  -31.3689   26.1567 C   0  0  0  0  0  0
  -27.0129  -30.3121   24.5949 C   0  0  0  0  0  0
  -27.6004  -32.4356   25.7436 C   0  0  0  0  0  0
  -27.5576  -37.1866   24.8487 C   0  0  0  0  0  0
  -21.4074  -29.2909   22.3845 N   0  0  0  0  0  0
  -26.4317  -37.3870   23.9368 N   0  0  0  0  0  0
  -24.6502  -31.0874   22.1097 N   0  0  0  0  0  0
  -23.4124  -28.8216   23.3197 O   0  0  0  0  0  0
  -28.4929  -26.8822   20.1179 O   0  0  0  0  0  0
  -26.5663  -34.8928   22.4780 O   0  0  0  0  0  0
  -23.5229  -32.1525   23.7655 O   0  0  0  0  0  0
  -30.6244  -19.8003   20.4239 C   0  0  0  0  0  0
  -29.6689  -20.7898   20.0879 C   0  0  0  0  0  0
  -30.4009  -18.4726   19.9647 C   0  0  0  0  0  0
  -28.5028  -20.3236   19.4194 C   0  0  0  0  0  0
  -22.2857  -19.9242   19.4577 C   0  0  0  0  0  0
  -29.8995  -22.2452   20.5287 C   0  0  0  0  0  0
  -31.3552  -17.3123   20.2002 C   0  0  0  0  0  0
  -27.2036  -21.1018   19.2411 C   0  0  0  0  0  0
  -23.5620  -19.9880   20.3080 C   0  0  0  0  0  0
  -29.6836  -23.3553   19.4639 C   0  0  0  0  0  0
  -26.0396  -20.3104   19.8733 C   0  0  0  0  0  0
  -24.6389  -20.8667   19.6294 C   0  0  0  0  0  0
  -29.2847  -24.6852   20.1394 C   0  0  0  0  0  0
  -31.0802  -16.5010   21.4921 C   0  0  0  0  0  0
  -28.8537  -25.8382   19.2206 C   0  0  0  0  0  0
  -29.3142  -18.1424   19.2317 N   0  0  0  0  0  0
  -28.3992  -19.0574   18.9605 N   0  0  0  0  0  0
  -30.3078  -15.2553   21.2731 N   0  0  0  0  0  0
  -31.2666  -11.7358   19.3003 H   0  0  0  0  0  0
  -29.7111  -11.1383   19.6993 H   0  0  0  0  0  0
  -29.6128  -12.0578   17.3362 H   0  0  0  0  0  0
  -29.8469  -13.6178   18.0862 H   0  0  0  0  0  0
  -27.5792  -11.6744   18.5625 H   0  0  0  0  0  0
  -27.4490  -13.3349   18.0172 H   0  0  0  0  0  0
  -27.7675  -14.3528   19.9912 H   0  0  0  0  0  0
  -28.6402  -11.8647   21.4997 H   0  0  0  0  0  0
  -28.5816  -13.4541   22.1083 H   0  0  0  0  0  0
  -25.3056   -9.5810   22.4413 H   0  0  0  0  0  0
  -24.0446   -7.4650   22.6996 H   0  0  0  0  0  0
  -21.0737   -8.9026   19.9183 H   0  0  0  0  0  0
  -22.3400  -11.0061   19.6649 H   0  0  0  0  0  0
  -21.2132   -7.6255   23.9510 H   0  0  0  0  0  0
  -21.1487   -6.0678   25.8889 H   0  0  0  0  0  0
  -22.0581   -2.7703   23.2892 H   0  0  0  0  0  0
  -22.3717  -11.9794   22.4794 H   0  0  0  0  0  0
  -21.1093  -13.1564   22.2140 H   0  0  0  0  0  0
  -24.5797  -15.8037   20.5594 H   0  0  0  0  0  0
  -26.1909  -15.7564   20.1375 H   0  0  0  0  0  0
  -26.6863  -32.5597   23.1228 H   0  0  0  0  0  0
  -24.9755  -33.9816   25.0395 H   0  0  0  0  0  0
  -22.6645  -31.3131   21.4495 H   0  0  0  0  0  0
  -23.3727  -35.9707   23.3459 H   0  0  0  0  0  0
  -24.3529  -36.8846   22.2057 H   0  0  0  0  0  0
  -23.7184  -37.6614   23.6565 H   0  0  0  0  0  0
  -25.9647  -31.6364   20.5841 H   0  0  0  0  0  0
  -26.8025  -30.9444   21.9467 H   0  0  0  0  0  0
  -28.0720  -29.2048   21.1343 H   0  0  0  0  0  0
  -26.0416  -25.9466   19.1356 H   0  0  0  0  0  0
  -23.9723  -27.2676   19.0878 H   0  0  0  0  0  0
  -23.6135  -30.6051   19.4153 H   0  0  0  0  0  0
  -22.7060  -29.2316   19.9149 H   0  0  0  0  0  0
  -25.1219  -36.2204   25.0913 H   0  0  0  0  0  0
  -20.9836  -28.3067   24.1554 H   0  0  0  0  0  0
  -20.5492  -26.2146   23.3656 H   0  0  0  0  0  0
  -21.6569  -26.7282   22.1338 H   0  0  0  0  0  0
  -19.6861  -25.6237   21.1228 H   0  0  0  0  0  0
  -19.6647  -27.3160   20.6786 H   0  0  0  0  0  0
  -17.4137  -26.6610   21.4031 H   0  0  0  0  0  0
  -18.0262  -25.9946   22.8982 H   0  0  0  0  0  0
  -19.7891  -30.7151   24.2372 H   0  0  0  0  0  0
  -17.4958  -31.6224   24.5074 H   0  0  0  0  0  0
  -15.5297  -30.2934   23.7557 H   0  0  0  0  0  0
  -15.8610  -28.0705   22.7107 H   0  0  0  0  0  0
  -24.5860  -30.7029   25.7947 H   0  0  0  0  0  0
  -24.8880  -32.2796   26.5134 H   0  0  0  0  0  0
  -25.8116  -30.8821   27.0256 H   0  0  0  0  0  0
  -26.2609  -29.7076   24.0874 H   0  0  0  0  0  0
  -27.3844  -29.7136   25.4253 H   0  0  0  0  0  0
  -27.8443  -30.4548   23.9067 H   0  0  0  0  0  0
  -27.2659  -33.3651   26.2053 H   0  0  0  0  0  0
  -28.3712  -32.6960   25.0175 H   0  0  0  0  0  0
  -28.0758  -31.8495   26.5283 H   0  0  0  0  0  0
  -28.2721  -38.0049   24.7403 H   0  0  0  0  0  0
  -28.0927  -36.2578   24.6460 H   0  0  0  0  0  0
  -27.2270  -37.1714   25.8896 H   0  0  0  0  0  0
  -20.9259  -29.8557   21.7005 H   0  0  0  0  0  0
  -26.0280  -38.2987   24.1311 H   0  0  0  0  0  0
  -31.4784  -20.0671   21.0205 H   0  0  0  0  0  0
  -21.4982  -19.3493   19.9503 H   0  0  0  0  0  0
  -22.5218  -19.4209   18.5153 H   0  0  0  0  0  0
  -21.8936  -20.9210   19.2368 H   0  0  0  0  0  0
  -30.9330  -22.3442   20.8764 H   0  0  0  0  0  0
  -29.2684  -22.4161   21.4027 H   0  0  0  0  0  0
  -32.3861  -17.6751   20.1725 H   0  0  0  0  0  0
  -31.2750  -16.6426   19.3408 H   0  0  0  0  0  0
  -27.0342  -21.2593   18.1656 H   0  0  0  0  0  0
  -27.2613  -22.0679   19.7367 H   0  0  0  0  0  0
  -23.9407  -18.9579   20.4103 H   0  0  0  0  0  0
  -23.3394  -20.3355   21.3240 H   0  0  0  0  0  0
  -28.9141  -23.0810   18.7454 H   0  0  0  0  0  0
  -30.5848  -23.4870   18.8615 H   0  0  0  0  0  0
  -26.2157  -20.1890   20.9434 H   0  0  0  0  0  0
  -26.0187  -19.2974   19.4640 H   0  0  0  0  0  0
  -24.5773  -21.8984   19.9693 H   0  0  0  0  0  0
  -24.4619  -20.9145   18.5517 H   0  0  0  0  0  0
  -30.1315  -24.9953   20.7587 H   0  0  0  0  0  0
  -28.4471  -24.4990   20.8158 H   0  0  0  0  0  0
  -30.5838  -17.1550   22.2157 H   0  0  0  0  0  0
  -32.0487  -16.2237   21.9204 H   0  0  0  0  0  0
  -28.0591  -25.5517   18.5353 H   0  0  0  0  0  0
  -29.6908  -26.2058   18.6141 H   0  0  0  0  0  0
  -29.3108  -15.2148   21.4947 H   0  0  0  0  0  0
  1 25  1  0  0  0
  1 30  2  0  0  0
  1 88  1  0  0  0
  2  3  1  0  0  0
  2 25  1  0  0  0
  2 89  1  0  0  0
  2 90  1  0  0  0
  3  4  1  0  0  0
  3 91  1  0  0  0
  3 92  1  0  0  0
  4  5  1  0  0  0
  4 93  1  0  0  0
  4 94  1  0  0  0
  5  6  1  0  0  0
  5 26  1  0  0  0
  5 95  1  0  0  0
  6 25  1  0  0  0
  6 96  1  0  0  0
  6 97  1  0  0  0
  7  8  2  0  0  0
  7 26  1  0  0  0
  7 29  1  0  0  0
  8  9  1  0  0  0
  8 22  1  0  0  0
  9 10  1  0  0  0
  9 27  2  0  0  0
 10 11  2  0  0  0
 10 15  1  0  0  0
 11 12  1  0  0  0
 11 98  1  0  0  0
 12 13  2  0  0  0
 12 99  1  0  0  0
 13 14  1  0  0  0
 13 31  1  0  0  0
 14 15  2  0  0  0
 14100  1  0  0  0
 15101  1  0  0  0
 16 17  2  0  0  0
 16 21  1  0  0  0
 16 31  1  0  0  0
 17 18  1  0  0  0
 17102  1  0  0  0
 18 19  2  0  0  0
 18103  1  0  0  0
 19 20  1  0  0  0
 19 24  1  0  0  0
 20 21  2  0  0  0
 20104  1  0  0  0
 21 23  1  0  0  0
 22 28  1  0  0  0
 22 32  2  0  0  0
 26 27  1  0  0  0
 28105  1  0  0  0
 28106  1  0  0  0
 29107  1  0  0  0
 29108  1  0  0  0
 33 34  1  0  0  0
 33 66  1  0  0  0
 33 70  2  0  0  0
 34 36  1  0  0  0
 34 59  1  0  0  0
 34109  1  0  0  0
 35 44  2  0  0  0
 35 45  1  0  0  0
 35 68  1  0  0  0
 36 56  1  0  0  0
 36110  1  0  0  0
 37 39  1  0  0  0
 37 47  1  0  0  0
 37 66  1  0  0  0
 37111  1  0  0  0
 38 43  2  0  0  0
 38 46  1  0  0  0
 38 47  1  0  0  0
 39 64  1  0  0  0
 39 67  2  0  0  0
 40 52  1  0  0  0
 40 53  2  0  0  0
 40 58  1  0  0  0
 41112  1  0  0  0
 41113  1  0  0  0
 41114  1  0  0  0
 41 48  1  0  0  0
 42 43  1  0  0  0
 42 66  1  0  0  0
 42115  1  0  0  0
 42116  1  0  0  0
 43 44  1  0  0  0
 44117  1  0  0  0
 45 46  2  0  0  0
 45118  1  0  0  0
 46119  1  0  0  0
 47120  1  0  0  0
 47121  1  0  0  0
 48 56  1  0  0  0
 48 65  1  0  0  0
 48122  1  0  0  0
 49 50  1  0  0  0
 49 53  1  0  0  0
 49 64  1  0  0  0
 49123  1  0  0  0
 50 51  1  0  0  0
 50124  1  0  0  0
 50125  1  0  0  0
 51 52  1  0  0  0
 51126  1  0  0  0
 51127  1  0  0  0
 52128  1  0  0  0
 52129  1  0  0  0
 53 54  1  0  0  0
 54 55  2  0  0  0
 54130  1  0  0  0
 55 57  1  0  0  0
 55131  1  0  0  0
 56 69  2  0  0  0
 57 58  2  0  0  0
 57132  1  0  0  0
 58133  1  0  0  0
 59 60  1  0  0  0
 59 61  1  0  0  0
 59 62  1  0  0  0
 60134  1  0  0  0
 60135  1  0  0  0
 60136  1  0  0  0
 61137  1  0  0  0
 61138  1  0  0  0
 61139  1  0  0  0
 62140  1  0  0  0
 62141  1  0  0  0
 62142  1  0  0  0
 63 65  1  0  0  0
 63143  1  0  0  0
 63144  1  0  0  0
 63145  1  0  0  0
 64146  1  0  0  0
 65147  1  0  0  0
 68 85  1  0  0  0
 71 72  2  0  0  0
 71 73  1  0  0  0
 71148  1  0  0  0
 72 74  1  0  0  0
 72 76  1  0  0  0
 73 77  1  0  0  0
 73 86  2  0  0  0
 74 78  1  0  0  0
 74 87  2  0  0  0
 75 79  1  0  0  0
 75149  1  0  0  0
 75150  1  0  0  0
 75151  1  0  0  0
 76 80  1  0  0  0
 76152  1  0  0  0
 76153  1  0  0  0
 77 84  1  0  0  0
 77154  1  0  0  0
 77155  1  0  0  0
 78 81  1  0  0  0
 78156  1  0  0  0
 78157  1  0  0  0
 79 82  1  0  0  0
 79158  1  0  0  0
 79159  1  0  0  0
 80 83  1  0  0  0
 80160  1  0  0  0
 80161  1  0  0  0
 81 82  1  0  0  0
 81162  1  0  0  0
 81163  1  0  0  0
 82164  1  0  0  0
 82165  1  0  0  0
 83 85  1  0  0  0
 83166  1  0  0  0
 83167  1  0  0  0
 84 88  1  0  0  0
 84168  1  0  0  0
 84169  1  0  0  0
 85170  1  0  0  0
 85171  1  0  0  0
 86 87  1  0  0  0
 88172  1  0  0  0
M  ISO  4   1 100  68 101  85 101  88 100
M  END
> <chiral flag>
0

> <version>
0

> <s_m_source_file>
/data/baiqing/PycharmProjects/Reinvent-master-3.2/result/LINK_invent/BTK/process_docking_weight1_custom_sum_contain_oxygen_bond_distance_aromatic_linkinvent_7_9_3/rearranged_h_0093.sdf

> <i_m_source_file_index>
42

> <r_mmod_Potential_Energy-OPLS-2005>
106.781021118164

> <r_mmod_Stretch_Energy-OPLS-2005>
43.4067535400391

> <r_mmod_Bend_Energy-OPLS-2005>
161.136199951172

> <r_mmod_Torsional_Energy-OPLS-2005>
226.005035400391

> <r_mmod_Improper_Torsional_Energy-OPLS-2005>
4.47595548629761

> <r_mmod_Van_der_Waal_Energy-OPLS-2005>
177.164123535156

> <r_mmod_Electrostatic_Energy-OPLS-2005>
-343.994110107422

> <r_mmod_Solvation_Energy-OPLS-2005>
-213.568786621094

> <b_mmod_Minimization_Converged-OPLS-2005>
0

> <r_mmod_RMS_Derivative-OPLS-2005>
24.7085285186768

$$$$
42
                    3D
 Structure written by MMmdl.
167175  0  0  1  0            999 V2000
  -28.5156  -19.2616   20.3824 C   0  0  0  0  0  0
  -29.5930  -15.7957   19.6168 C   0  0  0  0  0  0
  -29.3938  -14.3205   18.6993 C   0  0  0  0  0  0
  -28.4456  -13.2278   19.2071 C   0  0  0  0  0  0
  -27.4759  -14.1226   19.9688 C   0  0  2  0  0  0
  -28.0158  -15.5842   20.8244 C   0  0  0  0  0  0
  -25.0976  -13.9877   20.6298 C   0  0  0  0  0  0
  -24.1339  -13.0881   20.9412 C   0  0  0  0  0  0
  -24.7238  -11.7879   20.8618 C   0  0  0  0  0  0
  -24.0101  -10.4702   21.0051 C   0  0  0  0  0  0
  -24.4271   -9.4547   21.9005 C   0  0  0  0  0  0
  -23.6724   -8.2644   22.0725 C   0  0  0  0  0  0
  -22.4680   -8.0620   21.3547 C   0  0  0  0  0  0
  -22.0523   -9.0626   20.4576 C   0  0  0  0  0  0
  -22.8103  -10.2404   20.2848 C   0  0  0  0  0  0
  -21.7047   -6.0937   22.5256 C   0  0  0  0  0  0
  -21.4161   -6.5765   23.8207 C   0  0  0  0  0  0
  -21.3701   -5.6872   24.9138 C   0  0  0  0  0  0
  -21.6027   -4.3128   24.7163 C   0  0  0  0  0  0
  -21.8805   -3.8262   23.4272 C   0  0  0  0  0  0
  -21.9246   -4.7122   22.3353 C   0  0  0  0  0  0
  -22.7107  -13.4749   21.1916 C   0  0  0  0  0  0
  -22.1685   -4.2299   21.0930 F   0  0  0  0  0  0
  -21.5584   -3.4577   25.7653 F   0  0  0  0  0  0
  -28.5183  -17.1976   20.2059 N   0  0  0  0  0  0
  -26.2742  -13.3313   20.4518 N   0  0  0  0  0  0
  -26.0525  -11.9460   20.5737 N   0  0  0  0  0  0
  -22.0151  -12.7500   22.0561 N   0  0  0  0  0  0
  -25.0555  -15.3593   20.4364 N   0  0  0  0  0  0
  -29.7779  -18.7007   20.3194 O   0  0  0  0  0  0
  -21.6932   -6.9219   21.4276 O   0  0  0  0  0  0
  -22.2361  -14.4882   20.6772 O   0  0  0  0  0  0
  -24.8709  -31.2431   23.0941 C   0  0  0  0  0  0
  -25.9823  -32.2071   23.7396 C   0  0  1  0  0  0
  -28.5796  -25.4434   19.4959 C   0  0  0  0  0  0
  -25.5299  -33.6339   24.0243 N   0  0  0  0  0  0
  -23.5759  -29.3542   21.5848 C   0  0  2  0  0  0
  -25.0047  -26.4450   20.0155 C   0  0  0  0  0  0
  -22.6278  -29.1685   22.6969 C   0  0  0  0  0  0
  -17.9679  -28.1469   22.8246 C   0  0  0  0  0  0
  -24.1455  -36.6275   23.2700 C   0  0  0  0  0  0
  -26.7211  -29.1548   22.0869 C   0  0  0  0  0  0
  -27.0380  -27.3503   21.1000 C   0  0  0  0  0  0
  -28.3978  -26.6719   20.7183 C   0  0  0  0  0  0
  -27.1211  -24.6608   18.4204 C   0  0  0  0  0  0
  -25.3224  -25.1915   18.8323 C   0  0  0  0  0  0
  -23.3875  -27.6913   20.3764 C   0  0  0  0  0  0
  -25.4144  -36.1647   24.0086 C   0  0  1  0  0  0
  -20.4780  -28.3178   23.2065 C   0  0  2  0  0  0
  -20.5493  -26.8647   22.6939 C   0  0  0  0  0  0
  -19.5545  -26.6060   21.5643 C   0  0  0  0  0  0
  -18.1359  -26.8123   22.1091 C   0  0  0  0  0  0
  -19.0824  -28.8783   23.2972 C   0  0  0  0  0  0
  -18.9019  -30.1400   23.8981 C   0  0  0  0  0  0
  -17.6110  -30.6689   24.0533 C   0  0  0  0  0  0
  -25.9145  -34.7957   23.4395 C   0  0  0  0  0  0
  -16.4973  -29.9275   23.6205 C   0  0  0  0  0  0
  -16.6757  -28.6715   23.0102 C   0  0  0  0  0  0
  -26.4975  -31.6431   25.1186 C   0  0  0  0  0  0
  -25.3713  -31.4462   26.1618 C   0  0  0  0  0  0
  -27.1704  -30.2908   24.9406 C   0  0  0  0  0  0
  -27.5852  -32.5522   25.7364 C   0  0  0  0  0  0
  -27.5400  -37.1192   24.8447 C   0  0  0  0  0  0
  -21.3364  -29.1645   22.4154 N   0  0  0  0  0  0
  -26.4072  -37.2710   23.9378 N   0  0  0  0  0  0
  -25.0829  -29.9875   22.3309 N   0  0  0  0  0  0
  -23.0920  -28.8638   23.7853 O   0  0  0  0  0  0
  -29.8387  -25.2576   19.6200 O   0  0  0  0  0  0
  -26.6503  -34.8084   22.4537 O   0  0  0  0  0  0
  -23.7385  -31.7290   23.3377 O   0  0  0  0  0  0
  -25.0689  -27.3254   22.0457 C   0  0  0  0  0  0
  -25.4492  -28.6842   20.2033 C   0  0  0  0  0  0
  -25.8538  -25.5088   21.9870 C   0  0  0  0  0  0
  -26.3298  -28.1397   18.9482 C   0  0  0  0  0  0
  -26.7687  -24.6011   20.6463 C   0  0  0  0  0  0
  -26.7414  -28.7968   17.6186 C   0  0  0  0  0  0
  -25.2715  -31.6101   20.1337 C   0  0  0  0  0  0
  -23.8972  -30.2034   18.5532 C   0  0  0  0  0  0
  -26.1176  -24.8198   23.3039 C   0  0  0  0  0  0
  -27.6320  -24.9335   23.6880 C   0  0  0  0  0  0
  -28.6621  -23.9923   22.9552 C   0  0  0  0  0  0
  -29.9054  -24.5911   22.1884 C   0  0  0  0  0  0
  -30.1368  -24.2742   20.6507 C   0  0  0  0  0  0
  -25.0844  -30.1739   19.5575 C   0  0  0  0  0  0
  -26.9023  -26.7567   18.9801 N   0  0  0  0  0  0
  -27.6326  -21.6547   20.5185 N   0  0  0  0  0  0
  -30.2202  -16.3668   18.9322 H   0  0  0  0  0  0
  -30.3326  -15.5851   20.3975 H   0  0  0  0  0  0
  -30.3758  -13.8765   18.5252 H   0  0  0  0  0  0
  -29.0448  -14.6175   17.7081 H   0  0  0  0  0  0
  -28.9541  -12.5450   19.8879 H   0  0  0  0  0  0
  -27.9832  -12.6553   18.4004 H   0  0  0  0  0  0
  -27.0304  -14.6163   19.1005 H   0  0  0  0  0  0
  -28.6626  -15.2652   21.6506 H   0  0  0  0  0  0
  -27.1824  -15.8948   21.4461 H   0  0  0  0  0  0
  -25.3338   -9.5974   22.4725 H   0  0  0  0  0  0
  -24.0321   -7.5109   22.7598 H   0  0  0  0  0  0
  -21.1423   -8.9265   19.8893 H   0  0  0  0  0  0
  -22.4547  -10.9898   19.5918 H   0  0  0  0  0  0
  -21.2239   -7.6282   23.9765 H   0  0  0  0  0  0
  -21.1496   -6.0577   25.9044 H   0  0  0  0  0  0
  -22.0521   -2.7722   23.2719 H   0  0  0  0  0  0
  -22.4200  -11.9406   22.5014 H   0  0  0  0  0  0
  -21.0639  -13.0084   22.2759 H   0  0  0  0  0  0
  -24.1921  -15.8897   20.4908 H   0  0  0  0  0  0
  -25.8560  -15.9148   20.1603 H   0  0  0  0  0  0
  -26.8185  -32.2439   23.0392 H   0  0  0  0  0  0
  -24.8619  -33.7139   24.7758 H   0  0  0  0  0  0
  -23.1074  -30.2041   21.0986 H   0  0  0  0  0  0
  -23.3720  -35.8587   23.2989 H   0  0  0  0  0  0
  -24.3485  -36.8447   22.2202 H   0  0  0  0  0  0
  -23.7235  -37.5248   23.7233 H   0  0  0  0  0  0
  -27.4210  -29.8869   21.6822 H   0  0  0  0  0  0
  -27.1481  -28.8331   23.0176 H   0  0  0  0  0  0
  -29.2859  -27.1013   21.1541 H   0  0  0  0  0  0
  -27.3256  -23.9171   17.6631 H   0  0  0  0  0  0
  -24.5074  -24.8002   18.2412 H   0  0  0  0  0  0
  -22.9607  -27.9647   19.4145 H   0  0  0  0  0  0
  -22.6117  -27.0484   20.7722 H   0  0  0  0  0  0
  -25.1461  -36.0087   25.0555 H   0  0  0  0  0  0
  -20.8110  -28.3019   24.2473 H   0  0  0  0  0  0
  -20.2662  -26.2119   23.5207 H   0  0  0  0  0  0
  -21.5604  -26.5438   22.4640 H   0  0  0  0  0  0
  -19.6652  -25.5918   21.1794 H   0  0  0  0  0  0
  -19.7498  -27.2824   20.7314 H   0  0  0  0  0  0
  -17.4191  -26.7450   21.2889 H   0  0  0  0  0  0
  -17.8832  -26.0133   22.8075 H   0  0  0  0  0  0
  -19.7585  -30.6986   24.2516 H   0  0  0  0  0  0
  -17.4741  -31.6361   24.5174 H   0  0  0  0  0  0
  -15.5016  -30.3278   23.7472 H   0  0  0  0  0  0
  -15.8112  -28.1185   22.6663 H   0  0  0  0  0  0
  -24.6159  -30.7312   25.8358 H   0  0  0  0  0  0
  -24.8609  -32.3838   26.3827 H   0  0  0  0  0  0
  -25.7687  -31.0765   27.1082 H   0  0  0  0  0  0
  -26.4313  -29.5142   24.7553 H   0  0  0  0  0  0
  -27.6613  -29.9763   25.8637 H   0  0  0  0  0  0
  -27.9607  -30.3367   24.1918 H   0  0  0  0  0  0
  -27.1950  -33.5306   26.0185 H   0  0  0  0  0  0
  -28.4058  -32.7205   25.0378 H   0  0  0  0  0  0
  -28.0125  -32.1241   26.6440 H   0  0  0  0  0  0
  -28.2144  -37.9701   24.7426 H   0  0  0  0  0  0
  -28.1136  -36.2156   24.6329 H   0  0  0  0  0  0
  -27.2098  -37.0816   25.8839 H   0  0  0  0  0  0
  -21.0191  -29.4395   21.4954 H   0  0  0  0  0  0
  -25.9629  -38.1633   24.1362 H   0  0  0  0  0  0
  -24.7098  -27.6003   23.0110 H   0  0  0  0  0  0
  -25.9239  -29.2788   17.0890 H   0  0  0  0  0  0
  -27.1396  -28.0535   16.9285 H   0  0  0  0  0  0
  -27.5374  -29.5250   17.7825 H   0  0  0  0  0  0
  -24.3936  -31.9816   20.6576 H   0  0  0  0  0  0
  -25.3890  -32.3418   19.3294 H   0  0  0  0  0  0
  -26.1728  -31.7250   20.7351 H   0  0  0  0  0  0
  -23.9057  -29.3589   17.8662 H   0  0  0  0  0  0
  -23.9363  -31.1051   17.9410 H   0  0  0  0  0  0
  -22.9164  -30.2213   19.0232 H   0  0  0  0  0  0
  -25.8182  -23.7733   23.2332 H   0  0  0  0  0  0
  -25.4888  -25.2800   24.0666 H   0  0  0  0  0  0
  -27.6769  -24.6725   24.7488 H   0  0  0  0  0  0
  -27.9525  -25.9756   23.6551 H   0  0  0  0  0  0
  -28.1458  -23.2396   22.3727 H   0  0  0  0  0  0
  -29.0986  -23.3902   23.7550 H   0  0  0  0  0  0
  -30.7593  -24.1078   22.6629 H   0  0  0  0  0  0
  -30.0863  -25.6314   22.4504 H   0  0  0  0  0  0
  -29.6568  -23.3281   20.4083 H   0  0  0  0  0  0
  -31.2000  -24.0679   20.5190 H   0  0  0  0  0  0
  -25.9495  -30.4228   18.9709 H   0  0  0  0  0  0
  -28.6042  -21.9032   20.3998 H   0  0  0  0  0  0
  1 25  1  0  0  0
  1 30  2  0  0  0
  1 86  1  0  0  0
  2  3  1  0  0  0
  2 25  1  0  0  0
  2 87  1  0  0  0
  2 88  1  0  0  0
  3  4  1  0  0  0
  3 89  1  0  0  0
  3 90  1  0  0  0
  4  5  1  0  0  0
  4 91  1  0  0  0
  4 92  1  0  0  0
  5  6  1  0  0  0
  5 26  1  0  0  0
  5 93  1  0  0  0
  6 25  1  0  0  0
  6 94  1  0  0  0
  6 95  1  0  0  0
  7  8  2  0  0  0
  7 26  1  0  0  0
  7 29  1  0  0  0
  8  9  1  0  0  0
  8 22  1  0  0  0
  9 10  1  0  0  0
  9 27  2  0  0  0
 10 11  2  0  0  0
 10 15  1  0  0  0
 11 12  1  0  0  0
 11 96  1  0  0  0
 12 13  2  0  0  0
 12 97  1  0  0  0
 13 14  1  0  0  0
 13 31  1  0  0  0
 14 15  2  0  0  0
 14 98  1  0  0  0
 15 99  1  0  0  0
 16 17  2  0  0  0
 16 21  1  0  0  0
 16 31  1  0  0  0
 17 18  1  0  0  0
 17100  1  0  0  0
 18 19  2  0  0  0
 18101  1  0  0  0
 19 20  1  0  0  0
 19 24  1  0  0  0
 20 21  2  0  0  0
 20102  1  0  0  0
 21 23  1  0  0  0
 22 28  1  0  0  0
 22 32  2  0  0  0
 26 27  1  0  0  0
 28103  1  0  0  0
 28104  1  0  0  0
 29105  1  0  0  0
 29106  1  0  0  0
 33 34  1  0  0  0
 33 66  1  0  0  0
 33 70  2  0  0  0
 34 36  1  0  0  0
 34 59  1  0  0  0
 34107  1  0  0  0
 35 44  2  0  0  0
 35 45  1  0  0  0
 35 68  1  0  0  0
 36 56  1  0  0  0
 36108  1  0  0  0
 37 39  1  0  0  0
 37 47  1  0  0  0
 37 66  1  0  0  0
 37109  1  0  0  0
 38 43  2  0  0  0
 38 46  1  0  0  0
 38 47  1  0  0  0
 39 64  1  0  0  0
 39 67  2  0  0  0
 40 52  1  0  0  0
 40 53  2  0  0  0
 40 58  1  0  0  0
 41110  1  0  0  0
 41111  1  0  0  0
 41112  1  0  0  0
 41 48  1  0  0  0
 42 43  1  0  0  0
 42 66  1  0  0  0
 42113  1  0  0  0
 42114  1  0  0  0
 43 44  1  0  0  0
 44115  1  0  0  0
 45 46  2  0  0  0
 45116  1  0  0  0
 46117  1  0  0  0
 47118  1  0  0  0
 47119  1  0  0  0
 48 56  1  0  0  0
 48 65  1  0  0  0
 48120  1  0  0  0
 49 50  1  0  0  0
 49 53  1  0  0  0
 49 64  1  0  0  0
 49121  1  0  0  0
 50 51  1  0  0  0
 50122  1  0  0  0
 50123  1  0  0  0
 51 52  1  0  0  0
 51124  1  0  0  0
 51125  1  0  0  0
 52126  1  0  0  0
 52127  1  0  0  0
 53 54  1  0  0  0
 54 55  2  0  0  0
 54128  1  0  0  0
 55 57  1  0  0  0
 55129  1  0  0  0
 56 69  2  0  0  0
 57 58  2  0  0  0
 57130  1  0  0  0
 58131  1  0  0  0
 59 60  1  0  0  0
 59 61  1  0  0  0
 59 62  1  0  0  0
 60132  1  0  0  0
 60133  1  0  0  0
 60134  1  0  0  0
 61135  1  0  0  0
 61136  1  0  0  0
 61137  1  0  0  0
 62138  1  0  0  0
 62139  1  0  0  0
 62140  1  0  0  0
 63 65  1  0  0  0
 63141  1  0  0  0
 63142  1  0  0  0
 63143  1  0  0  0
 64144  1  0  0  0
 65145  1  0  0  0
 68 83  1  0  0  0
 71 72  2  0  0  0
 71 73  1  0  0  0
 71146  1  0  0  0
 72 74  1  0  0  0
 72 84  1  0  0  0
 73 75  2  0  0  0
 73 79  1  0  0  0
 74 76  1  0  0  0
 74 85  2  0  0  0
 75 85  1  0  0  0
 75 86  1  0  0  0
 76147  1  0  0  0
 76148  1  0  0  0
 76149  1  0  0  0
 77150  1  0  0  0
 77151  1  0  0  0
 77152  1  0  0  0
 77 84  1  0  0  0
 78 84  1  0  0  0
 78153  1  0  0  0
 78154  1  0  0  0
 78155  1  0  0  0
 79 80  1  0  0  0
 79156  1  0  0  0
 79157  1  0  0  0
 80 81  1  0  0  0
 80158  1  0  0  0
 80159  1  0  0  0
 81 82  1  0  0  0
 81160  1  0  0  0
 81161  1  0  0  0
 82 83  1  0  0  0
 82162  1  0  0  0
 82163  1  0  0  0
 83164  1  0  0  0
 83165  1  0  0  0
 84166  1  0  0  0
 86167  1  0  0  0
M  ISO  4   1 100  68 101  83 101  86 100
M  END
> <chiral flag>
0

> <version>
0

> <s_m_source_file>
/data/baiqing/PycharmProjects/Reinvent-master-3.2/result/LINK_invent/BTK/process_docking_weight1_custom_sum_contain_oxygen_bond_distance_aromatic_linkinvent_7_9_3/rearranged_h_0093.sdf

> <i_m_source_file_index>
43

> <r_mmod_Potential_Energy-OPLS-2005>
43549.578125

> <r_mmod_Stretch_Energy-OPLS-2005>
21459.48046875

> <r_mmod_Bend_Energy-OPLS-2005>
2098.39111328125

> <r_mmod_Torsional_Energy-OPLS-2005>
379.21240234375

> <r_mmod_Improper_Torsional_Energy-OPLS-2005>
18.6561260223389

> <r_mmod_Van_der_Waal_Energy-OPLS-2005>
5109.87451171875

> <r_mmod_Electrostatic_Energy-OPLS-2005>
-428.930206298828

> <r_mmod_Solvation_Energy-OPLS-2005>
-249.654647827148

> <b_mmod_Minimization_Converged-OPLS-2005>
0

> <r_mmod_RMS_Derivative-OPLS-2005>
7.12770366668701

$$$$
43
                    3D
 Structure written by MMmdl.
168176  0  0  1  0            999 V2000
  -30.7336  -14.4296   20.5215 C   0  0  0  0  0  0
  -30.3992  -12.2851   19.3798 C   0  0  0  0  0  0
  -29.4661  -12.5278   18.1779 C   0  0  0  0  0  0
  -27.9916  -12.3769   18.6005 C   0  0  0  0  0  0
  -27.6548  -13.2056   19.8687 C   0  0  2  0  0  0
  -28.7102  -12.9840   20.9775 C   0  0  0  0  0  0
  -25.2531  -13.8219   20.5660 C   0  0  0  0  0  0
  -24.1800  -13.0440   20.9195 C   0  0  0  0  0  0
  -24.6383  -11.6914   20.8728 C   0  0  0  0  0  0
  -23.9071  -10.4278   21.0361 C   0  0  0  0  0  0
  -24.3612   -9.4192   21.9133 C   0  0  0  0  0  0
  -23.6279   -8.2232   22.0701 C   0  0  0  0  0  0
  -22.4255   -8.0284   21.3515 C   0  0  0  0  0  0
  -21.9905   -9.0255   20.4607 C   0  0  0  0  0  0
  -22.7242  -10.2128   20.3010 C   0  0  0  0  0  0
  -21.6842   -6.0737   22.5269 C   0  0  0  0  0  0
  -21.4021   -6.5633   23.8212 C   0  0  0  0  0  0
  -21.3638   -5.6776   24.9162 C   0  0  0  0  0  0
  -21.6031   -4.3043   24.7209 C   0  0  0  0  0  0
  -21.8827   -3.8144   23.4328 C   0  0  0  0  0  0
  -21.9186   -4.6967   22.3389 C   0  0  0  0  0  0
  -22.7803  -13.5176   21.1870 C   0  0  0  0  0  0
  -22.1651   -4.2151   21.0961 F   0  0  0  0  0  0
  -21.5611   -3.4527   25.7721 F   0  0  0  0  0  0
  -30.0368  -13.2693   20.4098 N   0  0  0  0  0  0
  -26.2982  -12.9372   20.3376 N   0  0  0  0  0  0
  -25.9306  -11.6536   20.5782 N   0  0  0  0  0  0
  -22.0464  -12.8124   22.0443 N   0  0  0  0  0  0
  -25.4227  -15.1943   20.3997 N   0  0  0  0  0  0
  -31.8846  -14.5576   20.0997 O   0  0  0  0  0  0
  -21.6616   -6.8881   21.4234 O   0  0  0  0  0  0
  -22.3419  -14.5441   20.6703 O   0  0  0  0  0  0
  -24.6118  -31.8699   23.2127 C   0  0  0  0  0  0
  -25.9023  -32.4835   23.8414 C   0  0  1  0  0  0
  -27.2302  -27.4646   20.0844 C   0  0  0  0  0  0
  -25.5890  -33.8640   24.2333 N   0  0  0  0  0  0
  -23.3976  -30.4956   21.5544 C   0  0  2  0  0  0
  -24.8411  -28.9676   20.1151 C   0  0  0  0  0  0
  -22.7391  -29.4679   22.5015 C   0  0  0  0  0  0
  -18.0275  -28.1368   22.8503 C   0  0  0  0  0  0
  -24.1486  -36.7307   23.2637 C   0  0  0  0  0  0
  -25.9256  -30.8439   21.3631 C   0  0  0  0  0  0
  -26.0019  -29.4847   20.7029 C   0  0  0  0  0  0
  -27.2028  -28.7432   20.6797 C   0  0  0  0  0  0
  -26.0539  -26.9565   19.4906 C   0  0  0  0  0  0
  -24.8600  -27.7011   19.5069 C   0  0  0  0  0  0
  -23.6011  -29.8293   20.1693 C   0  0  0  0  0  0
  -25.4104  -36.3118   24.0340 C   0  0  1  0  0  0
  -20.5865  -28.3645   23.1329 C   0  0  2  0  0  0
  -20.6770  -26.9386   22.5421 C   0  0  0  0  0  0
  -19.5744  -26.6383   21.5221 C   0  0  0  0  0  0
  -18.1917  -26.7922   22.1622 C   0  0  0  0  0  0
  -19.1525  -28.8821   23.2917 C   0  0  0  0  0  0
  -18.9451  -30.1435   23.8914 C   0  0  0  0  0  0
  -17.6454  -30.6580   24.0556 C   0  0  0  0  0  0
  -25.9036  -34.9486   23.5131 C   0  0  0  0  0  0
  -16.5343  -29.9076   23.6340 C   0  0  0  0  0  0
  -16.7264  -28.6493   23.0360 C   0  0  0  0  0  0
  -26.4464  -31.6619   25.0740 C   0  0  0  0  0  0
  -25.3724  -31.3724   26.1481 C   0  0  0  0  0  0
  -27.0295  -30.3067   24.6113 C   0  0  0  0  0  0
  -27.6058  -32.4340   25.7474 C   0  0  0  0  0  0
  -27.5589  -37.1787   24.8459 C   0  0  0  0  0  0
  -21.4130  -29.3021   22.3737 N   0  0  0  0  0  0
  -26.4290  -37.3803   23.9420 N   0  0  0  0  0  0
  -24.6634  -31.0832   22.1014 N   0  0  0  0  0  0
  -23.4175  -28.8233   23.3062 O   0  0  0  0  0  0
  -28.3907  -26.7275   20.1039 O   0  0  0  0  0  0
  -26.5611  -34.8934   22.4702 O   0  0  0  0  0  0
  -23.5323  -32.1450   23.7530 O   0  0  0  0  0  0
  -32.0170  -21.3403   18.5661 C   0  0  0  0  0  0
  -30.4252  -20.1934   20.0006 C   0  0  0  0  0  0
  -31.1382  -21.3605   19.6619 C   0  0  0  0  0  0
  -32.2251  -20.1500   17.8413 C   0  0  0  0  0  0
  -30.6172  -18.9787   19.3004 C   0  0  0  0  0  0
  -31.5659  -18.9491   18.2321 C   0  0  0  0  0  0
  -33.1691  -20.2034   16.6461 C   0  0  0  0  0  0
  -31.9019  -17.6465   17.5129 C   0  0  0  0  0  0
  -29.0973  -16.9868   18.6046 C   0  0  0  0  0  0
  -30.9778  -22.6272   20.4890 C   0  0  0  0  0  0
  -29.7731  -23.4824   20.0628 C   0  0  0  0  0  0
  -29.5824  -24.7440   20.9284 C   0  0  0  0  0  0
  -30.5304  -16.8904   20.8068 C   0  0  0  0  0  0
  -28.2275  -25.4371   20.6905 C   0  0  0  0  0  0
  -29.7805  -17.7615   19.7568 C   0  0  1  0  0  0
  -30.0400  -15.5028   20.9303 N   0  0  0  0  0  0
  -31.4408  -12.3636   19.0619 H   0  0  0  0  0  0
  -30.2746  -11.2698   19.7607 H   0  0  0  0  0  0
  -29.7011  -11.8431   17.3614 H   0  0  0  0  0  0
  -29.6277  -13.5337   17.7864 H   0  0  0  0  0  0
  -27.7994  -11.3181   18.7791 H   0  0  0  0  0  0
  -27.3313  -12.6720   17.7828 H   0  0  0  0  0  0
  -27.6985  -14.2517   19.5755 H   0  0  0  0  0  0
  -28.6872  -11.9485   21.3230 H   0  0  0  0  0  0
  -28.4978  -13.5997   21.8514 H   0  0  0  0  0  0
  -25.2765   -9.5651   22.4686 H   0  0  0  0  0  0
  -23.9995   -7.4603   22.7376 H   0  0  0  0  0  0
  -21.0858   -8.8785   19.8879 H   0  0  0  0  0  0
  -22.3723  -10.9664   19.6106 H   0  0  0  0  0  0
  -21.2054   -7.6141   23.9732 H   0  0  0  0  0  0
  -21.1432   -6.0489   25.9065 H   0  0  0  0  0  0
  -22.0635   -2.7609   23.2824 H   0  0  0  0  0  0
  -22.4102  -11.9834   22.4898 H   0  0  0  0  0  0
  -21.1038  -13.1055   22.2576 H   0  0  0  0  0  0
  -24.6654  -15.8610   20.5125 H   0  0  0  0  0  0
  -26.2822  -15.6306   20.0905 H   0  0  0  0  0  0
  -26.7078  -32.5536   23.1169 H   0  0  0  0  0  0
  -25.0034  -33.9819   25.0471 H   0  0  0  0  0  0
  -22.6862  -31.3119   21.4181 H   0  0  0  0  0  0
  -23.3773  -35.9615   23.3302 H   0  0  0  0  0  0
  -24.3591  -36.8917   22.2055 H   0  0  0  0  0  0
  -23.7210  -37.6499   23.6651 H   0  0  0  0  0  0
  -26.0444  -31.6176   20.6034 H   0  0  0  0  0  0
  -26.8118  -30.8858   21.9839 H   0  0  0  0  0  0
  -28.1014  -29.1406   21.1306 H   0  0  0  0  0  0
  -26.0487  -25.9891   19.0097 H   0  0  0  0  0  0
  -23.9661  -27.2963   19.0534 H   0  0  0  0  0  0
  -23.6979  -30.6039   19.4079 H   0  0  0  0  0  0
  -22.7265  -29.2450   19.8793 H   0  0  0  0  0  0
  -25.1275  -36.1986   25.0834 H   0  0  0  0  0  0
  -20.9955  -28.3192   24.1448 H   0  0  0  0  0  0
  -20.5689  -26.2241   23.3597 H   0  0  0  0  0  0
  -21.6631  -26.7443   22.1185 H   0  0  0  0  0  0
  -19.6906  -25.6308   21.1217 H   0  0  0  0  0  0
  -19.6682  -27.3217   20.6773 H   0  0  0  0  0  0
  -17.4196  -26.6701   21.4015 H   0  0  0  0  0  0
  -18.0297  -26.0056   22.9006 H   0  0  0  0  0  0
  -19.7924  -30.7254   24.2281 H   0  0  0  0  0  0
  -17.5007  -31.6265   24.5142 H   0  0  0  0  0  0
  -15.5340  -30.2966   23.7673 H   0  0  0  0  0  0
  -15.8670  -28.0805   22.7073 H   0  0  0  0  0  0
  -24.5879  -30.7102   25.7804 H   0  0  0  0  0  0
  -24.8935  -32.2888   26.4952 H   0  0  0  0  0  0
  -25.8053  -30.8858   27.0226 H   0  0  0  0  0  0
  -26.2830  -29.6826   24.1180 H   0  0  0  0  0  0
  -27.4100  -29.7313   25.4562 H   0  0  0  0  0  0
  -27.8655  -30.4421   23.9241 H   0  0  0  0  0  0
  -27.2695  -33.3632   26.2091 H   0  0  0  0  0  0
  -28.3820  -32.6914   25.0254 H   0  0  0  0  0  0
  -28.0783  -31.8448   26.5342 H   0  0  0  0  0  0
  -28.2579  -38.0113   24.7576 H   0  0  0  0  0  0
  -28.1111  -36.2657   24.6193 H   0  0  0  0  0  0
  -27.2325  -37.1320   25.8862 H   0  0  0  0  0  0
  -20.9286  -29.8702   21.6923 H   0  0  0  0  0  0
  -26.0188  -38.2875   24.1465 H   0  0  0  0  0  0
  -32.5456  -22.2445   18.2914 H   0  0  0  0  0  0
  -29.7289  -20.2301   20.8277 H   0  0  0  0  0  0
  -33.4052  -21.2304   16.3625 H   0  0  0  0  0  0
  -32.7239  -19.7297   15.7706 H   0  0  0  0  0  0
  -34.1089  -19.7020   16.8768 H   0  0  0  0  0  0
  -32.8817  -17.6728   17.0391 H   0  0  0  0  0  0
  -31.1671  -17.4315   16.7358 H   0  0  0  0  0  0
  -31.9323  -16.8113   18.2135 H   0  0  0  0  0  0
  -29.7477  -16.2669   18.1111 H   0  0  0  0  0  0
  -28.7174  -17.6747   17.8484 H   0  0  0  0  0  0
  -28.2412  -16.4225   18.9701 H   0  0  0  0  0  0
  -31.8965  -23.2144   20.4434 H   0  0  0  0  0  0
  -30.8665  -22.3329   21.5328 H   0  0  0  0  0  0
  -28.8781  -22.8628   20.1307 H   0  0  0  0  0  0
  -29.8713  -23.7731   19.0158 H   0  0  0  0  0  0
  -30.4057  -25.4404   20.7642 H   0  0  0  0  0  0
  -29.6366  -24.4664   21.9814 H   0  0  0  0  0  0
  -31.5954  -16.9053   20.5725 H   0  0  0  0  0  0
  -30.4745  -17.3643   21.7867 H   0  0  0  0  0  0
  -27.5878  -24.8081   20.0706 H   0  0  0  0  0  0
  -27.7098  -25.5448   21.6460 H   0  0  0  0  0  0
  -28.9329  -18.1936   20.2921 H   0  0  0  0  0  0
  -29.0938  -15.3567   21.2467 H   0  0  0  0  0  0
  1 25  1  0  0  0
  1 30  2  0  0  0
  1 86  1  0  0  0
  2  3  1  0  0  0
  2 25  1  0  0  0
  2 87  1  0  0  0
  2 88  1  0  0  0
  3  4  1  0  0  0
  3 89  1  0  0  0
  3 90  1  0  0  0
  4  5  1  0  0  0
  4 91  1  0  0  0
  4 92  1  0  0  0
  5  6  1  0  0  0
  5 26  1  0  0  0
  5 93  1  0  0  0
  6 25  1  0  0  0
  6 94  1  0  0  0
  6 95  1  0  0  0
  7  8  2  0  0  0
  7 26  1  0  0  0
  7 29  1  0  0  0
  8  9  1  0  0  0
  8 22  1  0  0  0
  9 10  1  0  0  0
  9 27  2  0  0  0
 10 11  2  0  0  0
 10 15  1  0  0  0
 11 12  1  0  0  0
 11 96  1  0  0  0
 12 13  2  0  0  0
 12 97  1  0  0  0
 13 14  1  0  0  0
 13 31  1  0  0  0
 14 15  2  0  0  0
 14 98  1  0  0  0
 15 99  1  0  0  0
 16 17  2  0  0  0
 16 21  1  0  0  0
 16 31  1  0  0  0
 17 18  1  0  0  0
 17100  1  0  0  0
 18 19  2  0  0  0
 18101  1  0  0  0
 19 20  1  0  0  0
 19 24  1  0  0  0
 20 21  2  0  0  0
 20102  1  0  0  0
 21 23  1  0  0  0
 22 28  1  0  0  0
 22 32  2  0  0  0
 26 27  1  0  0  0
 28103  1  0  0  0
 28104  1  0  0  0
 29105  1  0  0  0
 29106  1  0  0  0
 33 34  1  0  0  0
 33 66  1  0  0  0
 33 70  2  0  0  0
 34 36  1  0  0  0
 34 59  1  0  0  0
 34107  1  0  0  0
 35 44  2  0  0  0
 35 45  1  0  0  0
 35 68  1  0  0  0
 36 56  1  0  0  0
 36108  1  0  0  0
 37 39  1  0  0  0
 37 47  1  0  0  0
 37 66  1  0  0  0
 37109  1  0  0  0
 38 43  2  0  0  0
 38 46  1  0  0  0
 38 47  1  0  0  0
 39 64  1  0  0  0
 39 67  2  0  0  0
 40 52  1  0  0  0
 40 53  2  0  0  0
 40 58  1  0  0  0
 41110  1  0  0  0
 41111  1  0  0  0
 41112  1  0  0  0
 41 48  1  0  0  0
 42 43  1  0  0  0
 42 66  1  0  0  0
 42113  1  0  0  0
 42114  1  0  0  0
 43 44  1  0  0  0
 44115  1  0  0  0
 45 46  2  0  0  0
 45116  1  0  0  0
 46117  1  0  0  0
 47118  1  0  0  0
 47119  1  0  0  0
 48 56  1  0  0  0
 48 65  1  0  0  0
 48120  1  0  0  0
 49 50  1  0  0  0
 49 53  1  0  0  0
 49 64  1  0  0  0
 49121  1  0  0  0
 50 51  1  0  0  0
 50122  1  0  0  0
 50123  1  0  0  0
 51 52  1  0  0  0
 51124  1  0  0  0
 51125  1  0  0  0
 52126  1  0  0  0
 52127  1  0  0  0
 53 54  1  0  0  0
 54 55  2  0  0  0
 54128  1  0  0  0
 55 57  1  0  0  0
 55129  1  0  0  0
 56 69  2  0  0  0
 57 58  2  0  0  0
 57130  1  0  0  0
 58131  1  0  0  0
 59 60  1  0  0  0
 59 61  1  0  0  0
 59 62  1  0  0  0
 60132  1  0  0  0
 60133  1  0  0  0
 60134  1  0  0  0
 61135  1  0  0  0
 61136  1  0  0  0
 61137  1  0  0  0
 62138  1  0  0  0
 62139  1  0  0  0
 62140  1  0  0  0
 63 65  1  0  0  0
 63141  1  0  0  0
 63142  1  0  0  0
 63143  1  0  0  0
 64144  1  0  0  0
 65145  1  0  0  0
 68 84  1  0  0  0
 71 73  2  0  0  0
 71 74  1  0  0  0
 71146  1  0  0  0
 72 73  1  0  0  0
 72 75  2  0  0  0
 72147  1  0  0  0
 73 80  1  0  0  0
 74 76  2  0  0  0
 74 77  1  0  0  0
 75 76  1  0  0  0
 75 85  1  0  0  0
 76 78  1  0  0  0
 77148  1  0  0  0
 77149  1  0  0  0
 77150  1  0  0  0
 78151  1  0  0  0
 78152  1  0  0  0
 78153  1  0  0  0
 79154  1  0  0  0
 79155  1  0  0  0
 79156  1  0  0  0
 79 85  1  0  0  0
 80 81  1  0  0  0
 80157  1  0  0  0
 80158  1  0  0  0
 81 82  1  0  0  0
 81159  1  0  0  0
 81160  1  0  0  0
 82 84  1  0  0  0
 82161  1  0  0  0
 82162  1  0  0  0
 83 85  1  0  0  0
 83 86  1  0  0  0
 83163  1  0  0  0
 83164  1  0  0  0
 84165  1  0  0  0
 84166  1  0  0  0
 85167  1  0  0  0
 86168  1  0  0  0
M  ISO  4   1 100  68 101  84 101  86 100
M  END
> <chiral flag>
0

> <version>
0

> <s_m_source_file>
/data/baiqing/PycharmProjects/Reinvent-master-3.2/result/LINK_invent/BTK/process_docking_weight1_custom_sum_contain_oxygen_bond_distance_aromatic_linkinvent_7_9_3/rearranged_h_0093.sdf

> <i_m_source_file_index>
44

> <r_mmod_Potential_Energy-OPLS-2005>
-80.2311630249023

> <r_mmod_Stretch_Energy-OPLS-2005>
37.4111099243164

> <r_mmod_Bend_Energy-OPLS-2005>
96.7480087280273

> <r_mmod_Torsional_Energy-OPLS-2005>
242.7900390625

> <r_mmod_Improper_Torsional_Energy-OPLS-2005>
4.51585865020752

> <r_mmod_Van_der_Waal_Energy-OPLS-2005>
158.863021850586

> <r_mmod_Electrostatic_Energy-OPLS-2005>
-430.676086425781

> <r_mmod_Solvation_Energy-OPLS-2005>
-203.627960205078

> <b_mmod_Minimization_Converged-OPLS-2005>
0

> <r_mmod_RMS_Derivative-OPLS-2005>
3.32823061943054

$$$$
44
                    3D
 Structure written by MMmdl.
155162  0  0  1  0            999 V2000
  -30.4703  -15.2168   20.4835 C   0  0  0  0  0  0
  -30.4374  -12.7907   19.5474 C   0  0  0  0  0  0
  -29.5356  -12.5637   18.3021 C   0  0  0  0  0  0
  -28.0874  -12.2664   18.7231 C   0  0  0  0  0  0
  -27.6090  -13.2533   19.8096 C   0  0  2  0  0  0
  -28.6215  -13.3903   20.9614 C   0  0  0  0  0  0
  -25.2384  -13.8195   20.5623 C   0  0  0  0  0  0
  -24.1697  -13.0401   20.9177 C   0  0  0  0  0  0
  -24.6347  -11.6911   20.8713 C   0  0  0  0  0  0
  -23.9047  -10.4277   21.0398 C   0  0  0  0  0  0
  -24.3601   -9.4195   21.9181 C   0  0  0  0  0  0
  -23.6276   -8.2213   22.0760 C   0  0  0  0  0  0
  -22.4260   -8.0240   21.3525 C   0  0  0  0  0  0
  -21.9892   -9.0219   20.4648 C   0  0  0  0  0  0
  -22.7212  -10.2111   20.3048 C   0  0  0  0  0  0
  -21.6844   -6.0717   22.5261 C   0  0  0  0  0  0
  -21.4019   -6.5644   23.8184 C   0  0  0  0  0  0
  -21.3667   -5.6810   24.9157 C   0  0  0  0  0  0
  -21.6027   -4.3059   24.7223 C   0  0  0  0  0  0
  -21.8822   -3.8150   23.4346 C   0  0  0  0  0  0
  -21.9185   -4.6958   22.3398 C   0  0  0  0  0  0
  -22.7749  -13.5180   21.1869 C   0  0  0  0  0  0
  -22.1646   -4.2139   21.0974 F   0  0  0  0  0  0
  -21.5638   -3.4543   25.7752 F   0  0  0  0  0  0
  -29.8811  -13.9159   20.3972 N   0  0  0  0  0  0
  -26.2748  -12.9425   20.3023 N   0  0  0  0  0  0
  -25.9252  -11.6558   20.5609 N   0  0  0  0  0  0
  -22.0448  -12.8114   22.0464 N   0  0  0  0  0  0
  -25.4149  -15.1920   20.4146 N   0  0  0  0  0  0
  -31.6435  -15.2262   20.0825 O   0  0  0  0  0  0
  -21.6612   -6.8840   21.4216 O   0  0  0  0  0  0
  -22.3393  -14.5447   20.6718 O   0  0  0  0  0  0
  -24.6540  -31.8268   23.1731 C   0  0  0  0  0  0
  -25.9206  -32.4611   23.8207 C   0  0  1  0  0  0
  -27.2711  -26.9894   20.2006 C   0  0  0  0  0  0
  -25.5899  -33.8419   24.2131 N   0  0  0  0  0  0
  -23.4720  -30.4303   21.5189 C   0  0  2  0  0  0
  -24.9425  -28.8157   20.1180 C   0  0  0  0  0  0
  -22.7678  -29.4413   22.4845 C   0  0  0  0  0  0
  -18.0298  -28.1344   22.8431 C   0  0  0  0  0  0
  -24.1439  -36.7279   23.2627 C   0  0  0  0  0  0
  -26.0330  -30.6538   21.3910 C   0  0  0  0  0  0
  -26.1179  -29.2404   20.7522 C   0  0  0  0  0  0
  -27.2722  -28.3470   20.7708 C   0  0  0  0  0  0
  -26.0696  -26.7037   19.5114 C   0  0  0  0  0  0
  -24.9405  -27.5648   19.4793 C   0  0  0  0  0  0
  -23.7147  -29.7206   20.1526 C   0  0  0  0  0  0
  -25.4081  -36.3019   24.0296 C   0  0  1  0  0  0
  -20.5922  -28.3691   23.1150 C   0  0  2  0  0  0
  -20.6780  -26.9382   22.5327 C   0  0  0  0  0  0
  -19.5768  -26.6330   21.5120 C   0  0  0  0  0  0
  -18.1934  -26.7867   22.1543 C   0  0  0  0  0  0
  -19.1563  -28.8849   23.2744 C   0  0  0  0  0  0
  -18.9476  -30.1462   23.8778 C   0  0  0  0  0  0
  -17.6488  -30.6560   24.0517 C   0  0  0  0  0  0
  -25.9047  -34.9357   23.5037 C   0  0  0  0  0  0
  -16.5375  -29.9042   23.6327 C   0  0  0  0  0  0
  -16.7283  -28.6448   23.0348 C   0  0  0  0  0  0
  -26.4462  -31.6573   25.0711 C   0  0  0  0  0  0
  -25.3607  -31.3779   26.1415 C   0  0  0  0  0  0
  -27.0421  -30.2991   24.6373 C   0  0  0  0  0  0
  -27.5982  -32.4405   25.7460 C   0  0  0  0  0  0
  -27.5555  -37.1732   24.8442 C   0  0  0  0  0  0
  -21.4374  -29.3012   22.3599 N   0  0  0  0  0  0
  -26.4231  -37.3757   23.9429 N   0  0  0  0  0  0
  -24.7400  -30.9948   22.0833 N   0  0  0  0  0  0
  -23.4243  -28.7981   23.3077 O   0  0  0  0  0  0
  -28.3211  -25.9525   20.3238 O   0  0  0  0  0  0
  -26.5646  -34.8851   22.4640 O   0  0  0  0  0  0
  -23.5633  -32.1243   23.6854 O   0  0  0  0  0  0
  -29.0829  -23.0240   22.2168 C   0  0  0  0  0  0
  -30.6307  -23.3244   20.2951 C   0  0  0  0  0  0
  -29.0904  -16.5863   22.0867 C   0  0  0  0  0  0
  -29.5341  -19.6711   20.9062 C   0  0  0  0  0  0
  -29.0137  -21.2315   20.2021 C   0  0  0  0  0  0
  -29.8465  -18.0509   20.1973 C   0  0  0  0  0  0
  -28.1906  -24.3419   20.1313 C   0  0  0  0  0  0
  -29.1722  -22.9537   20.6742 C   0  0  0  0  0  0
  -29.7765  -16.4991   20.7914 N   0  0  0  0  0  0
  -31.4489  -13.0085   19.1982 H   0  0  0  0  0  0
  -30.5257  -11.8746   20.1335 H   0  0  0  0  0  0
  -29.9228  -11.7445   17.6916 H   0  0  0  0  0  0
  -29.5560  -13.4559   17.6730 H   0  0  0  0  0  0
  -28.0649  -11.2539   19.1270 H   0  0  0  0  0  0
  -27.4206  -12.2654   17.8603 H   0  0  0  0  0  0
  -27.5406  -14.2204   19.3105 H   0  0  0  0  0  0
  -28.7688  -12.4369   21.4719 H   0  0  0  0  0  0
  -28.1837  -14.0608   21.6906 H   0  0  0  0  0  0
  -25.2742   -9.5666   22.4750 H   0  0  0  0  0  0
  -23.9988   -7.4615   22.7472 H   0  0  0  0  0  0
  -21.0824   -8.8703   19.8965 H   0  0  0  0  0  0
  -22.3632  -10.9625   19.6146 H   0  0  0  0  0  0
  -21.2009   -7.6143   23.9674 H   0  0  0  0  0  0
  -21.1491   -6.0552   25.9056 H   0  0  0  0  0  0
  -22.0598   -2.7608   23.2855 H   0  0  0  0  0  0
  -22.4116  -11.9781   22.4800 H   0  0  0  0  0  0
  -21.1061  -13.1097   22.2714 H   0  0  0  0  0  0
  -24.6694  -15.8642   20.5476 H   0  0  0  0  0  0
  -26.2866  -15.6205   20.1288 H   0  0  0  0  0  0
  -26.7314  -32.5197   23.0991 H   0  0  0  0  0  0
  -25.0074  -33.9463   25.0298 H   0  0  0  0  0  0
  -22.7816  -31.2584   21.3406 H   0  0  0  0  0  0
  -23.3696  -35.9607   23.3213 H   0  0  0  0  0  0
  -24.3538  -36.9045   22.2063 H   0  0  0  0  0  0
  -23.7220  -37.6428   23.6813 H   0  0  0  0  0  0
  -26.1672  -31.3797   20.5912 H   0  0  0  0  0  0
  -26.9107  -30.7484   22.0210 H   0  0  0  0  0  0
  -28.1609  -28.6640   21.2983 H   0  0  0  0  0  0
  -25.9896  -25.7447   19.0187 H   0  0  0  0  0  0
  -24.0479  -27.2247   18.9703 H   0  0  0  0  0  0
  -23.8439  -30.4689   19.3688 H   0  0  0  0  0  0
  -22.8370  -29.1411   19.8628 H   0  0  0  0  0  0
  -25.1263  -36.1795   25.0791 H   0  0  0  0  0  0
  -20.9957  -28.3225   24.1310 H   0  0  0  0  0  0
  -20.5560  -26.2337   23.3559 H   0  0  0  0  0  0
  -21.6640  -26.7286   22.1214 H   0  0  0  0  0  0
  -19.6906  -25.6220   21.1201 H   0  0  0  0  0  0
  -19.6688  -27.3068   20.6590 H   0  0  0  0  0  0
  -17.4225  -26.6545   21.3948 H   0  0  0  0  0  0
  -18.0389  -25.9998   22.8955 H   0  0  0  0  0  0
  -19.7958  -30.7272   24.2102 H   0  0  0  0  0  0
  -17.5046  -31.6231   24.5121 H   0  0  0  0  0  0
  -15.5375  -30.2906   23.7777 H   0  0  0  0  0  0
  -15.8651  -28.0767   22.7134 H   0  0  0  0  0  0
  -24.5761  -30.7146   25.7754 H   0  0  0  0  0  0
  -24.8736  -32.2941   26.4742 H   0  0  0  0  0  0
  -25.7748  -30.9010   27.0301 H   0  0  0  0  0  0
  -26.3116  -29.6663   24.1338 H   0  0  0  0  0  0
  -27.4077  -29.7341   25.4962 H   0  0  0  0  0  0
  -27.8961  -30.4317   23.9742 H   0  0  0  0  0  0
  -27.2623  -33.3860   26.1756 H   0  0  0  0  0  0
  -28.3858  -32.6737   25.0277 H   0  0  0  0  0  0
  -28.0617  -31.8727   26.5567 H   0  0  0  0  0  0
  -28.2482  -38.0108   24.7663 H   0  0  0  0  0  0
  -28.1147  -36.2649   24.6098 H   0  0  0  0  0  0
  -27.2294  -37.1218   25.8839 H   0  0  0  0  0  0
  -20.9716  -29.8813   21.6767 H   0  0  0  0  0  0
  -26.0064  -38.2783   24.1561 H   0  0  0  0  0  0
  -29.8350  -22.4068   22.7183 H   0  0  0  0  0  0
  -28.1005  -22.7263   22.5861 H   0  0  0  0  0  0
  -29.2411  -24.0480   22.5567 H   0  0  0  0  0  0
  -31.3653  -22.8289   20.9353 H   0  0  0  0  0  0
  -30.8172  -24.3989   20.3781 H   0  0  0  0  0  0
  -30.8780  -23.0431   19.2694 H   0  0  0  0  0  0
  -28.0778  -16.9772   21.9744 H   0  0  0  0  0  0
  -29.6344  -17.2590   22.7513 H   0  0  0  0  0  0
  -29.0348  -15.6476   22.6348 H   0  0  0  0  0  0
  -28.8510  -19.5009   21.7379 H   0  0  0  0  0  0
  -30.4656  -19.9152   21.4149 H   0  0  0  0  0  0
  -27.9405  -21.0996   20.0425 H   0  0  0  0  0  0
  -29.4048  -21.1956   19.1858 H   0  0  0  0  0  0
  -30.8538  -18.1149   19.7757 H   0  0  0  0  0  0
  -29.2072  -18.0043   19.3213 H   0  0  0  0  0  0
  -27.1816  -24.1177   20.4878 H   0  0  0  0  0  0
  -28.1328  -24.2315   19.0499 H   0  0  0  0  0  0
  1 25  1  0  0  0
  1 30  2  0  0  0
  1 79  1  0  0  0
  2  3  1  0  0  0
  2 25  1  0  0  0
  2 80  1  0  0  0
  2 81  1  0  0  0
  3  4  1  0  0  0
  3 82  1  0  0  0
  3 83  1  0  0  0
  4  5  1  0  0  0
  4 84  1  0  0  0
  4 85  1  0  0  0
  5  6  1  0  0  0
  5 26  1  0  0  0
  5 86  1  0  0  0
  6 25  1  0  0  0
  6 87  1  0  0  0
  6 88  1  0  0  0
  7  8  2  0  0  0
  7 26  1  0  0  0
  7 29  1  0  0  0
  8  9  1  0  0  0
  8 22  1  0  0  0
  9 10  1  0  0  0
  9 27  2  0  0  0
 10 11  2  0  0  0
 10 15  1  0  0  0
 11 12  1  0  0  0
 11 89  1  0  0  0
 12 13  2  0  0  0
 12 90  1  0  0  0
 13 14  1  0  0  0
 13 31  1  0  0  0
 14 15  2  0  0  0
 14 91  1  0  0  0
 15 92  1  0  0  0
 16 17  2  0  0  0
 16 21  1  0  0  0
 16 31  1  0  0  0
 17 18  1  0  0  0
 17 93  1  0  0  0
 18 19  2  0  0  0
 18 94  1  0  0  0
 19 20  1  0  0  0
 19 24  1  0  0  0
 20 21  2  0  0  0
 20 95  1  0  0  0
 21 23  1  0  0  0
 22 28  1  0  0  0
 22 32  2  0  0  0
 26 27  1  0  0  0
 28 96  1  0  0  0
 28 97  1  0  0  0
 29 98  1  0  0  0
 29 99  1  0  0  0
 33 34  1  0  0  0
 33 66  1  0  0  0
 33 70  2  0  0  0
 34 36  1  0  0  0
 34 59  1  0  0  0
 34100  1  0  0  0
 35 44  2  0  0  0
 35 45  1  0  0  0
 35 68  1  0  0  0
 36 56  1  0  0  0
 36101  1  0  0  0
 37 39  1  0  0  0
 37 47  1  0  0  0
 37 66  1  0  0  0
 37102  1  0  0  0
 38 43  2  0  0  0
 38 46  1  0  0  0
 38 47  1  0  0  0
 39 64  1  0  0  0
 39 67  2  0  0  0
 40 52  1  0  0  0
 40 53  2  0  0  0
 40 58  1  0  0  0
 41103  1  0  0  0
 41104  1  0  0  0
 41105  1  0  0  0
 41 48  1  0  0  0
 42 43  1  0  0  0
 42 66  1  0  0  0
 42106  1  0  0  0
 42107  1  0  0  0
 43 44  1  0  0  0
 44108  1  0  0  0
 45 46  2  0  0  0
 45109  1  0  0  0
 46110  1  0  0  0
 47111  1  0  0  0
 47112  1  0  0  0
 48 56  1  0  0  0
 48 65  1  0  0  0
 48113  1  0  0  0
 49 50  1  0  0  0
 49 53  1  0  0  0
 49 64  1  0  0  0
 49114  1  0  0  0
 50 51  1  0  0  0
 50115  1  0  0  0
 50116  1  0  0  0
 51 52  1  0  0  0
 51117  1  0  0  0
 51118  1  0  0  0
 52119  1  0  0  0
 52120  1  0  0  0
 53 54  1  0  0  0
 54 55  2  0  0  0
 54121  1  0  0  0
 55 57  1  0  0  0
 55122  1  0  0  0
 56 69  2  0  0  0
 57 58  2  0  0  0
 57123  1  0  0  0
 58124  1  0  0  0
 59 60  1  0  0  0
 59 61  1  0  0  0
 59 62  1  0  0  0
 60125  1  0  0  0
 60126  1  0  0  0
 60127  1  0  0  0
 61128  1  0  0  0
 61129  1  0  0  0
 61130  1  0  0  0
 62131  1  0  0  0
 62132  1  0  0  0
 62133  1  0  0  0
 63 65  1  0  0  0
 63134  1  0  0  0
 63135  1  0  0  0
 63136  1  0  0  0
 64137  1  0  0  0
 65138  1  0  0  0
 68 77  1  0  0  0
 71139  1  0  0  0
 71140  1  0  0  0
 71141  1  0  0  0
 71 78  1  0  0  0
 72 78  1  0  0  0
 72142  1  0  0  0
 72143  1  0  0  0
 72144  1  0  0  0
 73 79  1  0  0  0
 73145  1  0  0  0
 73146  1  0  0  0
 73147  1  0  0  0
 74 75  1  0  0  0
 74 76  1  0  0  0
 74148  1  0  0  0
 74149  1  0  0  0
 75 78  1  0  0  0
 75150  1  0  0  0
 75151  1  0  0  0
 76 79  1  0  0  0
 76152  1  0  0  0
 76153  1  0  0  0
 77 78  1  0  0  0
 77154  1  0  0  0
 77155  1  0  0  0
M  ISO  4   1 100  68 101  77 101  79 100
M  END
> <chiral flag>
0

> <version>
0

> <s_m_source_file>
/data/baiqing/PycharmProjects/Reinvent-master-3.2/result/LINK_invent/BTK/process_docking_weight1_custom_sum_contain_oxygen_bond_distance_aromatic_linkinvent_7_9_3/rearranged_h_0093.sdf

> <i_m_source_file_index>
45

> <r_mmod_Potential_Energy-OPLS-2005>
1341.28137207031

> <r_mmod_Stretch_Energy-OPLS-2005>
590.368041992188

> <r_mmod_Bend_Energy-OPLS-2005>
427.586608886719

> <r_mmod_Torsional_Energy-OPLS-2005>
297.47509765625

> <r_mmod_Improper_Torsional_Energy-OPLS-2005>
4.863037109375

> <r_mmod_Van_der_Waal_Energy-OPLS-2005>
110.468322753906

> <r_mmod_Electrostatic_Energy-OPLS-2005>
-286.537445068359

> <r_mmod_Solvation_Energy-OPLS-2005>
-191.060638427734

> <b_mmod_Minimization_Converged-OPLS-2005>
0

> <r_mmod_RMS_Derivative-OPLS-2005>
7.85782432556152

$$$$
45
                    3D
 Structure written by MMmdl.
159167  0  0  1  0            999 V2000
  -30.6279  -14.6550   20.4861 C   0  0  0  0  0  0
  -30.4281  -12.4030   19.4493 C   0  0  0  0  0  0
  -29.5025  -12.5046   18.2190 C   0  0  0  0  0  0
  -28.0242  -12.3450   18.6305 C   0  0  0  0  0  0
  -27.6435  -13.2227   19.8538 C   0  0  2  0  0  0
  -28.6897  -13.1052   20.9829 C   0  0  0  0  0  0
  -25.2514  -13.8188   20.5692 C   0  0  0  0  0  0
  -24.1799  -13.0436   20.9214 C   0  0  0  0  0  0
  -24.6373  -11.6912   20.8748 C   0  0  0  0  0  0
  -23.9046  -10.4291   21.0396 C   0  0  0  0  0  0
  -24.3602   -9.4209   21.9171 C   0  0  0  0  0  0
  -23.6290   -8.2238   22.0742 C   0  0  0  0  0  0
  -22.4277   -8.0264   21.3536 C   0  0  0  0  0  0
  -21.9898   -9.0231   20.4640 C   0  0  0  0  0  0
  -22.7213  -10.2118   20.3045 C   0  0  0  0  0  0
  -21.6852   -6.0721   22.5273 C   0  0  0  0  0  0
  -21.4010   -6.5627   23.8206 C   0  0  0  0  0  0
  -21.3670   -5.6786   24.9174 C   0  0  0  0  0  0
  -21.6049   -4.3049   24.7228 C   0  0  0  0  0  0
  -21.8821   -3.8133   23.4355 C   0  0  0  0  0  0
  -21.9191   -4.6948   22.3406 C   0  0  0  0  0  0
  -22.7821  -13.5213   21.1878 C   0  0  0  0  0  0
  -22.1656   -4.2131   21.0985 F   0  0  0  0  0  0
  -21.5639   -3.4533   25.7747 F   0  0  0  0  0  0
  -29.9968  -13.4415   20.4053 N   0  0  0  0  0  0
  -26.2936  -12.9377   20.3288 N   0  0  0  0  0  0
  -25.9296  -11.6526   20.5739 N   0  0  0  0  0  0
  -22.0468  -12.8208   22.0437 N   0  0  0  0  0  0
  -25.4216  -15.1914   20.4118 N   0  0  0  0  0  0
  -31.8143  -14.7757   20.1710 O   0  0  0  0  0  0
  -21.6646   -6.8855   21.4233 O   0  0  0  0  0  0
  -22.3506  -14.5510   20.6708 O   0  0  0  0  0  0
  -24.6228  -31.8601   23.2010 C   0  0  0  0  0  0
  -25.9082  -32.4785   23.8337 C   0  0  1  0  0  0
  -27.2191  -27.3249   20.1276 C   0  0  0  0  0  0
  -25.5898  -33.8585   24.2266 N   0  0  0  0  0  0
  -23.4156  -30.4813   21.5446 C   0  0  2  0  0  0
  -24.8620  -28.9294   20.1167 C   0  0  0  0  0  0
  -22.7443  -29.4622   22.4949 C   0  0  0  0  0  0
  -18.0277  -28.1381   22.8489 C   0  0  0  0  0  0
  -24.1486  -36.7300   23.2634 C   0  0  0  0  0  0
  -25.9539  -30.7949   21.3666 C   0  0  0  0  0  0
  -26.0306  -29.4199   20.7146 C   0  0  0  0  0  0
  -27.2167  -28.6301   20.7055 C   0  0  0  0  0  0
  -26.0317  -26.8736   19.5195 C   0  0  0  0  0  0
  -24.8632  -27.6613   19.5109 C   0  0  0  0  0  0
  -23.6293  -29.8098   20.1621 C   0  0  0  0  0  0
  -25.4113  -36.3089   24.0325 C   0  0  1  0  0  0
  -20.5873  -28.3674   23.1296 C   0  0  2  0  0  0
  -20.6769  -26.9401   22.5417 C   0  0  0  0  0  0
  -19.5753  -26.6377   21.5214 C   0  0  0  0  0  0
  -18.1928  -26.7923   22.1622 C   0  0  0  0  0  0
  -19.1525  -28.8843   23.2887 C   0  0  0  0  0  0
  -18.9454  -30.1444   23.8905 C   0  0  0  0  0  0
  -17.6456  -30.6589   24.0557 C   0  0  0  0  0  0
  -25.9046  -34.9459   23.5102 C   0  0  0  0  0  0
  -16.5347  -29.9087   23.6325 C   0  0  0  0  0  0
  -16.7261  -28.6499   23.0356 C   0  0  0  0  0  0
  -26.4475  -31.6590   25.0698 C   0  0  0  0  0  0
  -25.3701  -31.3734   26.1414 C   0  0  0  0  0  0
  -27.0313  -30.3018   24.6135 C   0  0  0  0  0  0
  -27.6032  -32.4316   25.7484 C   0  0  0  0  0  0
  -27.5581  -37.1802   24.8457 C   0  0  0  0  0  0
  -21.4158  -29.3031   22.3693 N   0  0  0  0  0  0
  -26.4292  -37.3781   23.9401 N   0  0  0  0  0  0
  -24.6837  -31.0620   22.0958 N   0  0  0  0  0  0
  -23.4173  -28.8176   23.3034 O   0  0  0  0  0  0
  -28.3402  -26.4922   20.1132 O   0  0  0  0  0  0
  -26.5630  -34.8923   22.4676 O   0  0  0  0  0  0
  -23.5400  -32.1397   23.7351 O   0  0  0  0  0  0
  -31.3816  -21.6198   21.4034 C   0  0  0  0  0  0
  -31.1070  -20.2516   20.7579 C   0  0  0  0  0  0
  -30.6237  -22.7574   20.7002 C   0  0  0  0  0  0
  -28.7869  -21.0743   20.1615 C   0  0  0  0  0  0
  -29.6163  -19.8792   20.8344 C   0  0  1  0  0  0
  -29.0933  -22.5555   20.6923 C   0  0  2  0  0  0
  -29.3511  -18.3742   20.3374 C   0  0  0  0  0  0
  -28.4092  -23.8109   19.9585 C   0  0  0  0  0  0
  -30.2697  -17.1963   20.9190 C   0  0  0  0  0  0
  -28.2470  -25.1749   20.7779 C   0  0  0  0  0  0
  -29.8467  -15.7568   20.7385 N   0  0  0  0  0  0
  -31.4698  -12.5258   19.1475 H   0  0  0  0  0  0
  -30.3566  -11.4141   19.9043 H   0  0  0  0  0  0
  -29.7724  -11.7453   17.4840 H   0  0  0  0  0  0
  -29.6472  -13.4685   17.7288 H   0  0  0  0  0  0
  -27.8593  -11.2934   18.8648 H   0  0  0  0  0  0
  -27.3714  -12.5722   17.7864 H   0  0  0  0  0  0
  -27.6512  -14.2545   19.5030 H   0  0  0  0  0  0
  -28.7070  -12.0942   21.3917 H   0  0  0  0  0  0
  -28.4399  -13.7636   21.8160 H   0  0  0  0  0  0
  -25.2743   -9.5697   22.4747 H   0  0  0  0  0  0
  -24.0006   -7.4632   22.7461 H   0  0  0  0  0  0
  -21.0823   -8.8727   19.8958 H   0  0  0  0  0  0
  -22.3642  -10.9646   19.6156 H   0  0  0  0  0  0
  -21.1987   -7.6135   23.9701 H   0  0  0  0  0  0
  -21.1503   -6.0522   25.9078 H   0  0  0  0  0  0
  -22.0594   -2.7594   23.2863 H   0  0  0  0  0  0
  -22.4081  -11.9868   22.4823 H   0  0  0  0  0  0
  -21.1070  -13.1211   22.2627 H   0  0  0  0  0  0
  -24.6523  -15.8435   20.5203 H   0  0  0  0  0  0
  -26.2637  -15.6328   20.0648 H   0  0  0  0  0  0
  -26.7144  -32.5461   23.1082 H   0  0  0  0  0  0
  -25.0000  -33.9734   25.0380 H   0  0  0  0  0  0
  -22.7082  -31.3002   21.3996 H   0  0  0  0  0  0
  -23.3754  -35.9625   23.3297 H   0  0  0  0  0  0
  -24.3579  -36.8925   22.2048 H   0  0  0  0  0  0
  -23.7233  -37.6499   23.6663 H   0  0  0  0  0  0
  -26.0736  -31.5565   20.5947 H   0  0  0  0  0  0
  -26.8394  -30.8528   21.9889 H   0  0  0  0  0  0
  -28.1188  -29.0049   21.1686 H   0  0  0  0  0  0
  -26.0055  -25.8976   19.0553 H   0  0  0  0  0  0
  -23.9653  -27.2775   19.0459 H   0  0  0  0  0  0
  -23.7440  -30.5821   19.4007 H   0  0  0  0  0  0
  -22.7496  -29.2357   19.8655 H   0  0  0  0  0  0
  -25.1297  -36.1948   25.0819 H   0  0  0  0  0  0
  -20.9962  -28.3248   24.1415 H   0  0  0  0  0  0
  -20.5672  -26.2278   23.3606 H   0  0  0  0  0  0
  -21.6639  -26.7439   22.1211 H   0  0  0  0  0  0
  -19.6918  -25.6286   21.1246 H   0  0  0  0  0  0
  -19.6707  -27.3178   20.6741 H   0  0  0  0  0  0
  -17.4198  -26.6653   21.4026 H   0  0  0  0  0  0
  -18.0342  -26.0068   22.9023 H   0  0  0  0  0  0
  -19.7931  -30.7250   24.2285 H   0  0  0  0  0  0
  -17.5017  -31.6276   24.5143 H   0  0  0  0  0  0
  -15.5352  -30.2998   23.7649 H   0  0  0  0  0  0
  -15.8655  -28.0820   22.7085 H   0  0  0  0  0  0
  -24.5864  -30.7108   25.7727 H   0  0  0  0  0  0
  -24.8903  -32.2908   26.4836 H   0  0  0  0  0  0
  -25.8000  -30.8895   27.0189 H   0  0  0  0  0  0
  -26.2888  -29.6788   24.1131 H   0  0  0  0  0  0
  -27.3992  -29.7254   25.4635 H   0  0  0  0  0  0
  -27.8760  -30.4321   23.9364 H   0  0  0  0  0  0
  -27.2642  -33.3607   26.2076 H   0  0  0  0  0  0
  -28.3845  -32.6888   25.0320 H   0  0  0  0  0  0
  -28.0691  -31.8423   26.5391 H   0  0  0  0  0  0
  -28.2591  -38.0108   24.7516 H   0  0  0  0  0  0
  -28.1089  -36.2640   24.6277 H   0  0  0  0  0  0
  -27.2295  -37.1432   25.8857 H   0  0  0  0  0  0
  -20.9324  -29.8741   21.6902 H   0  0  0  0  0  0
  -26.0181  -38.2855   24.1422 H   0  0  0  0  0  0
  -32.4525  -21.8252   21.3697 H   0  0  0  0  0  0
  -31.1116  -21.5912   22.4601 H   0  0  0  0  0  0
  -31.7142  -19.5027   21.2666 H   0  0  0  0  0  0
  -31.4321  -20.2579   19.7165 H   0  0  0  0  0  0
  -30.9853  -22.8396   19.6740 H   0  0  0  0  0  0
  -30.8748  -23.7036   21.1811 H   0  0  0  0  0  0
  -27.7227  -20.8730   20.2906 H   0  0  0  0  0  0
  -28.9604  -21.0500   19.0852 H   0  0  0  0  0  0
  -29.3536  -19.8842   21.8938 H   0  0  0  0  0  0
  -28.7483  -22.5759   21.7277 H   0  0  0  0  0  0
  -29.4253  -18.3535   19.2491 H   0  0  0  0  0  0
  -28.3105  -18.1372   20.5602 H   0  0  0  0  0  0
  -27.4178  -23.5153   19.6145 H   0  0  0  0  0  0
  -28.9684  -24.0233   19.0465 H   0  0  0  0  0  0
  -30.3685  -17.3458   21.9944 H   0  0  0  0  0  0
  -31.2771  -17.3159   20.5169 H   0  0  0  0  0  0
  -29.0324  -25.1963   21.5332 H   0  0  0  0  0  0
  -27.3237  -25.1199   21.3581 H   0  0  0  0  0  0
  -28.8709  -15.5594   20.9014 H   0  0  0  0  0  0
  1 25  1  0  0  0
  1 30  2  0  0  0
  1 81  1  0  0  0
  2  3  1  0  0  0
  2 25  1  0  0  0
  2 82  1  0  0  0
  2 83  1  0  0  0
  3  4  1  0  0  0
  3 84  1  0  0  0
  3 85  1  0  0  0
  4  5  1  0  0  0
  4 86  1  0  0  0
  4 87  1  0  0  0
  5  6  1  0  0  0
  5 26  1  0  0  0
  5 88  1  0  0  0
  6 25  1  0  0  0
  6 89  1  0  0  0
  6 90  1  0  0  0
  7  8  2  0  0  0
  7 26  1  0  0  0
  7 29  1  0  0  0
  8  9  1  0  0  0
  8 22  1  0  0  0
  9 10  1  0  0  0
  9 27  2  0  0  0
 10 11  2  0  0  0
 10 15  1  0  0  0
 11 12  1  0  0  0
 11 91  1  0  0  0
 12 13  2  0  0  0
 12 92  1  0  0  0
 13 14  1  0  0  0
 13 31  1  0  0  0
 14 15  2  0  0  0
 14 93  1  0  0  0
 15 94  1  0  0  0
 16 17  2  0  0  0
 16 21  1  0  0  0
 16 31  1  0  0  0
 17 18  1  0  0  0
 17 95  1  0  0  0
 18 19  2  0  0  0
 18 96  1  0  0  0
 19 20  1  0  0  0
 19 24  1  0  0  0
 20 21  2  0  0  0
 20 97  1  0  0  0
 21 23  1  0  0  0
 22 28  1  0  0  0
 22 32  2  0  0  0
 26 27  1  0  0  0
 28 98  1  0  0  0
 28 99  1  0  0  0
 29100  1  0  0  0
 29101  1  0  0  0
 33 34  1  0  0  0
 33 66  1  0  0  0
 33 70  2  0  0  0
 34 36  1  0  0  0
 34 59  1  0  0  0
 34102  1  0  0  0
 35 44  2  0  0  0
 35 45  1  0  0  0
 35 68  1  0  0  0
 36 56  1  0  0  0
 36103  1  0  0  0
 37 39  1  0  0  0
 37 47  1  0  0  0
 37 66  1  0  0  0
 37104  1  0  0  0
 38 43  2  0  0  0
 38 46  1  0  0  0
 38 47  1  0  0  0
 39 64  1  0  0  0
 39 67  2  0  0  0
 40 52  1  0  0  0
 40 53  2  0  0  0
 40 58  1  0  0  0
 41105  1  0  0  0
 41106  1  0  0  0
 41107  1  0  0  0
 41 48  1  0  0  0
 42 43  1  0  0  0
 42 66  1  0  0  0
 42108  1  0  0  0
 42109  1  0  0  0
 43 44  1  0  0  0
 44110  1  0  0  0
 45 46  2  0  0  0
 45111  1  0  0  0
 46112  1  0  0  0
 47113  1  0  0  0
 47114  1  0  0  0
 48 56  1  0  0  0
 48 65  1  0  0  0
 48115  1  0  0  0
 49 50  1  0  0  0
 49 53  1  0  0  0
 49 64  1  0  0  0
 49116  1  0  0  0
 50 51  1  0  0  0
 50117  1  0  0  0
 50118  1  0  0  0
 51 52  1  0  0  0
 51119  1  0  0  0
 51120  1  0  0  0
 52121  1  0  0  0
 52122  1  0  0  0
 53 54  1  0  0  0
 54 55  2  0  0  0
 54123  1  0  0  0
 55 57  1  0  0  0
 55124  1  0  0  0
 56 69  2  0  0  0
 57 58  2  0  0  0
 57125  1  0  0  0
 58126  1  0  0  0
 59 60  1  0  0  0
 59 61  1  0  0  0
 59 62  1  0  0  0
 60127  1  0  0  0
 60128  1  0  0  0
 60129  1  0  0  0
 61130  1  0  0  0
 61131  1  0  0  0
 61132  1  0  0  0
 62133  1  0  0  0
 62134  1  0  0  0
 62135  1  0  0  0
 63 65  1  0  0  0
 63136  1  0  0  0
 63137  1  0  0  0
 63138  1  0  0  0
 64139  1  0  0  0
 65140  1  0  0  0
 68 80  1  0  0  0
 71 72  1  0  0  0
 71 73  1  0  0  0
 71141  1  0  0  0
 71142  1  0  0  0
 72 75  1  0  0  0
 72143  1  0  0  0
 72144  1  0  0  0
 73 76  1  0  0  0
 73145  1  0  0  0
 73146  1  0  0  0
 74 75  1  0  0  0
 74 76  1  0  0  0
 74147  1  0  0  0
 74148  1  0  0  0
 75 77  1  0  0  0
 75149  1  0  0  0
 76 78  1  0  0  0
 76150  1  0  0  0
 77 79  1  0  0  0
 77151  1  0  0  0
 77152  1  0  0  0
 78 80  1  0  0  0
 78153  1  0  0  0
 78154  1  0  0  0
 79 81  1  0  0  0
 79155  1  0  0  0
 79156  1  0  0  0
 80157  1  0  0  0
 80158  1  0  0  0
 81159  1  0  0  0
M  ISO  4   1 100  68 101  80 101  81 100
M  END
> <chiral flag>
0

> <version>
0

> <s_m_source_file>
/data/baiqing/PycharmProjects/Reinvent-master-3.2/result/LINK_invent/BTK/process_docking_weight1_custom_sum_contain_oxygen_bond_distance_aromatic_linkinvent_7_9_3/rearranged_h_0093.sdf

> <i_m_source_file_index>
46

> <r_mmod_Potential_Energy-OPLS-2005>
107.556869506836

> <r_mmod_Stretch_Energy-OPLS-2005>
88.2394485473633

> <r_mmod_Bend_Energy-OPLS-2005>
139.902313232422

> <r_mmod_Torsional_Energy-OPLS-2005>
256.930145263672

> <r_mmod_Improper_Torsional_Energy-OPLS-2005>
4.2346715927124

> <r_mmod_Van_der_Waal_Energy-OPLS-2005>
120.318214416504

> <r_mmod_Electrostatic_Energy-OPLS-2005>
-354.399322509766

> <r_mmod_Solvation_Energy-OPLS-2005>
-197.690582275391

> <b_mmod_Minimization_Converged-OPLS-2005>
0

> <r_mmod_RMS_Derivative-OPLS-2005>
1.50082588195801

$$$$
46
                    3D
 Structure written by MMmdl.
166174  0  0  1  0            999 V2000
  -30.4756  -14.8130   20.4239 C   0  0  0  0  0  0
  -30.4254  -12.5248   19.5001 C   0  0  0  0  0  0
  -29.5091  -12.4647   18.2588 C   0  0  0  0  0  0
  -28.0155  -12.3233   18.6374 C   0  0  0  0  0  0
  -27.5857  -13.2320   19.8155 C   0  0  2  0  0  0
  -28.6037  -13.2027   20.9583 C   0  0  0  0  0  0
  -25.2225  -13.8145   20.5805 C   0  0  0  0  0  0
  -24.1615  -13.0477   20.9289 C   0  0  0  0  0  0
  -24.6175  -11.6891   20.8727 C   0  0  0  0  0  0
  -23.8918  -10.4309   21.0453 C   0  0  0  0  0  0
  -24.3493   -9.4240   21.9225 C   0  0  0  0  0  0
  -23.6252   -8.2247   22.0771 C   0  0  0  0  0  0
  -22.4230   -8.0237   21.3573 C   0  0  0  0  0  0
  -21.9822   -9.0201   20.4641 C   0  0  0  0  0  0
  -22.7090  -10.2109   20.3091 C   0  0  0  0  0  0
  -21.6846   -6.0708   22.5304 C   0  0  0  0  0  0
  -21.4025   -6.5640   23.8208 C   0  0  0  0  0  0
  -21.3692   -5.6820   24.9185 C   0  0  0  0  0  0
  -21.6065   -4.3080   24.7250 C   0  0  0  0  0  0
  -21.8800   -3.8140   23.4363 C   0  0  0  0  0  0
  -21.9224   -4.6947   22.3421 C   0  0  0  0  0  0
  -22.7620  -13.5142   21.2043 C   0  0  0  0  0  0
  -22.1660   -4.2136   21.1006 F   0  0  0  0  0  0
  -21.5597   -3.4567   25.7776 F   0  0  0  0  0  0
  -29.8917  -13.5806   20.3612 N   0  0  0  0  0  0
  -26.2522  -12.9383   20.3011 N   0  0  0  0  0  0
  -25.9034  -11.6499   20.5517 N   0  0  0  0  0  0
  -22.0357  -12.8120   22.0576 N   0  0  0  0  0  0
  -25.3979  -15.1965   20.4349 N   0  0  0  0  0  0
  -31.7051  -14.9146   20.3999 O   0  0  0  0  0  0
  -21.6619   -6.8844   21.4265 O   0  0  0  0  0  0
  -22.3326  -14.5569   20.6967 O   0  0  0  0  0  0
  -24.6258  -31.8726   23.2264 C   0  0  0  0  0  0
  -25.9136  -32.4848   23.8582 C   0  0  1  0  0  0
  -27.1992  -27.3759   20.0113 C   0  0  0  0  0  0
  -25.6034  -33.8676   24.2451 N   0  0  0  0  0  0
  -23.4012  -30.5247   21.5767 C   0  0  2  0  0  0
  -24.8261  -29.0027   20.0984 C   0  0  0  0  0  0
  -22.7402  -29.4738   22.5010 C   0  0  0  0  0  0
  -18.0256  -28.1207   22.8375 C   0  0  0  0  0  0
  -24.1498  -36.7307   23.2643 C   0  0  0  0  0  0
  -25.9443  -30.8155   21.3820 C   0  0  0  0  0  0
  -26.0064  -29.4593   20.6910 C   0  0  0  0  0  0
  -27.1893  -28.6580   20.6440 C   0  0  0  0  0  0
  -25.9910  -26.9874   19.3776 C   0  0  0  0  0  0
  -24.8156  -27.7595   19.4506 C   0  0  0  0  0  0
  -23.5962  -29.8914   20.1799 C   0  0  0  0  0  0
  -25.4134  -36.3130   24.0315 C   0  0  1  0  0  0
  -20.5861  -28.3546   23.1197 C   0  0  2  0  0  0
  -20.6674  -26.9265   22.5292 C   0  0  0  0  0  0
  -19.5703  -26.6256   21.5014 C   0  0  0  0  0  0
  -18.1883  -26.7751   22.1464 C   0  0  0  0  0  0
  -19.1543  -28.8689   23.2764 C   0  0  0  0  0  0
  -18.9481  -30.1244   23.8815 C   0  0  0  0  0  0
  -17.6515  -30.6399   24.0494 C   0  0  0  0  0  0
  -25.9095  -34.9464   23.5156 C   0  0  0  0  0  0
  -16.5380  -29.8909   23.6308 C   0  0  0  0  0  0
  -16.7271  -28.6329   23.0319 C   0  0  0  0  0  0
  -26.4551  -31.6684   25.0917 C   0  0  0  0  0  0
  -25.3853  -31.3667   26.1704 C   0  0  0  0  0  0
  -27.0370  -30.3144   24.6275 C   0  0  0  0  0  0
  -27.6305  -32.4368   25.7518 C   0  0  0  0  0  0
  -27.5588  -37.1756   24.8448 C   0  0  0  0  0  0
  -21.4167  -29.3013   22.3709 N   0  0  0  0  0  0
  -26.4307  -37.3811   23.9427 N   0  0  0  0  0  0
  -24.6780  -31.0775   22.1196 N   0  0  0  0  0  0
  -23.4201  -28.8201   23.2940 O   0  0  0  0  0  0
  -28.3367  -26.5323   20.0151 O   0  0  0  0  0  0
  -26.5599  -34.8877   22.4683 O   0  0  0  0  0  0
  -23.5465  -32.1635   23.7609 O   0  0  0  0  0  0
  -29.4158  -21.8093   22.1583 C   0  0  0  0  0  0
  -29.5984  -20.7249   23.0434 C   0  0  0  0  0  0
  -29.5415  -21.3345   20.8793 C   0  0  0  0  0  0
  -30.4091  -19.8831   22.3589 C   0  0  0  0  0  0
  -31.4249  -18.6067   24.3670 C   0  0  0  0  0  0
  -32.7449  -20.3263   23.1864 C   0  0  0  0  0  0
  -28.6917  -18.6752   19.1388 C   0  0  0  0  0  0
  -29.3169  -22.3044   19.6652 C   0  0  0  0  0  0
  -29.1600  -23.9004   20.0482 C   0  0  0  0  0  0
  -29.9574  -17.2725   20.9491 C   0  0  0  0  0  0
  -28.0879  -25.0904   19.7818 C   0  0  0  0  0  0
  -31.6616  -19.2238   22.9636 C   0  0  0  0  0  0
  -29.9028  -18.6845   20.1247 C   0  0  2  0  0  0
  -29.9032  -19.9211   21.0370 N   0  0  0  0  0  0
  -29.6815  -15.9356   20.2781 N   0  0  0  0  0  0
  -31.4456  -12.7644   19.2106 H   0  0  0  0  0  0
  -30.4840  -11.5878   20.0538 H   0  0  0  0  0  0
  -29.8303  -11.6371   17.6311 H   0  0  0  0  0  0
  -29.6378  -13.3755   17.6718 H   0  0  0  0  0  0
  -27.8066  -11.2761   18.8706 H   0  0  0  0  0  0
  -27.4081  -12.5567   17.7656 H   0  0  0  0  0  0
  -27.5648  -14.2410   19.4051 H   0  0  0  0  0  0
  -28.6335  -12.2102   21.4087 H   0  0  0  0  0  0
  -28.3079  -13.9043   21.7399 H   0  0  0  0  0  0
  -25.2628   -9.5780   22.4801 H   0  0  0  0  0  0
  -24.0083   -7.4591   22.7397 H   0  0  0  0  0  0
  -21.0829   -8.8584   19.8836 H   0  0  0  0  0  0
  -22.3524  -10.9627   19.6159 H   0  0  0  0  0  0
  -21.2005   -7.6124   23.9727 H   0  0  0  0  0  0
  -21.1531   -6.0523   25.9100 H   0  0  0  0  0  0
  -22.0571   -2.7604   23.2860 H   0  0  0  0  0  0
  -22.3986  -11.9699   22.4799 H   0  0  0  0  0  0
  -21.0965  -13.0988   22.2938 H   0  0  0  0  0  0
  -24.6485  -15.8448   20.6442 H   0  0  0  0  0  0
  -26.2405  -15.6571   20.1204 H   0  0  0  0  0  0
  -26.7179  -32.5424   23.1349 H   0  0  0  0  0  0
  -25.0360  -33.9974   25.0694 H   0  0  0  0  0  0
  -22.6911  -31.3527   21.4653 H   0  0  0  0  0  0
  -23.3824  -35.9571   23.3304 H   0  0  0  0  0  0
  -24.3673  -36.8980   22.2079 H   0  0  0  0  0  0
  -23.7148  -37.6472   23.6703 H   0  0  0  0  0  0
  -26.0860  -31.6244   20.6614 H   0  0  0  0  0  0
  -26.8155  -30.8274   22.0242 H   0  0  0  0  0  0
  -28.0976  -29.0107   21.1035 H   0  0  0  0  0  0
  -25.9240  -26.0916   18.7759 H   0  0  0  0  0  0
  -23.9001  -27.4333   18.9718 H   0  0  0  0  0  0
  -23.6983  -30.7053   19.4569 H   0  0  0  0  0  0
  -22.6985  -29.3581   19.8646 H   0  0  0  0  0  0
  -25.1263  -36.2082   25.0792 H   0  0  0  0  0  0
  -20.9880  -28.2999   24.1357 H   0  0  0  0  0  0
  -20.5281  -26.2177   23.3482 H   0  0  0  0  0  0
  -21.6566  -26.7068   22.1288 H   0  0  0  0  0  0
  -19.6906  -25.6177   21.1057 H   0  0  0  0  0  0
  -19.6655  -27.3017   20.6505 H   0  0  0  0  0  0
  -17.4127  -26.6487   21.3866 H   0  0  0  0  0  0
  -18.0341  -25.9759   22.8760 H   0  0  0  0  0  0
  -19.8000  -30.6950   24.2184 H   0  0  0  0  0  0
  -17.5121  -31.6117   24.5043 H   0  0  0  0  0  0
  -15.5377  -30.2777   23.7634 H   0  0  0  0  0  0
  -15.8672  -28.0585   22.7131 H   0  0  0  0  0  0
  -24.6211  -30.6790   25.8073 H   0  0  0  0  0  0
  -24.8782  -32.2645   26.5230 H   0  0  0  0  0  0
  -25.8244  -30.8930   27.0488 H   0  0  0  0  0  0
  -26.2856  -29.6876   24.1465 H   0  0  0  0  0  0
  -27.4301  -29.7456   25.4727 H   0  0  0  0  0  0
  -27.8617  -30.4569   23.9299 H   0  0  0  0  0  0
  -27.3291  -33.3856   26.2032 H   0  0  0  0  0  0
  -28.4037  -32.6675   25.0139 H   0  0  0  0  0  0
  -28.1068  -31.8518   26.5436 H   0  0  0  0  0  0
  -28.2576  -38.0090   24.7637 H   0  0  0  0  0  0
  -28.1076  -36.2639   24.6075 H   0  0  0  0  0  0
  -27.2323  -37.1193   25.8846 H   0  0  0  0  0  0
  -20.9277  -29.9108   21.7301 H   0  0  0  0  0  0
  -26.0211  -38.2850   24.1607 H   0  0  0  0  0  0
  -29.1764  -22.8265   22.4484 H   0  0  0  0  0  0
  -29.4678  -20.7143   24.1119 H   0  0  0  0  0  0
  -30.8112  -17.7050   24.3579 H   0  0  0  0  0  0
  -30.9540  -19.3345   25.0310 H   0  0  0  0  0  0
  -32.3702  -18.3350   24.8417 H   0  0  0  0  0  0
  -33.3126  -20.6188   22.2958 H   0  0  0  0  0  0
  -33.4937  -20.0192   23.9245 H   0  0  0  0  0  0
  -32.2615  -21.2228   23.5911 H   0  0  0  0  0  0
  -27.7363  -18.4698   19.6387 H   0  0  0  0  0  0
  -28.8258  -17.9172   18.3596 H   0  0  0  0  0  0
  -28.5827  -19.6260   18.6124 H   0  0  0  0  0  0
  -30.1655  -22.1907   18.9856 H   0  0  0  0  0  0
  -28.4934  -21.9376   19.0356 H   0  0  0  0  0  0
  -28.1949  -23.4226   20.1808 H   0  0  0  0  0  0
  -29.6674  -24.1865   19.1237 H   0  0  0  0  0  0
  -29.2859  -17.3756   21.8210 H   0  0  0  0  0  0
  -30.9461  -17.1107   21.3978 H   0  0  0  0  0  0
  -27.1911  -24.9362   20.4002 H   0  0  0  0  0  0
  -27.7758  -25.0069   18.7368 H   0  0  0  0  0  0
  -32.1269  -18.4652   22.3298 H   0  0  0  0  0  0
  -30.8068  -18.7444   19.5133 H   0  0  0  0  0  0
  -28.8421  -15.8663   19.6979 H   0  0  0  0  0  0
  1 25  1  0  0  0
  1 30  2  0  0  0
  1 85  1  0  0  0
  2  3  1  0  0  0
  2 25  1  0  0  0
  2 86  1  0  0  0
  2 87  1  0  0  0
  3  4  1  0  0  0
  3 88  1  0  0  0
  3 89  1  0  0  0
  4  5  1  0  0  0
  4 90  1  0  0  0
  4 91  1  0  0  0
  5  6  1  0  0  0
  5 26  1  0  0  0
  5 92  1  0  0  0
  6 25  1  0  0  0
  6 93  1  0  0  0
  6 94  1  0  0  0
  7  8  2  0  0  0
  7 26  1  0  0  0
  7 29  1  0  0  0
  8  9  1  0  0  0
  8 22  1  0  0  0
  9 10  1  0  0  0
  9 27  2  0  0  0
 10 11  2  0  0  0
 10 15  1  0  0  0
 11 12  1  0  0  0
 11 95  1  0  0  0
 12 13  2  0  0  0
 12 96  1  0  0  0
 13 14  1  0  0  0
 13 31  1  0  0  0
 14 15  2  0  0  0
 14 97  1  0  0  0
 15 98  1  0  0  0
 16 17  2  0  0  0
 16 21  1  0  0  0
 16 31  1  0  0  0
 17 18  1  0  0  0
 17 99  1  0  0  0
 18 19  2  0  0  0
 18100  1  0  0  0
 19 20  1  0  0  0
 19 24  1  0  0  0
 20 21  2  0  0  0
 20101  1  0  0  0
 21 23  1  0  0  0
 22 28  1  0  0  0
 22 32  2  0  0  0
 26 27  1  0  0  0
 28102  1  0  0  0
 28103  1  0  0  0
 29104  1  0  0  0
 29105  1  0  0  0
 33 34  1  0  0  0
 33 66  1  0  0  0
 33 70  2  0  0  0
 34 36  1  0  0  0
 34 59  1  0  0  0
 34106  1  0  0  0
 35 44  2  0  0  0
 35 45  1  0  0  0
 35 68  1  0  0  0
 36 56  1  0  0  0
 36107  1  0  0  0
 37 39  1  0  0  0
 37 47  1  0  0  0
 37 66  1  0  0  0
 37108  1  0  0  0
 38 43  2  0  0  0
 38 46  1  0  0  0
 38 47  1  0  0  0
 39 64  1  0  0  0
 39 67  2  0  0  0
 40 52  1  0  0  0
 40 53  2  0  0  0
 40 58  1  0  0  0
 41109  1  0  0  0
 41110  1  0  0  0
 41111  1  0  0  0
 41 48  1  0  0  0
 42 43  1  0  0  0
 42 66  1  0  0  0
 42112  1  0  0  0
 42113  1  0  0  0
 43 44  1  0  0  0
 44114  1  0  0  0
 45 46  2  0  0  0
 45115  1  0  0  0
 46116  1  0  0  0
 47117  1  0  0  0
 47118  1  0  0  0
 48 56  1  0  0  0
 48 65  1  0  0  0
 48119  1  0  0  0
 49 50  1  0  0  0
 49 53  1  0  0  0
 49 64  1  0  0  0
 49120  1  0  0  0
 50 51  1  0  0  0
 50121  1  0  0  0
 50122  1  0  0  0
 51 52  1  0  0  0
 51123  1  0  0  0
 51124  1  0  0  0
 52125  1  0  0  0
 52126  1  0  0  0
 53 54  1  0  0  0
 54 55  2  0  0  0
 54127  1  0  0  0
 55 57  1  0  0  0
 55128  1  0  0  0
 56 69  2  0  0  0
 57 58  2  0  0  0
 57129  1  0  0  0
 58130  1  0  0  0
 59 60  1  0  0  0
 59 61  1  0  0  0
 59 62  1  0  0  0
 60131  1  0  0  0
 60132  1  0  0  0
 60133  1  0  0  0
 61134  1  0  0  0
 61135  1  0  0  0
 61136  1  0  0  0
 62137  1  0  0  0
 62138  1  0  0  0
 62139  1  0  0  0
 63 65  1  0  0  0
 63140  1  0  0  0
 63141  1  0  0  0
 63142  1  0  0  0
 64143  1  0  0  0
 65144  1  0  0  0
 68 81  1  0  0  0
 71 72  1  0  0  0
 71 73  2  0  0  0
 71145  1  0  0  0
 72 74  2  0  0  0
 72146  1  0  0  0
 73 78  1  0  0  0
 73 84  1  0  0  0
 74 82  1  0  0  0
 74 84  1  0  0  0
 75147  1  0  0  0
 75148  1  0  0  0
 75149  1  0  0  0
 75 82  1  0  0  0
 76 82  1  0  0  0
 76150  1  0  0  0
 76151  1  0  0  0
 76152  1  0  0  0
 77153  1  0  0  0
 77154  1  0  0  0
 77155  1  0  0  0
 77 83  1  0  0  0
 78 79  1  0  0  0
 78156  1  0  0  0
 78157  1  0  0  0
 79 81  1  0  0  0
 79158  1  0  0  0
 79159  1  0  0  0
 80 83  1  0  0  0
 80 85  1  0  0  0
 80160  1  0  0  0
 80161  1  0  0  0
 81162  1  0  0  0
 81163  1  0  0  0
 82164  1  0  0  0
 83 84  1  0  0  0
 83165  1  0  0  0
 85166  1  0  0  0
M  ISO  4   1 100  68 101  81 101  85 100
M  END
> <chiral flag>
0

> <version>
0

> <s_m_source_file>
/data/baiqing/PycharmProjects/Reinvent-master-3.2/result/LINK_invent/BTK/process_docking_weight1_custom_sum_contain_oxygen_bond_distance_aromatic_linkinvent_7_9_3/rearranged_h_0093.sdf

> <i_m_source_file_index>
47

> <r_mmod_Potential_Energy-OPLS-2005>
613.477172851562

> <r_mmod_Stretch_Energy-OPLS-2005>
138.924942016602

> <r_mmod_Bend_Energy-OPLS-2005>
439.914581298828

> <r_mmod_Torsional_Energy-OPLS-2005>
408.9189453125

> <r_mmod_Improper_Torsional_Energy-OPLS-2005>
7.30401945114136

> <r_mmod_Van_der_Waal_Energy-OPLS-2005>
154.357360839844

> <r_mmod_Electrostatic_Energy-OPLS-2005>
-444.646484375

> <r_mmod_Solvation_Energy-OPLS-2005>
-204.605270385742

> <b_mmod_Minimization_Converged-OPLS-2005>
0

> <r_mmod_RMS_Derivative-OPLS-2005>
21.3722343444824

$$$$
47
                    3D
 Structure written by MMmdl.
166174  0  0  1  0            999 V2000
  -30.7599  -14.5061   20.4850 C   0  0  0  0  0  0
  -30.4029  -12.3035   19.4475 C   0  0  0  0  0  0
  -29.4973  -12.4799   18.2130 C   0  0  0  0  0  0
  -28.0177  -12.3530   18.6262 C   0  0  0  0  0  0
  -27.6527  -13.2283   19.8575 C   0  0  2  0  0  0
  -28.7032  -13.0903   20.9890 C   0  0  0  0  0  0
  -25.2506  -13.8200   20.5696 C   0  0  0  0  0  0
  -24.1804  -13.0427   20.9215 C   0  0  0  0  0  0
  -24.6403  -11.6909   20.8785 C   0  0  0  0  0  0
  -23.9138  -10.4253   21.0422 C   0  0  0  0  0  0
  -24.3653   -9.4152   21.9225 C   0  0  0  0  0  0
  -23.6278   -8.2205   22.0789 C   0  0  0  0  0  0
  -22.4262   -8.0272   21.3558 C   0  0  0  0  0  0
  -21.9943   -9.0276   20.4671 C   0  0  0  0  0  0
  -22.7319  -10.2131   20.3059 C   0  0  0  0  0  0
  -21.6828   -6.0739   22.5301 C   0  0  0  0  0  0
  -21.4054   -6.5656   23.8244 C   0  0  0  0  0  0
  -21.3686   -5.6800   24.9198 C   0  0  0  0  0  0
  -21.6040   -4.3063   24.7262 C   0  0  0  0  0  0
  -21.8778   -3.8161   23.4373 C   0  0  0  0  0  0
  -21.9162   -4.6962   22.3426 C   0  0  0  0  0  0
  -22.7818  -13.5221   21.1836 C   0  0  0  0  0  0
  -22.1607   -4.2157   21.1005 F   0  0  0  0  0  0
  -21.5621   -3.4537   25.7767 F   0  0  0  0  0  0
  -30.0333  -13.3514   20.4187 N   0  0  0  0  0  0
  -26.2972  -12.9436   20.3293 N   0  0  0  0  0  0
  -25.9328  -11.6565   20.5741 N   0  0  0  0  0  0
  -22.0353  -12.8309   22.0391 N   0  0  0  0  0  0
  -25.4122  -15.1921   20.4108 N   0  0  0  0  0  0
  -31.9352  -14.5514   20.1240 O   0  0  0  0  0  0
  -21.6602   -6.8895   21.4251 O   0  0  0  0  0  0
  -22.3537  -14.5519   20.6642 O   0  0  0  0  0  0
  -24.6176  -31.8654   23.2058 C   0  0  0  0  0  0
  -25.9010  -32.4816   23.8393 C   0  0  1  0  0  0
  -27.2307  -27.4095   20.1093 C   0  0  0  0  0  0
  -25.5793  -33.8608   24.2294 N   0  0  0  0  0  0
  -23.4108  -30.4910   21.5407 C   0  0  2  0  0  0
  -24.8606  -28.9491   20.1138 C   0  0  0  0  0  0
  -22.7449  -29.4693   22.4943 C   0  0  0  0  0  0
  -18.0264  -28.1467   22.8502 C   0  0  0  0  0  0
  -24.1436  -36.7398   23.2655 C   0  0  0  0  0  0
  -25.9354  -30.8321   21.3509 C   0  0  0  0  0  0
  -26.0180  -29.4575   20.7154 C   0  0  0  0  0  0
  -27.2142  -28.6958   20.7022 C   0  0  0  0  0  0
  -26.0652  -26.9328   19.4841 C   0  0  0  0  0  0
  -24.8791  -27.6897   19.4905 C   0  0  0  0  0  0
  -23.6236  -29.8181   20.1580 C   0  0  0  0  0  0
  -25.4053  -36.3153   24.0352 C   0  0  1  0  0  0
  -20.5852  -28.3782   23.1265 C   0  0  2  0  0  0
  -20.6732  -26.9512   22.5420 C   0  0  0  0  0  0
  -19.5700  -26.6450   21.5232 C   0  0  0  0  0  0
  -18.1883  -26.8006   22.1652 C   0  0  0  0  0  0
  -19.1519  -28.8929   23.2867 C   0  0  0  0  0  0
  -18.9470  -30.1519   23.8920 C   0  0  0  0  0  0
  -17.6471  -30.6643   24.0629 C   0  0  0  0  0  0
  -25.8996  -34.9510   23.5133 C   0  0  0  0  0  0
  -16.5339  -29.9187   23.6370 C   0  0  0  0  0  0
  -16.7254  -28.6615   23.0366 C   0  0  0  0  0  0
  -26.4397  -31.6617   25.0753 C   0  0  0  0  0  0
  -25.3685  -31.3724   26.1550 C   0  0  0  0  0  0
  -27.0165  -30.3025   24.6146 C   0  0  0  0  0  0
  -27.5937  -32.4390   25.7504 C   0  0  0  0  0  0
  -27.5556  -37.1873   24.8470 C   0  0  0  0  0  0
  -21.4160  -29.3130   22.3659 N   0  0  0  0  0  0
  -26.4252  -37.3849   23.9448 N   0  0  0  0  0  0
  -24.6735  -31.0781   22.0934 N   0  0  0  0  0  0
  -23.4201  -28.8274   23.2998 O   0  0  0  0  0  0
  -28.3637  -26.6281   20.0889 O   0  0  0  0  0  0
  -26.5626  -34.8957   22.4751 O   0  0  0  0  0  0
  -23.5329  -32.1375   23.7459 O   0  0  0  0  0  0
  -29.1168  -19.1337   20.3050 C   0  0  0  0  0  0
  -30.1378  -18.2635   20.6130 C   0  0  0  0  0  0
  -30.4143  -20.1773   21.7742 C   0  0  0  0  0  0
  -32.3528  -21.7604   21.9328 C   0  0  0  0  0  0
  -31.5423  -20.5304   24.0172 C   0  0  0  0  0  0
  -26.4837  -23.8033   20.8595 C   0  0  0  0  0  0
  -30.5474  -16.9258   20.0170 C   0  0  0  0  0  0
  -28.8936  -22.9740   21.0439 C   0  0  0  0  0  0
  -28.3875  -21.4990   20.8696 C   0  0  0  0  0  0
  -28.3851  -25.5284   21.0269 C   0  0  0  0  0  0
  -31.1314  -21.1556   22.6705 C   0  0  0  0  0  0
  -27.9561  -24.1112   20.4943 C   0  0  2  0  0  0
  -29.3207  -20.3236   20.9866 N   0  0  0  0  0  0
  -30.8967  -18.9454   21.5298 N   0  3  0  0  0  0
  -30.0868  -15.6685   20.6619 N   0  0  0  0  0  0
  -31.4542  -12.3372   19.1578 H   0  0  0  0  0  0
  -30.2590  -11.3164   19.8886 H   0  0  0  0  0  0
  -29.7390  -11.7283   17.4562 H   0  0  0  0  0  0
  -29.6763  -13.4526   17.7526 H   0  0  0  0  0  0
  -27.8378  -11.3046   18.8627 H   0  0  0  0  0  0
  -27.3684  -12.5841   17.7789 H   0  0  0  0  0  0
  -27.6723  -14.2643   19.5179 H   0  0  0  0  0  0
  -28.6646  -12.0862   21.4149 H   0  0  0  0  0  0
  -28.4792  -13.7780   21.8072 H   0  0  0  0  0  0
  -25.2732   -9.5597   22.4875 H   0  0  0  0  0  0
  -23.9938   -7.4589   22.7541 H   0  0  0  0  0  0
  -21.0872   -8.8874   19.8946 H   0  0  0  0  0  0
  -22.3837  -10.9711   19.6192 H   0  0  0  0  0  0
  -21.2087   -7.6160   23.9790 H   0  0  0  0  0  0
  -21.1545   -6.0514   25.9129 H   0  0  0  0  0  0
  -22.0521   -2.7600   23.2872 H   0  0  0  0  0  0
  -22.3893  -12.0087   22.5073 H   0  0  0  0  0  0
  -21.0944  -13.1435   22.2388 H   0  0  0  0  0  0
  -24.6394  -15.8408   20.5260 H   0  0  0  0  0  0
  -26.2503  -15.6309   20.0523 H   0  0  0  0  0  0
  -26.7117  -32.5552   23.1192 H   0  0  0  0  0  0
  -24.9731  -33.9744   25.0281 H   0  0  0  0  0  0
  -22.6988  -31.3055   21.3933 H   0  0  0  0  0  0
  -23.3642  -35.9791   23.3326 H   0  0  0  0  0  0
  -24.3506  -36.9032   22.2068 H   0  0  0  0  0  0
  -23.7228  -37.6621   23.6660 H   0  0  0  0  0  0
  -26.0195  -31.5828   20.5634 H   0  0  0  0  0  0
  -26.8299  -30.9128   21.9566 H   0  0  0  0  0  0
  -28.1176  -29.0908   21.1465 H   0  0  0  0  0  0
  -26.0833  -25.9721   18.9872 H   0  0  0  0  0  0
  -23.9980  -27.2980   19.0023 H   0  0  0  0  0  0
  -23.7428  -30.5836   19.3912 H   0  0  0  0  0  0
  -22.7457  -29.2434   19.8565 H   0  0  0  0  0  0
  -25.1208  -36.2023   25.0839 H   0  0  0  0  0  0
  -20.9957  -28.3391   24.1369 H   0  0  0  0  0  0
  -20.5593  -26.2456   23.3658 H   0  0  0  0  0  0
  -21.6603  -26.7513   22.1229 H   0  0  0  0  0  0
  -19.6857  -25.6365   21.1264 H   0  0  0  0  0  0
  -19.6562  -27.3234   20.6733 H   0  0  0  0  0  0
  -17.4125  -26.6737   21.4063 H   0  0  0  0  0  0
  -18.0286  -26.0138   22.9032 H   0  0  0  0  0  0
  -19.7933  -30.7331   24.2277 H   0  0  0  0  0  0
  -17.5042  -31.6311   24.5277 H   0  0  0  0  0  0
  -15.5365  -30.3125   23.7709 H   0  0  0  0  0  0
  -15.8637  -28.0979   22.7093 H   0  0  0  0  0  0
  -24.5846  -30.7044   25.7946 H   0  0  0  0  0  0
  -24.8876  -32.2864   26.5059 H   0  0  0  0  0  0
  -25.8119  -30.8897   27.0288 H   0  0  0  0  0  0
  -26.2662  -29.6853   24.1180 H   0  0  0  0  0  0
  -27.3794  -29.7227   25.4648 H   0  0  0  0  0  0
  -27.8576  -30.4229   23.9316 H   0  0  0  0  0  0
  -27.2467  -33.3680   26.2055 H   0  0  0  0  0  0
  -28.3739  -32.7020   25.0340 H   0  0  0  0  0  0
  -28.0608  -31.8572   26.5472 H   0  0  0  0  0  0
  -28.2615  -38.0135   24.7494 H   0  0  0  0  0  0
  -28.0997  -36.2679   24.6261 H   0  0  0  0  0  0
  -27.2321  -37.1555   25.8890 H   0  0  0  0  0  0
  -20.9376  -29.8899   21.6895 H   0  0  0  0  0  0
  -26.0135  -38.2933   24.1431 H   0  0  0  0  0  0
  -28.2976  -19.0085   19.6111 H   0  0  0  0  0  0
  -32.0585  -22.2945   21.0263 H   0  0  0  0  0  0
  -33.0552  -20.9785   21.6330 H   0  0  0  0  0  0
  -32.9056  -22.4640   22.5607 H   0  0  0  0  0  0
  -30.6803  -20.1329   24.5555 H   0  0  0  0  0  0
  -32.0012  -21.2786   24.6643 H   0  0  0  0  0  0
  -32.2582  -19.7177   23.8978 H   0  0  0  0  0  0
  -26.0804  -22.9926   20.2515 H   0  0  0  0  0  0
  -25.8154  -24.6497   20.7329 H   0  0  0  0  0  0
  -26.3951  -23.5077   21.9047 H   0  0  0  0  0  0
  -31.6361  -16.9522   19.9233 H   0  0  0  0  0  0
  -30.1854  -16.9072   18.9863 H   0  0  0  0  0  0
  -29.8876  -23.0869   20.6089 H   0  0  0  0  0  0
  -28.9768  -23.1780   22.1095 H   0  0  0  0  0  0
  -27.9387  -21.4192   19.8805 H   0  0  0  0  0  0
  -27.5763  -21.3148   21.5754 H   0  0  0  0  0  0
  -29.4154  -25.4735   21.3791 H   0  0  0  0  0  0
  -27.8165  -25.7859   21.9250 H   0  0  0  0  0  0
  -30.4286  -21.9370   22.9283 H   0  0  0  0  0  0
  -28.0357  -24.1249   19.4046 H   0  0  0  0  0  0
  -31.7560  -18.6011   21.9421 H   0  0  0  0  0  0
  -29.1253  -15.6230   20.9542 H   0  0  0  0  0  0
  1 25  1  0  0  0
  1 30  2  0  0  0
  1 85  1  0  0  0
  2  3  1  0  0  0
  2 25  1  0  0  0
  2 86  1  0  0  0
  2 87  1  0  0  0
  3  4  1  0  0  0
  3 88  1  0  0  0
  3 89  1  0  0  0
  4  5  1  0  0  0
  4 90  1  0  0  0
  4 91  1  0  0  0
  5  6  1  0  0  0
  5 26  1  0  0  0
  5 92  1  0  0  0
  6 25  1  0  0  0
  6 93  1  0  0  0
  6 94  1  0  0  0
  7  8  2  0  0  0
  7 26  1  0  0  0
  7 29  1  0  0  0
  8  9  1  0  0  0
  8 22  1  0  0  0
  9 10  1  0  0  0
  9 27  2  0  0  0
 10 11  2  0  0  0
 10 15  1  0  0  0
 11 12  1  0  0  0
 11 95  1  0  0  0
 12 13  2  0  0  0
 12 96  1  0  0  0
 13 14  1  0  0  0
 13 31  1  0  0  0
 14 15  2  0  0  0
 14 97  1  0  0  0
 15 98  1  0  0  0
 16 17  2  0  0  0
 16 21  1  0  0  0
 16 31  1  0  0  0
 17 18  1  0  0  0
 17 99  1  0  0  0
 18 19  2  0  0  0
 18100  1  0  0  0
 19 20  1  0  0  0
 19 24  1  0  0  0
 20 21  2  0  0  0
 20101  1  0  0  0
 21 23  1  0  0  0
 22 28  1  0  0  0
 22 32  2  0  0  0
 26 27  1  0  0  0
 28102  1  0  0  0
 28103  1  0  0  0
 29104  1  0  0  0
 29105  1  0  0  0
 33 34  1  0  0  0
 33 66  1  0  0  0
 33 70  2  0  0  0
 34 36  1  0  0  0
 34 59  1  0  0  0
 34106  1  0  0  0
 35 44  2  0  0  0
 35 45  1  0  0  0
 35 68  1  0  0  0
 36 56  1  0  0  0
 36107  1  0  0  0
 37 39  1  0  0  0
 37 47  1  0  0  0
 37 66  1  0  0  0
 37108  1  0  0  0
 38 43  2  0  0  0
 38 46  1  0  0  0
 38 47  1  0  0  0
 39 64  1  0  0  0
 39 67  2  0  0  0
 40 52  1  0  0  0
 40 53  2  0  0  0
 40 58  1  0  0  0
 41109  1  0  0  0
 41110  1  0  0  0
 41111  1  0  0  0
 41 48  1  0  0  0
 42 43  1  0  0  0
 42 66  1  0  0  0
 42112  1  0  0  0
 42113  1  0  0  0
 43 44  1  0  0  0
 44114  1  0  0  0
 45 46  2  0  0  0
 45115  1  0  0  0
 46116  1  0  0  0
 47117  1  0  0  0
 47118  1  0  0  0
 48 56  1  0  0  0
 48 65  1  0  0  0
 48119  1  0  0  0
 49 50  1  0  0  0
 49 53  1  0  0  0
 49 64  1  0  0  0
 49120  1  0  0  0
 50 51  1  0  0  0
 50121  1  0  0  0
 50122  1  0  0  0
 51 52  1  0  0  0
 51123  1  0  0  0
 51124  1  0  0  0
 52125  1  0  0  0
 52126  1  0  0  0
 53 54  1  0  0  0
 54 55  2  0  0  0
 54127  1  0  0  0
 55 57  1  0  0  0
 55128  1  0  0  0
 56 69  2  0  0  0
 57 58  2  0  0  0
 57129  1  0  0  0
 58130  1  0  0  0
 59 60  1  0  0  0
 59 61  1  0  0  0
 59 62  1  0  0  0
 60131  1  0  0  0
 60132  1  0  0  0
 60133  1  0  0  0
 61134  1  0  0  0
 61135  1  0  0  0
 61136  1  0  0  0
 62137  1  0  0  0
 62138  1  0  0  0
 62139  1  0  0  0
 63 65  1  0  0  0
 63140  1  0  0  0
 63141  1  0  0  0
 63142  1  0  0  0
 64143  1  0  0  0
 65144  1  0  0  0
 68 80  1  0  0  0
 71 72  2  0  0  0
 71 83  1  0  0  0
 71145  1  0  0  0
 72 77  1  0  0  0
 72 84  1  0  0  0
 73 81  1  0  0  0
 73 83  1  0  0  0
 73 84  2  0  0  0
 74146  1  0  0  0
 74147  1  0  0  0
 74148  1  0  0  0
 74 81  1  0  0  0
 75 81  1  0  0  0
 75149  1  0  0  0
 75150  1  0  0  0
 75151  1  0  0  0
 76152  1  0  0  0
 76153  1  0  0  0
 76154  1  0  0  0
 76 82  1  0  0  0
 77 85  1  0  0  0
 77155  1  0  0  0
 77156  1  0  0  0
 78 79  1  0  0  0
 78 82  1  0  0  0
 78157  1  0  0  0
 78158  1  0  0  0
 79 83  1  0  0  0
 79159  1  0  0  0
 79160  1  0  0  0
 80 82  1  0  0  0
 80161  1  0  0  0
 80162  1  0  0  0
 81163  1  0  0  0
 82164  1  0  0  0
 84165  1  0  0  0
 85166  1  0  0  0
M  CHG  1  84   1
M  ISO  4   1 100  68 101  80 101  85 100
M  END
> <chiral flag>
0

> <version>
0

> <s_m_source_file>
/data/baiqing/PycharmProjects/Reinvent-master-3.2/result/LINK_invent/BTK/process_docking_weight1_custom_sum_contain_oxygen_bond_distance_aromatic_linkinvent_7_9_3/rearranged_h_0093.sdf

> <i_m_source_file_index>
48

> <r_mmod_Potential_Energy-OPLS-2005>
-83.876091003418

> <r_mmod_Stretch_Energy-OPLS-2005>
49.6003952026367

> <r_mmod_Bend_Energy-OPLS-2005>
131.300918579102

> <r_mmod_Torsional_Energy-OPLS-2005>
279.558166503906

> <r_mmod_Improper_Torsional_Energy-OPLS-2005>
9.64472389221191

> <r_mmod_Van_der_Waal_Energy-OPLS-2005>
124.485336303711

> <r_mmod_Electrostatic_Energy-OPLS-2005>
-291.972625732422

> <r_mmod_Solvation_Energy-OPLS-2005>
-411.853668212891

> <b_mmod_Minimization_Converged-OPLS-2005>
0

> <r_mmod_RMS_Derivative-OPLS-2005>
6.85450506210327

$$$$
48
                    3D
 Structure written by MMmdl.
175183  0  0  1  0            999 V2000
  -30.7194  -14.4415   20.5302 C   0  0  0  0  0  0
  -30.4086  -12.2755   19.4317 C   0  0  0  0  0  0
  -29.4902  -12.5042   18.2147 C   0  0  0  0  0  0
  -28.0095  -12.3802   18.6242 C   0  0  0  0  0  0
  -27.6616  -13.2166   19.8862 C   0  0  2  0  0  0
  -28.7062  -13.0095   21.0114 C   0  0  0  0  0  0
  -25.2545  -13.8193   20.5725 C   0  0  0  0  0  0
  -24.1811  -13.0433   20.9248 C   0  0  0  0  0  0
  -24.6386  -11.6915   20.8741 C   0  0  0  0  0  0
  -23.9061  -10.4267   21.0335 C   0  0  0  0  0  0
  -24.3612   -9.4189   21.9121 C   0  0  0  0  0  0
  -23.6317   -8.2207   22.0699 C   0  0  0  0  0  0
  -22.4299   -8.0248   21.3504 C   0  0  0  0  0  0
  -21.9909   -9.0205   20.4605 C   0  0  0  0  0  0
  -22.7225  -10.2095   20.2994 C   0  0  0  0  0  0
  -21.6825   -6.0749   22.5263 C   0  0  0  0  0  0
  -21.4006   -6.5655   23.8220 C   0  0  0  0  0  0
  -21.3646   -5.6780   24.9168 C   0  0  0  0  0  0
  -21.6038   -4.3051   24.7192 C   0  0  0  0  0  0
  -21.8827   -3.8178   23.4314 C   0  0  0  0  0  0
  -21.9194   -4.6987   22.3384 C   0  0  0  0  0  0
  -22.7854  -13.5190   21.1912 C   0  0  0  0  0  0
  -22.1673   -4.2174   21.0964 F   0  0  0  0  0  0
  -21.5618   -3.4533   25.7712 F   0  0  0  0  0  0
  -30.0429  -13.2703   20.4500 N   0  0  0  0  0  0
  -26.3026  -12.9378   20.3469 N   0  0  0  0  0  0
  -25.9359  -11.6542   20.5894 N   0  0  0  0  0  0
  -22.0550  -12.8123   22.0478 N   0  0  0  0  0  0
  -25.4224  -15.1870   20.3970 N   0  0  0  0  0  0
  -31.8695  -14.5957   20.1131 O   0  0  0  0  0  0
  -21.6628   -6.8873   21.4228 O   0  0  0  0  0  0
  -22.3520  -14.5495   20.6792 O   0  0  0  0  0  0
  -24.6099  -31.8707   23.2122 C   0  0  0  0  0  0
  -25.9014  -32.4831   23.8406 C   0  0  1  0  0  0
  -27.2422  -27.4760   20.0878 C   0  0  0  0  0  0
  -25.5881  -33.8634   24.2339 N   0  0  0  0  0  0
  -23.3958  -30.4926   21.5534 C   0  0  2  0  0  0
  -24.8391  -28.9557   20.1215 C   0  0  0  0  0  0
  -22.7370  -29.4681   22.5030 C   0  0  0  0  0  0
  -18.0258  -28.1376   22.8513 C   0  0  0  0  0  0
  -24.1485  -36.7340   23.2642 C   0  0  0  0  0  0
  -25.9180  -30.8500   21.3538 C   0  0  0  0  0  0
  -25.9949  -29.4835   20.7090 C   0  0  0  0  0  0
  -27.1949  -28.7493   20.6870 C   0  0  0  0  0  0
  -26.0646  -26.9432   19.5112 C   0  0  0  0  0  0
  -24.8669  -27.6836   19.5239 C   0  0  0  0  0  0
  -23.6008  -29.8183   20.1696 C   0  0  0  0  0  0
  -25.4101  -36.3132   24.0346 C   0  0  1  0  0  0
  -20.5839  -28.3651   23.1360 C   0  0  2  0  0  0
  -20.6741  -26.9400   22.5437 C   0  0  0  0  0  0
  -19.5724  -26.6394   21.5231 C   0  0  0  0  0  0
  -18.1901  -26.7927   22.1631 C   0  0  0  0  0  0
  -19.1505  -28.8836   23.2932 C   0  0  0  0  0  0
  -18.9433  -30.1441   23.8948 C   0  0  0  0  0  0
  -17.6442  -30.6593   24.0576 C   0  0  0  0  0  0
  -25.9021  -34.9486   23.5136 C   0  0  0  0  0  0
  -16.5331  -29.9111   23.6315 C   0  0  0  0  0  0
  -16.7249  -28.6513   23.0355 C   0  0  0  0  0  0
  -26.4465  -31.6619   25.0729 C   0  0  0  0  0  0
  -25.3741  -31.3722   26.1487 C   0  0  0  0  0  0
  -27.0283  -30.3074   24.6065 C   0  0  0  0  0  0
  -27.6033  -32.4342   25.7484 C   0  0  0  0  0  0
  -27.5579  -37.1821   24.8456 C   0  0  0  0  0  0
  -21.4101  -29.3017   22.3774 N   0  0  0  0  0  0
  -26.4286  -37.3809   23.9406 N   0  0  0  0  0  0
  -24.6604  -31.0846   22.1002 N   0  0  0  0  0  0
  -23.4161  -28.8201   23.3037 O   0  0  0  0  0  0
  -28.4588  -26.8432   20.0747 O   0  0  0  0  0  0
  -26.5583  -34.8936   22.4692 O   0  0  0  0  0  0
  -23.5296  -32.1432   23.7557 O   0  0  0  0  0  0
  -29.7482  -19.9736   19.0778 C   0  0  0  0  0  0
  -29.6764  -20.6811   17.8548 C   0  0  0  0  0  0
  -29.0060  -18.7856   19.1988 C   0  0  0  0  0  0
  -28.8229  -20.1548   16.8325 C   0  0  0  0  0  0
  -30.6148  -25.4622   21.2875 C   0  0  0  0  0  0
  -29.9469  -20.2513   14.5638 C   0  0  0  0  0  0
  -28.4796  -22.2120   15.2762 C   0  0  0  0  0  0
  -27.4735  -20.0772   14.6462 C   0  0  0  0  0  0
  -30.5969  -21.8814   17.6901 C   0  0  0  0  0  0
  -29.1301  -17.8553   20.3959 C   0  0  0  0  0  0
  -29.9813  -23.2233   18.1301 C   0  0  0  0  0  0
  -30.2762  -23.5882   19.5976 C   0  0  0  0  0  0
  -30.2373  -16.8052   20.1752 C   0  0  0  0  0  0
  -28.5237  -25.4499   19.8300 C   0  0  0  0  0  0
  -30.0162  -25.0752   19.9194 C   0  0  1  0  0  0
  -28.7062  -20.6837   15.3707 C   0  0  0  0  0  0
  -28.2200  -18.3294   18.2036 N   0  0  0  0  0  0
  -28.1444  -18.9973   17.0541 N   0  0  0  0  0  0
  -29.9631  -15.5116   20.8074 N   0  0  0  0  0  0
  -31.4594  -12.3368   19.1362 H   0  0  0  0  0  0
  -30.2697  -11.2705   19.8259 H   0  0  0  0  0  0
  -29.7221  -11.7917   17.4216 H   0  0  0  0  0  0
  -29.6761  -13.4927   17.7971 H   0  0  0  0  0  0
  -27.8044  -11.3263   18.8158 H   0  0  0  0  0  0
  -27.3662  -12.6654   17.7931 H   0  0  0  0  0  0
  -27.6988  -14.2667   19.5927 H   0  0  0  0  0  0
  -28.6698  -11.9936   21.4053 H   0  0  0  0  0  0
  -28.4880  -13.6608   21.8586 H   0  0  0  0  0  0
  -25.2718   -9.5695   22.4743 H   0  0  0  0  0  0
  -24.0032   -7.4585   22.7401 H   0  0  0  0  0  0
  -21.0846   -8.8730   19.8900 H   0  0  0  0  0  0
  -22.3665  -10.9642   19.6140 H   0  0  0  0  0  0
  -21.2009   -7.6166   23.9720 H   0  0  0  0  0  0
  -21.1458   -6.0521   25.9059 H   0  0  0  0  0  0
  -22.0619   -2.7643   23.2817 H   0  0  0  0  0  0
  -22.4236  -11.9798   22.4824 H   0  0  0  0  0  0
  -21.1138  -13.1045   22.2665 H   0  0  0  0  0  0
  -24.6359  -15.8235   20.4542 H   0  0  0  0  0  0
  -26.2462  -15.6103   19.9920 H   0  0  0  0  0  0
  -26.7087  -32.5572   23.1174 H   0  0  0  0  0  0
  -25.0034  -33.9803   25.0491 H   0  0  0  0  0  0
  -22.6841  -31.3082   21.4138 H   0  0  0  0  0  0
  -23.3733  -35.9681   23.3300 H   0  0  0  0  0  0
  -24.3577  -36.8957   22.2051 H   0  0  0  0  0  0
  -23.7240  -37.6552   23.6648 H   0  0  0  0  0  0
  -26.0096  -31.6128   20.5779 H   0  0  0  0  0  0
  -26.8121  -30.9169   21.9595 H   0  0  0  0  0  0
  -28.0911  -29.1598   21.1293 H   0  0  0  0  0  0
  -26.0564  -25.9729   19.0366 H   0  0  0  0  0  0
  -23.9728  -27.2703   19.0760 H   0  0  0  0  0  0
  -23.7085  -30.5904   19.4074 H   0  0  0  0  0  0
  -22.7255  -29.2351   19.8740 H   0  0  0  0  0  0
  -25.1271  -36.2005   25.0836 H   0  0  0  0  0  0
  -20.9934  -28.3202   24.1476 H   0  0  0  0  0  0
  -20.5659  -26.2249   23.3609 H   0  0  0  0  0  0
  -21.6611  -26.7448   22.1215 H   0  0  0  0  0  0
  -19.6872  -25.6316   21.1235 H   0  0  0  0  0  0
  -19.6661  -27.3224   20.6783 H   0  0  0  0  0  0
  -17.4170  -26.6711   21.4028 H   0  0  0  0  0  0
  -18.0275  -26.0067   22.9017 H   0  0  0  0  0  0
  -19.7912  -30.7243   24.2339 H   0  0  0  0  0  0
  -17.4998  -31.6272   24.5171 H   0  0  0  0  0  0
  -15.5336  -30.3022   23.7626 H   0  0  0  0  0  0
  -15.8642  -28.0853   22.7044 H   0  0  0  0  0  0
  -24.5886  -30.7105   25.7832 H   0  0  0  0  0  0
  -24.8972  -32.2884   26.4972 H   0  0  0  0  0  0
  -25.8107  -30.8862   27.0219 H   0  0  0  0  0  0
  -26.2817  -29.6837   24.1139 H   0  0  0  0  0  0
  -27.4095  -29.7303   25.4499 H   0  0  0  0  0  0
  -27.8621  -30.4402   23.9165 H   0  0  0  0  0  0
  -27.2638  -33.3612   26.2103 H   0  0  0  0  0  0
  -28.3816  -32.6955   25.0307 H   0  0  0  0  0  0
  -28.0727  -31.8454   26.5367 H   0  0  0  0  0  0
  -28.2600  -38.0124   24.7516 H   0  0  0  0  0  0
  -28.1085  -36.2653   24.6264 H   0  0  0  0  0  0
  -27.2303  -37.1448   25.8867 H   0  0  0  0  0  0
  -20.9262  -29.8778   21.7032 H   0  0  0  0  0  0
  -26.0190  -38.2890   24.1418 H   0  0  0  0  0  0
  -30.3985  -20.2957   19.8793 H   0  0  0  0  0  0
  -31.6638  -25.1685   21.3628 H   0  0  0  0  0  0
  -30.0755  -25.0002   22.1137 H   0  0  0  0  0  0
  -30.5748  -26.5426   21.4433 H   0  0  0  0  0  0
  -30.8744  -20.6393   14.9732 H   0  0  0  0  0  0
  -29.8875  -20.5843   13.5279 H   0  0  0  0  0  0
  -30.0394  -19.1655   14.5529 H   0  0  0  0  0  0
  -29.3237  -22.8181   15.5831 H   0  0  0  0  0  0
  -27.6219  -22.5173   15.8751 H   0  0  0  0  0  0
  -28.2696  -22.5114   14.2487 H   0  0  0  0  0  0
  -27.5417  -18.9926   14.5664 H   0  0  0  0  0  0
  -27.3791  -20.4390   13.6232 H   0  0  0  0  0  0
  -26.5459  -20.3084   15.1695 H   0  0  0  0  0  0
  -30.9371  -21.9461   16.6619 H   0  0  0  0  0  0
  -31.5209  -21.7002   18.2373 H   0  0  0  0  0  0
  -28.1638  -17.3739   20.5507 H   0  0  0  0  0  0
  -29.3268  -18.4343   21.2984 H   0  0  0  0  0  0
  -28.9114  -23.2458   17.9173 H   0  0  0  0  0  0
  -30.4241  -23.9978   17.4998 H   0  0  0  0  0  0
  -31.3313  -23.3878   19.7895 H   0  0  0  0  0  0
  -29.7157  -22.9415   20.2764 H   0  0  0  0  0  0
  -31.2028  -17.1953   20.5015 H   0  0  0  0  0  0
  -30.3282  -16.6153   19.1026 H   0  0  0  0  0  0
  -27.9307  -24.9029   20.5653 H   0  0  0  0  0  0
  -28.1354  -25.2252   18.8366 H   0  0  0  0  0  0
  -30.5442  -25.6692   19.1710 H   0  0  0  0  0  0
  -29.0237  -15.3350   21.1322 H   0  0  0  0  0  0
  1 25  1  0  0  0
  1 30  2  0  0  0
  1 89  1  0  0  0
  2  3  1  0  0  0
  2 25  1  0  0  0
  2 90  1  0  0  0
  2 91  1  0  0  0
  3  4  1  0  0  0
  3 92  1  0  0  0
  3 93  1  0  0  0
  4  5  1  0  0  0
  4 94  1  0  0  0
  4 95  1  0  0  0
  5  6  1  0  0  0
  5 26  1  0  0  0
  5 96  1  0  0  0
  6 25  1  0  0  0
  6 97  1  0  0  0
  6 98  1  0  0  0
  7  8  2  0  0  0
  7 26  1  0  0  0
  7 29  1  0  0  0
  8  9  1  0  0  0
  8 22  1  0  0  0
  9 10  1  0  0  0
  9 27  2  0  0  0
 10 11  2  0  0  0
 10 15  1  0  0  0
 11 12  1  0  0  0
 11 99  1  0  0  0
 12 13  2  0  0  0
 12100  1  0  0  0
 13 14  1  0  0  0
 13 31  1  0  0  0
 14 15  2  0  0  0
 14101  1  0  0  0
 15102  1  0  0  0
 16 17  2  0  0  0
 16 21  1  0  0  0
 16 31  1  0  0  0
 17 18  1  0  0  0
 17103  1  0  0  0
 18 19  2  0  0  0
 18104  1  0  0  0
 19 20  1  0  0  0
 19 24  1  0  0  0
 20 21  2  0  0  0
 20105  1  0  0  0
 21 23  1  0  0  0
 22 28  1  0  0  0
 22 32  2  0  0  0
 26 27  1  0  0  0
 28106  1  0  0  0
 28107  1  0  0  0
 29108  1  0  0  0
 29109  1  0  0  0
 33 34  1  0  0  0
 33 66  1  0  0  0
 33 70  2  0  0  0
 34 36  1  0  0  0
 34 59  1  0  0  0
 34110  1  0  0  0
 35 44  2  0  0  0
 35 45  1  0  0  0
 35 68  1  0  0  0
 36 56  1  0  0  0
 36111  1  0  0  0
 37 39  1  0  0  0
 37 47  1  0  0  0
 37 66  1  0  0  0
 37112  1  0  0  0
 38 43  2  0  0  0
 38 46  1  0  0  0
 38 47  1  0  0  0
 39 64  1  0  0  0
 39 67  2  0  0  0
 40 52  1  0  0  0
 40 53  2  0  0  0
 40 58  1  0  0  0
 41113  1  0  0  0
 41114  1  0  0  0
 41115  1  0  0  0
 41 48  1  0  0  0
 42 43  1  0  0  0
 42 66  1  0  0  0
 42116  1  0  0  0
 42117  1  0  0  0
 43 44  1  0  0  0
 44118  1  0  0  0
 45 46  2  0  0  0
 45119  1  0  0  0
 46120  1  0  0  0
 47121  1  0  0  0
 47122  1  0  0  0
 48 56  1  0  0  0
 48 65  1  0  0  0
 48123  1  0  0  0
 49 50  1  0  0  0
 49 53  1  0  0  0
 49 64  1  0  0  0
 49124  1  0  0  0
 50 51  1  0  0  0
 50125  1  0  0  0
 50126  1  0  0  0
 51 52  1  0  0  0
 51127  1  0  0  0
 51128  1  0  0  0
 52129  1  0  0  0
 52130  1  0  0  0
 53 54  1  0  0  0
 54 55  2  0  0  0
 54131  1  0  0  0
 55 57  1  0  0  0
 55132  1  0  0  0
 56 69  2  0  0  0
 57 58  2  0  0  0
 57133  1  0  0  0
 58134  1  0  0  0
 59 60  1  0  0  0
 59 61  1  0  0  0
 59 62  1  0  0  0
 60135  1  0  0  0
 60136  1  0  0  0
 60137  1  0  0  0
 61138  1  0  0  0
 61139  1  0  0  0
 61140  1  0  0  0
 62141  1  0  0  0
 62142  1  0  0  0
 62143  1  0  0  0
 63 65  1  0  0  0
 63144  1  0  0  0
 63145  1  0  0  0
 63146  1  0  0  0
 64147  1  0  0  0
 65148  1  0  0  0
 68 84  1  0  0  0
 71 72  2  0  0  0
 71 73  1  0  0  0
 71149  1  0  0  0
 72 74  1  0  0  0
 72 79  1  0  0  0
 73 80  1  0  0  0
 73 87  2  0  0  0
 74 86  1  0  0  0
 74 88  2  0  0  0
 75150  1  0  0  0
 75151  1  0  0  0
 75152  1  0  0  0
 75 85  1  0  0  0
 76153  1  0  0  0
 76154  1  0  0  0
 76155  1  0  0  0
 76 86  1  0  0  0
 77 86  1  0  0  0
 77156  1  0  0  0
 77157  1  0  0  0
 77158  1  0  0  0
 78 86  1  0  0  0
 78159  1  0  0  0
 78160  1  0  0  0
 78161  1  0  0  0
 79 81  1  0  0  0
 79162  1  0  0  0
 79163  1  0  0  0
 80 83  1  0  0  0
 80164  1  0  0  0
 80165  1  0  0  0
 81 82  1  0  0  0
 81166  1  0  0  0
 81167  1  0  0  0
 82 85  1  0  0  0
 82168  1  0  0  0
 82169  1  0  0  0
 83 89  1  0  0  0
 83170  1  0  0  0
 83171  1  0  0  0
 84 85  1  0  0  0
 84172  1  0  0  0
 84173  1  0  0  0
 85174  1  0  0  0
 87 88  1  0  0  0
 89175  1  0  0  0
M  ISO  4   1 100  68 101  84 101  89 100
M  END
> <chiral flag>
0

> <version>
0

> <s_m_source_file>
/data/baiqing/PycharmProjects/Reinvent-master-3.2/result/LINK_invent/BTK/process_docking_weight1_custom_sum_contain_oxygen_bond_distance_aromatic_linkinvent_7_9_3/rearranged_h_0093.sdf

> <i_m_source_file_index>
49

> <r_mmod_Potential_Energy-OPLS-2005>
11.0294370651245

> <r_mmod_Stretch_Energy-OPLS-2005>
38.5057640075684

> <r_mmod_Bend_Energy-OPLS-2005>
120.508918762207

> <r_mmod_Torsional_Energy-OPLS-2005>
225.010162353516

> <r_mmod_Improper_Torsional_Energy-OPLS-2005>
10.6322526931763

> <r_mmod_Van_der_Waal_Energy-OPLS-2005>
169.331176757812

> <r_mmod_Electrostatic_Energy-OPLS-2005>
-348.540374755859

> <r_mmod_Solvation_Energy-OPLS-2005>
-217.648330688477

> <b_mmod_Minimization_Converged-OPLS-2005>
0

> <r_mmod_RMS_Derivative-OPLS-2005>
5.0198073387146

$$$$
49
                    3D
 Structure written by MMmdl.
177185  0  0  1  0            999 V2000
  -30.7163  -14.4505   20.6023 C   0  0  0  0  0  0
  -30.4318  -12.2959   19.4306 C   0  0  0  0  0  0
  -29.5085  -12.5105   18.2160 C   0  0  0  0  0  0
  -28.0264  -12.3749   18.6186 C   0  0  0  0  0  0
  -27.6706  -13.2066   19.8796 C   0  0  2  0  0  0
  -28.7068  -12.9776   21.0042 C   0  0  0  0  0  0
  -25.2641  -13.8177   20.5649 C   0  0  0  0  0  0
  -24.1860  -13.0444   20.9148 C   0  0  0  0  0  0
  -24.6422  -11.6926   20.8715 C   0  0  0  0  0  0
  -23.9089  -10.4302   21.0386 C   0  0  0  0  0  0
  -24.3633   -9.4212   21.9177 C   0  0  0  0  0  0
  -23.6292   -8.2253   22.0754 C   0  0  0  0  0  0
  -22.4280   -8.0296   21.3537 C   0  0  0  0  0  0
  -21.9920   -9.0270   20.4638 C   0  0  0  0  0  0
  -22.7258  -10.2145   20.3037 C   0  0  0  0  0  0
  -21.6867   -6.0750   22.5282 C   0  0  0  0  0  0
  -21.4012   -6.5637   23.8222 C   0  0  0  0  0  0
  -21.3655   -5.6786   24.9177 C   0  0  0  0  0  0
  -21.6039   -4.3053   24.7224 C   0  0  0  0  0  0
  -21.8820   -3.8145   23.4347 C   0  0  0  0  0  0
  -21.9188   -4.6969   22.3403 C   0  0  0  0  0  0
  -22.7882  -13.5231   21.1794 C   0  0  0  0  0  0
  -22.1661   -4.2149   21.0985 F   0  0  0  0  0  0
  -21.5626   -3.4530   25.7739 F   0  0  0  0  0  0
  -30.0487  -13.2714   20.4644 N   0  0  0  0  0  0
  -26.3078  -12.9333   20.3351 N   0  0  0  0  0  0
  -25.9353  -11.6490   20.5744 N   0  0  0  0  0  0
  -22.0519  -12.8236   22.0366 N   0  0  0  0  0  0
  -25.4357  -15.1899   20.4102 N   0  0  0  0  0  0
  -31.8083  -14.6754   20.0755 O   0  0  0  0  0  0
  -21.6638   -6.8894   21.4249 O   0  0  0  0  0  0
  -22.3561  -14.5522   20.6642 O   0  0  0  0  0  0
  -24.6077  -31.8741   23.2105 C   0  0  0  0  0  0
  -25.9007  -32.4829   23.8427 C   0  0  1  0  0  0
  -27.2354  -27.4733   20.0714 C   0  0  0  0  0  0
  -25.5933  -33.8639   24.2398 N   0  0  0  0  0  0
  -23.3939  -30.4901   21.5569 C   0  0  2  0  0  0
  -24.8421  -28.9631   20.1123 C   0  0  0  0  0  0
  -22.7416  -29.4615   22.5085 C   0  0  0  0  0  0
  -18.0261  -28.1358   22.8473 C   0  0  0  0  0  0
  -24.1491  -36.7263   23.2648 C   0  0  0  0  0  0
  -25.9179  -30.8477   21.3543 C   0  0  0  0  0  0
  -25.9990  -29.4841   20.7047 C   0  0  0  0  0  0
  -27.2019  -28.7441   20.6859 C   0  0  0  0  0  0
  -26.0662  -26.9584   19.4766 C   0  0  0  0  0  0
  -24.8667  -27.6977   19.5012 C   0  0  0  0  0  0
  -23.5972  -29.8199   20.1723 C   0  0  0  0  0  0
  -25.4106  -36.3115   24.0378 C   0  0  1  0  0  0
  -20.5857  -28.3613   23.1354 C   0  0  2  0  0  0
  -20.6750  -26.9355   22.5436 C   0  0  0  0  0  0
  -19.5726  -26.6361   21.5215 C   0  0  0  0  0  0
  -18.1896  -26.7901   22.1609 C   0  0  0  0  0  0
  -19.1521  -28.8801   23.2886 C   0  0  0  0  0  0
  -18.9460  -30.1418   23.8856 C   0  0  0  0  0  0
  -17.6480  -30.6557   24.0526 C   0  0  0  0  0  0
  -25.9038  -34.9484   23.5189 C   0  0  0  0  0  0
  -16.5352  -29.9051   23.6341 C   0  0  0  0  0  0
  -16.7268  -28.6483   23.0324 C   0  0  0  0  0  0
  -26.4380  -31.6535   25.0728 C   0  0  0  0  0  0
  -25.3613  -31.3581   26.1456 C   0  0  0  0  0  0
  -27.0107  -30.2989   24.5930 C   0  0  0  0  0  0
  -27.6020  -32.4095   25.7563 C   0  0  0  0  0  0
  -27.5569  -37.1768   24.8507 C   0  0  0  0  0  0
  -21.4153  -29.2963   22.3786 N   0  0  0  0  0  0
  -26.4292  -37.3786   23.9452 N   0  0  0  0  0  0
  -24.6577  -31.0857   22.0981 N   0  0  0  0  0  0
  -23.4236  -28.8149   23.3073 O   0  0  0  0  0  0
  -28.3856  -26.7191   20.0515 O   0  0  0  0  0  0
  -26.5542  -34.8903   22.4716 O   0  0  0  0  0  0
  -23.5297  -32.1530   23.7497 O   0  0  0  0  0  0
  -28.0805  -21.0774   20.8291 C   0  0  0  0  0  0
  -28.3418  -19.7041   20.9096 C   0  0  0  0  0  0
  -28.6892  -21.9702   21.7272 C   0  0  0  0  0  0
  -29.2475  -19.1795   21.8567 C   0  0  0  0  0  0
  -29.6778  -21.4888   22.6361 C   0  0  0  0  0  0
  -30.0012  -20.0843   22.6836 C   0  0  0  0  0  0
  -28.4558  -22.9579   25.2864 C   0  0  0  0  0  0
  -32.5220  -19.7149   22.8004 C   0  0  0  0  0  0
  -31.0697  -18.3300   24.3714 C   0  0  0  0  0  0
  -29.5792  -26.4890   22.1164 C   0  0  0  0  0  0
  -28.1824  -23.4157   21.7452 C   0  0  0  0  0  0
  -29.2366  -17.6433   21.9625 C   0  0  0  0  0  0
  -30.3905  -22.5106   23.5489 C   0  0  0  0  0  0
  -29.9095  -22.5327   25.0235 C   0  0  0  0  0  0
  -28.8584  -24.4065   20.7741 C   0  0  0  0  0  0
  -30.3067  -16.8634   21.1636 C   0  0  0  0  0  0
  -31.1960  -19.6350   23.5732 C   0  0  0  0  0  0
  -28.5259  -25.8650   21.1872 C   0  0  2  0  0  0
  -30.0362  -15.4200   21.2364 N   0  0  0  0  0  0
  -31.4745  -12.3947   19.1265 H   0  0  0  0  0  0
  -30.3310  -11.2793   19.8143 H   0  0  0  0  0  0
  -29.7550  -11.7980   17.4273 H   0  0  0  0  0  0
  -29.6874  -13.5026   17.7983 H   0  0  0  0  0  0
  -27.8314  -11.3192   18.8053 H   0  0  0  0  0  0
  -27.3844  -12.6592   17.7840 H   0  0  0  0  0  0
  -27.7193  -14.2577   19.5928 H   0  0  0  0  0  0
  -28.6696  -11.9444   21.3542 H   0  0  0  0  0  0
  -28.4564  -13.5836   21.8761 H   0  0  0  0  0  0
  -25.2802   -9.5683   22.4722 H   0  0  0  0  0  0
  -24.0012   -7.4646   22.7479 H   0  0  0  0  0  0
  -21.0852   -8.8789   19.8939 H   0  0  0  0  0  0
  -22.3740  -10.9671   19.6112 H   0  0  0  0  0  0
  -21.2012   -7.6141   23.9728 H   0  0  0  0  0  0
  -21.1470   -6.0510   25.9081 H   0  0  0  0  0  0
  -22.0602   -2.7600   23.2848 H   0  0  0  0  0  0
  -22.4132  -11.9920   22.4785 H   0  0  0  0  0  0
  -21.1115  -13.1234   22.2493 H   0  0  0  0  0  0
  -24.6696  -15.8474   20.5170 H   0  0  0  0  0  0
  -26.2957  -15.6338   20.1111 H   0  0  0  0  0  0
  -26.7095  -32.5521   23.1208 H   0  0  0  0  0  0
  -25.0279  -33.9857   25.0674 H   0  0  0  0  0  0
  -22.6799  -31.3048   21.4209 H   0  0  0  0  0  0
  -23.3772  -35.9579   23.3337 H   0  0  0  0  0  0
  -24.3592  -36.8825   22.2056 H   0  0  0  0  0  0
  -23.7229  -37.6469   23.6638 H   0  0  0  0  0  0
  -26.0345  -31.6093   20.5832 H   0  0  0  0  0  0
  -26.8062  -30.9082   21.9672 H   0  0  0  0  0  0
  -28.0966  -29.1483   21.1378 H   0  0  0  0  0  0
  -26.0750  -25.9826   19.0114 H   0  0  0  0  0  0
  -23.9714  -27.2955   19.0483 H   0  0  0  0  0  0
  -23.6887  -30.5941   19.4108 H   0  0  0  0  0  0
  -22.7273  -29.2270   19.8817 H   0  0  0  0  0  0
  -25.1272  -36.2002   25.0865 H   0  0  0  0  0  0
  -20.9901  -28.3134   24.1486 H   0  0  0  0  0  0
  -20.5668  -26.2156   23.3594 H   0  0  0  0  0  0
  -21.6605  -26.7407   22.1169 H   0  0  0  0  0  0
  -19.6888  -25.6291   21.1163 H   0  0  0  0  0  0
  -19.6673  -27.3225   20.6788 H   0  0  0  0  0  0
  -17.4180  -26.6678   21.3983 H   0  0  0  0  0  0
  -18.0234  -26.0072   22.9016 H   0  0  0  0  0  0
  -19.7962  -30.7211   24.2187 H   0  0  0  0  0  0
  -17.5064  -31.6226   24.5148 H   0  0  0  0  0  0
  -15.5349  -30.2931   23.7714 H   0  0  0  0  0  0
  -15.8664  -28.0791   22.7039 H   0  0  0  0  0  0
  -24.5822  -30.6897   25.7749 H   0  0  0  0  0  0
  -24.8742  -32.2694   26.4938 H   0  0  0  0  0  0
  -25.7978  -30.8721   27.0197 H   0  0  0  0  0  0
  -26.2583  -29.6941   24.0833 H   0  0  0  0  0  0
  -27.3750  -29.7022   25.4306 H   0  0  0  0  0  0
  -27.8541  -30.4328   23.9137 H   0  0  0  0  0  0
  -27.2752  -33.3430   26.2157 H   0  0  0  0  0  0
  -28.3944  -32.6507   25.0456 H   0  0  0  0  0  0
  -28.0520  -31.8101   26.5503 H   0  0  0  0  0  0
  -28.2601  -38.0034   24.7561 H   0  0  0  0  0  0
  -28.1052  -36.2591   24.6358 H   0  0  0  0  0  0
  -27.2302  -37.1417   25.8905 H   0  0  0  0  0  0
  -20.9388  -29.8741   21.7009 H   0  0  0  0  0  0
  -26.0199  -38.2875   24.1439 H   0  0  0  0  0  0
  -27.3520  -21.4340   20.1122 H   0  0  0  0  0  0
  -27.7934  -19.0320   20.2617 H   0  0  0  0  0  0
  -28.2301  -22.8503   26.3484 H   0  0  0  0  0  0
  -27.7387  -22.3404   24.7447 H   0  0  0  0  0  0
  -28.2747  -24.0004   25.0262 H   0  0  0  0  0  0
  -32.5587  -18.9971   21.9850 H   0  0  0  0  0  0
  -33.3695  -19.5278   23.4603 H   0  0  0  0  0  0
  -32.6724  -20.7038   22.3643 H   0  0  0  0  0  0
  -30.1214  -18.2745   24.9091 H   0  0  0  0  0  0
  -31.8615  -18.2679   25.1193 H   0  0  0  0  0  0
  -31.1881  -17.4468   23.7516 H   0  0  0  0  0  0
  -29.2994  -27.5051   22.3885 H   0  0  0  0  0  0
  -30.5559  -26.5431   21.6362 H   0  0  0  0  0  0
  -29.6875  -25.9256   23.0449 H   0  0  0  0  0  0
  -28.2421  -23.8060   22.7565 H   0  0  0  0  0  0
  -27.1108  -23.4144   21.5408 H   0  0  0  0  0  0
  -28.2648  -17.3004   21.5987 H   0  0  0  0  0  0
  -29.1972  -17.3417   23.0035 H   0  0  0  0  0  0
  -30.3446  -23.5162   23.1373 H   0  0  0  0  0  0
  -31.4643  -22.3212   23.5337 H   0  0  0  0  0  0
  -30.0423  -21.5555   25.4801 H   0  0  0  0  0  0
  -30.5698  -23.2013   25.5765 H   0  0  0  0  0  0
  -28.5133  -24.1856   19.7631 H   0  0  0  0  0  0
  -29.9407  -24.2676   20.7630 H   0  0  0  0  0  0
  -31.3153  -17.0833   21.5126 H   0  0  0  0  0  0
  -30.2649  -17.1665   20.1152 H   0  0  0  0  0  0
  -31.3214  -20.3441   24.3784 H   0  0  0  0  0  0
  -27.5841  -25.8455   21.7412 H   0  0  0  0  0  0
  -29.1654  -15.1394   21.6614 H   0  0  0  0  0  0
  1 25  1  0  0  0
  1 30  2  0  0  0
  1 89  1  0  0  0
  2  3  1  0  0  0
  2 25  1  0  0  0
  2 90  1  0  0  0
  2 91  1  0  0  0
  3  4  1  0  0  0
  3 92  1  0  0  0
  3 93  1  0  0  0
  4  5  1  0  0  0
  4 94  1  0  0  0
  4 95  1  0  0  0
  5  6  1  0  0  0
  5 26  1  0  0  0
  5 96  1  0  0  0
  6 25  1  0  0  0
  6 97  1  0  0  0
  6 98  1  0  0  0
  7  8  2  0  0  0
  7 26  1  0  0  0
  7 29  1  0  0  0
  8  9  1  0  0  0
  8 22  1  0  0  0
  9 10  1  0  0  0
  9 27  2  0  0  0
 10 11  2  0  0  0
 10 15  1  0  0  0
 11 12  1  0  0  0
 11 99  1  0  0  0
 12 13  2  0  0  0
 12100  1  0  0  0
 13 14  1  0  0  0
 13 31  1  0  0  0
 14 15  2  0  0  0
 14101  1  0  0  0
 15102  1  0  0  0
 16 17  2  0  0  0
 16 21  1  0  0  0
 16 31  1  0  0  0
 17 18  1  0  0  0
 17103  1  0  0  0
 18 19  2  0  0  0
 18104  1  0  0  0
 19 20  1  0  0  0
 19 24  1  0  0  0
 20 21  2  0  0  0
 20105  1  0  0  0
 21 23  1  0  0  0
 22 28  1  0  0  0
 22 32  2  0  0  0
 26 27  1  0  0  0
 28106  1  0  0  0
 28107  1  0  0  0
 29108  1  0  0  0
 29109  1  0  0  0
 33 34  1  0  0  0
 33 66  1  0  0  0
 33 70  2  0  0  0
 34 36  1  0  0  0
 34 59  1  0  0  0
 34110  1  0  0  0
 35 44  2  0  0  0
 35 45  1  0  0  0
 35 68  1  0  0  0
 36 56  1  0  0  0
 36111  1  0  0  0
 37 39  1  0  0  0
 37 47  1  0  0  0
 37 66  1  0  0  0
 37112  1  0  0  0
 38 43  2  0  0  0
 38 46  1  0  0  0
 38 47  1  0  0  0
 39 64  1  0  0  0
 39 67  2  0  0  0
 40 52  1  0  0  0
 40 53  2  0  0  0
 40 58  1  0  0  0
 41113  1  0  0  0
 41114  1  0  0  0
 41115  1  0  0  0
 41 48  1  0  0  0
 42 43  1  0  0  0
 42 66  1  0  0  0
 42116  1  0  0  0
 42117  1  0  0  0
 43 44  1  0  0  0
 44118  1  0  0  0
 45 46  2  0  0  0
 45119  1  0  0  0
 46120  1  0  0  0
 47121  1  0  0  0
 47122  1  0  0  0
 48 56  1  0  0  0
 48 65  1  0  0  0
 48123  1  0  0  0
 49 50  1  0  0  0
 49 53  1  0  0  0
 49 64  1  0  0  0
 49124  1  0  0  0
 50 51  1  0  0  0
 50125  1  0  0  0
 50126  1  0  0  0
 51 52  1  0  0  0
 51127  1  0  0  0
 51128  1  0  0  0
 52129  1  0  0  0
 52130  1  0  0  0
 53 54  1  0  0  0
 54 55  2  0  0  0
 54131  1  0  0  0
 55 57  1  0  0  0
 55132  1  0  0  0
 56 69  2  0  0  0
 57 58  2  0  0  0
 57133  1  0  0  0
 58134  1  0  0  0
 59 60  1  0  0  0
 59 61  1  0  0  0
 59 62  1  0  0  0
 60135  1  0  0  0
 60136  1  0  0  0
 60137  1  0  0  0
 61138  1  0  0  0
 61139  1  0  0  0
 61140  1  0  0  0
 62141  1  0  0  0
 62142  1  0  0  0
 62143  1  0  0  0
 63 65  1  0  0  0
 63144  1  0  0  0
 63145  1  0  0  0
 63146  1  0  0  0
 64147  1  0  0  0
 65148  1  0  0  0
 68 88  1  0  0  0
 71 72  2  0  0  0
 71 73  1  0  0  0
 71149  1  0  0  0
 72 74  1  0  0  0
 72150  1  0  0  0
 73 75  2  0  0  0
 73 81  1  0  0  0
 74 76  2  0  0  0
 74 82  1  0  0  0
 75 76  1  0  0  0
 75 83  1  0  0  0
 76 87  1  0  0  0
 77 84  1  0  0  0
 77151  1  0  0  0
 77152  1  0  0  0
 77153  1  0  0  0
 78154  1  0  0  0
 78155  1  0  0  0
 78156  1  0  0  0
 78 87  1  0  0  0
 79 87  1  0  0  0
 79157  1  0  0  0
 79158  1  0  0  0
 79159  1  0  0  0
 80160  1  0  0  0
 80161  1  0  0  0
 80162  1  0  0  0
 80 88  1  0  0  0
 81 85  1  0  0  0
 81163  1  0  0  0
 81164  1  0  0  0
 82 86  1  0  0  0
 82165  1  0  0  0
 82166  1  0  0  0
 83 84  1  0  0  0
 83167  1  0  0  0
 83168  1  0  0  0
 84169  1  0  0  0
 84170  1  0  0  0
 85 88  1  0  0  0
 85171  1  0  0  0
 85172  1  0  0  0
 86 89  1  0  0  0
 86173  1  0  0  0
 86174  1  0  0  0
 87175  1  0  0  0
 88176  1  0  0  0
 89177  1  0  0  0
M  ISO  4   1 100  68 101  88 101  89 100
M  END
> <chiral flag>
0

> <version>
0

> <s_m_source_file>
/data/baiqing/PycharmProjects/Reinvent-master-3.2/result/LINK_invent/BTK/process_docking_weight1_custom_sum_contain_oxygen_bond_distance_aromatic_linkinvent_7_9_3/rearranged_h_0093.sdf

> <i_m_source_file_index>
50

> <r_mmod_Potential_Energy-OPLS-2005>
-29.1576995849609

> <r_mmod_Stretch_Energy-OPLS-2005>
47.4625282287598

> <r_mmod_Bend_Energy-OPLS-2005>
118.86865234375

> <r_mmod_Torsional_Energy-OPLS-2005>
250.98078918457

> <r_mmod_Improper_Torsional_Energy-OPLS-2005>
4.20140600204468

> <r_mmod_Van_der_Waal_Energy-OPLS-2005>
157.86408996582

> <r_mmod_Electrostatic_Energy-OPLS-2005>
-420.595428466797

> <r_mmod_Solvation_Energy-OPLS-2005>
-197.292770385742

> <b_mmod_Minimization_Converged-OPLS-2005>
0

> <r_mmod_RMS_Derivative-OPLS-2005>
5.32657527923584

$$$$
50
                    3D
 Structure written by MMmdl.
166174  0  0  1  0            999 V2000
  -30.5328  -14.9767   20.4201 C   0  0  0  0  0  0
  -30.4402  -12.6119   19.4868 C   0  0  0  0  0  0
  -29.5178  -12.5282   18.2490 C   0  0  0  0  0  0
  -28.0521  -12.3111   18.6717 C   0  0  0  0  0  0
  -27.6247  -13.2494   19.8301 C   0  0  2  0  0  0
  -28.6700  -13.2939   20.9631 C   0  0  0  0  0  0
  -25.2448  -13.8222   20.5711 C   0  0  0  0  0  0
  -24.1768  -13.0442   20.9237 C   0  0  0  0  0  0
  -24.6387  -11.6930   20.8755 C   0  0  0  0  0  0
  -23.9072  -10.4298   21.0411 C   0  0  0  0  0  0
  -24.3621   -9.4212   21.9187 C   0  0  0  0  0  0
  -23.6295   -8.2246   22.0756 C   0  0  0  0  0  0
  -22.4279   -8.0280   21.3544 C   0  0  0  0  0  0
  -21.9914   -9.0256   20.4646 C   0  0  0  0  0  0
  -22.7244  -10.2137   20.3059 C   0  0  0  0  0  0
  -21.6857   -6.0732   22.5277 C   0  0  0  0  0  0
  -21.4017   -6.5637   23.8211 C   0  0  0  0  0  0
  -21.3657   -5.6791   24.9172 C   0  0  0  0  0  0
  -21.6052   -4.3054   24.7224 C   0  0  0  0  0  0
  -21.8818   -3.8143   23.4345 C   0  0  0  0  0  0
  -21.9196   -4.6960   22.3402 C   0  0  0  0  0  0
  -22.7789  -13.5215   21.1893 C   0  0  0  0  0  0
  -22.1664   -4.2147   21.0979 F   0  0  0  0  0  0
  -21.5627   -3.4538   25.7736 F   0  0  0  0  0  0
  -29.9360  -13.7171   20.3518 N   0  0  0  0  0  0
  -26.2863  -12.9451   20.3218 N   0  0  0  0  0  0
  -25.9317  -11.6582   20.5726 N   0  0  0  0  0  0
  -22.0446  -12.8196   22.0447 N   0  0  0  0  0  0
  -25.4110  -15.1949   20.4122 N   0  0  0  0  0  0
  -31.7502  -15.0289   20.2154 O   0  0  0  0  0  0
  -21.6645   -6.8874   21.4238 O   0  0  0  0  0  0
  -22.3475  -14.5519   20.6740 O   0  0  0  0  0  0
  -24.6462  -31.8414   23.1862 C   0  0  0  0  0  0
  -25.9219  -32.4679   23.8260 C   0  0  1  0  0  0
  -27.2132  -27.1033   20.1616 C   0  0  0  0  0  0
  -25.5961  -33.8487   24.2175 N   0  0  0  0  0  0
  -23.4516  -30.4600   21.5319 C   0  0  2  0  0  0
  -24.9018  -28.8830   20.1122 C   0  0  0  0  0  0
  -22.7583  -29.4526   22.4835 C   0  0  0  0  0  0
  -18.0306  -28.1394   22.8463 C   0  0  0  0  0  0
  -24.1495  -36.7252   23.2644 C   0  0  0  0  0  0
  -26.0103  -30.7058   21.3908 C   0  0  0  0  0  0
  -26.0805  -29.3135   20.7343 C   0  0  0  0  0  0
  -27.2382  -28.4414   20.7390 C   0  0  0  0  0  0
  -26.0115  -26.7904   19.4887 C   0  0  0  0  0  0
  -24.8821  -27.6362   19.4721 C   0  0  0  0  0  0
  -23.6808  -29.7893   20.1518 C   0  0  0  0  0  0
  -25.4124  -36.3020   24.0312 C   0  0  1  0  0  0
  -20.5918  -28.3723   23.1222 C   0  0  2  0  0  0
  -20.6793  -26.9420   22.5400 C   0  0  0  0  0  0
  -19.5769  -26.6378   21.5207 C   0  0  0  0  0  0
  -18.1947  -26.7931   22.1614 C   0  0  0  0  0  0
  -19.1560  -28.8875   23.2836 C   0  0  0  0  0  0
  -18.9482  -30.1472   23.8862 C   0  0  0  0  0  0
  -17.6477  -30.6586   24.0553 C   0  0  0  0  0  0
  -25.9081  -34.9397   23.5056 C   0  0  0  0  0  0
  -16.5368  -29.9080   23.6332 C   0  0  0  0  0  0
  -16.7291  -28.6500   23.0350 C   0  0  0  0  0  0
  -26.4531  -31.6553   25.0713 C   0  0  0  0  0  0
  -25.3712  -31.3752   26.1408 C   0  0  0  0  0  0
  -27.0398  -30.2941   24.6316 C   0  0  0  0  0  0
  -27.6049  -32.4333   25.7506 C   0  0  0  0  0  0
  -27.5574  -37.1782   24.8468 C   0  0  0  0  0  0
  -21.4268  -29.3046   22.3591 N   0  0  0  0  0  0
  -26.4281  -37.3739   23.9416 N   0  0  0  0  0  0
  -24.7224  -31.0249   22.0909 N   0  0  0  0  0  0
  -23.4212  -28.8078   23.2992 O   0  0  0  0  0  0
  -28.2560  -26.0952   20.2039 O   0  0  0  0  0  0
  -26.5670  -34.8899   22.4634 O   0  0  0  0  0  0
  -23.5575  -32.1293   23.7067 O   0  0  0  0  0  0
  -27.1203  -21.7337   21.4949 C   0  0  0  0  0  0
  -27.5939  -19.5708   21.4312 C   0  0  0  0  0  0
  -26.6688  -20.4516   21.8978 C   0  0  0  0  0  0
  -28.2820  -21.6779   20.7659 C   0  0  0  0  0  0
  -29.2491  -23.0155   18.7606 C   0  0  0  0  0  0
  -24.8865  -21.3343   23.4489 C   0  0  0  0  0  0
  -25.6402  -18.9545   23.6408 C   0  0  0  0  0  0
  -24.3151  -19.6897   21.6436 C   0  0  0  0  0  0
  -29.6143  -19.1570   20.0980 C   0  0  0  0  0  0
  -30.1011  -17.6927   20.8422 C   0  0  0  0  0  0
  -27.9354  -24.5706   20.4362 C   0  0  0  0  0  0
  -28.8513  -23.1301   20.2349 C   0  0  1  0  0  0
  -25.3926  -20.1136   22.6563 C   0  0  0  0  0  0
  -28.6154  -20.1973   20.7333 N   0  0  0  0  0  0
  -29.7541  -16.1714   20.5191 N   0  0  0  0  0  0
  -31.4695  -12.7837   19.1679 H   0  0  0  0  0  0
  -30.4488  -11.6667   20.0323 H   0  0  0  0  0  0
  -29.8403  -11.7223   17.5885 H   0  0  0  0  0  0
  -29.5990  -13.4499   17.6702 H   0  0  0  0  0  0
  -27.9506  -11.2711   18.9843 H   0  0  0  0  0  0
  -27.3880  -12.4372   17.8161 H   0  0  0  0  0  0
  -27.5806  -14.2479   19.3938 H   0  0  0  0  0  0
  -28.7682  -12.3226   21.4501 H   0  0  0  0  0  0
  -28.3655  -14.0003   21.7370 H   0  0  0  0  0  0
  -25.2765   -9.5692   22.4764 H   0  0  0  0  0  0
  -24.0007   -7.4638   22.7477 H   0  0  0  0  0  0
  -21.0844   -8.8772   19.8951 H   0  0  0  0  0  0
  -22.3697  -10.9674   19.6170 H   0  0  0  0  0  0
  -21.2011   -7.6146   23.9711 H   0  0  0  0  0  0
  -21.1481   -6.0521   25.9075 H   0  0  0  0  0  0
  -22.0600   -2.7605   23.2847 H   0  0  0  0  0  0
  -22.4066  -11.9848   22.4817 H   0  0  0  0  0  0
  -21.1069  -13.1214   22.2666 H   0  0  0  0  0  0
  -24.6393  -15.8431   20.5219 H   0  0  0  0  0  0
  -26.2460  -15.6342   20.0492 H   0  0  0  0  0  0
  -26.7281  -32.5267   23.0983 H   0  0  0  0  0  0
  -25.0080  -33.9604   25.0303 H   0  0  0  0  0  0
  -22.7563  -31.2873   21.3752 H   0  0  0  0  0  0
  -23.3758  -35.9584   23.3295 H   0  0  0  0  0  0
  -24.3573  -36.8895   22.2060 H   0  0  0  0  0  0
  -23.7253  -37.6444   23.6689 H   0  0  0  0  0  0
  -26.1677  -31.4582   20.6167 H   0  0  0  0  0  0
  -26.8796  -30.7575   22.0348 H   0  0  0  0  0  0
  -28.1363  -28.7669   21.2442 H   0  0  0  0  0  0
  -25.9136  -25.8519   18.9654 H   0  0  0  0  0  0
  -23.9868  -27.3069   18.9633 H   0  0  0  0  0  0
  -23.8229  -30.5644   19.3981 H   0  0  0  0  0  0
  -22.7946  -29.2350   19.8373 H   0  0  0  0  0  0
  -25.1312  -36.1842   25.0805 H   0  0  0  0  0  0
  -21.0000  -28.3315   24.1348 H   0  0  0  0  0  0
  -20.5681  -26.2335   23.3621 H   0  0  0  0  0  0
  -21.6660  -26.7425   22.1201 H   0  0  0  0  0  0
  -19.6942  -25.6281   21.1257 H   0  0  0  0  0  0
  -19.6716  -27.3163   20.6717 H   0  0  0  0  0  0
  -17.4220  -26.6659   21.4020 H   0  0  0  0  0  0
  -18.0354  -26.0083   22.9018 H   0  0  0  0  0  0
  -19.7964  -30.7288   24.2219 H   0  0  0  0  0  0
  -17.5039  -31.6264   24.5159 H   0  0  0  0  0  0
  -15.5366  -30.2975   23.7684 H   0  0  0  0  0  0
  -15.8690  -28.0816   22.7083 H   0  0  0  0  0  0
  -24.5913  -30.7073   25.7737 H   0  0  0  0  0  0
  -24.8872  -32.2933   26.4747 H   0  0  0  0  0  0
  -25.7993  -30.8993   27.0239 H   0  0  0  0  0  0
  -26.3019  -29.6663   24.1308 H   0  0  0  0  0  0
  -27.3984  -29.7251   25.4901 H   0  0  0  0  0  0
  -27.8945  -30.4165   23.9658 H   0  0  0  0  0  0
  -27.2632  -33.3664   26.2003 H   0  0  0  0  0  0
  -28.3905  -32.6840   25.0367 H   0  0  0  0  0  0
  -28.0671  -31.8513   26.5492 H   0  0  0  0  0  0
  -28.2574  -38.0091   24.7505 H   0  0  0  0  0  0
  -28.1082  -36.2615   24.6301 H   0  0  0  0  0  0
  -27.2294  -37.1436   25.8872 H   0  0  0  0  0  0
  -20.9483  -29.8767   21.6771 H   0  0  0  0  0  0
  -26.0148  -38.2808   24.1410 H   0  0  0  0  0  0
  -26.5915  -22.6485   21.7139 H   0  0  0  0  0  0
  -27.5885  -18.4925   21.5162 H   0  0  0  0  0  0
  -29.7103  -23.9383   18.4082 H   0  0  0  0  0  0
  -28.3789  -22.8173   18.1349 H   0  0  0  0  0  0
  -29.9628  -22.2056   18.6081 H   0  0  0  0  0  0
  -25.6434  -21.6974   24.1460 H   0  0  0  0  0  0
  -23.9955  -21.0897   24.0287 H   0  0  0  0  0  0
  -24.6193  -22.1619   22.7912 H   0  0  0  0  0  0
  -26.4323  -19.1977   24.3498 H   0  0  0  0  0  0
  -25.9271  -18.0368   23.1267 H   0  0  0  0  0  0
  -24.7434  -18.7261   24.2174 H   0  0  0  0  0  0
  -24.1104  -20.4842   20.9253 H   0  0  0  0  0  0
  -23.3744  -19.4446   22.1379 H   0  0  0  0  0  0
  -24.6266  -18.8113   21.0772 H   0  0  0  0  0  0
  -29.2331  -18.9176   19.1051 H   0  0  0  0  0  0
  -30.5253  -19.7245   19.9052 H   0  0  0  0  0  0
  -29.9177  -17.8113   21.9105 H   0  0  0  0  0  0
  -31.1894  -17.7122   20.7787 H   0  0  0  0  0  0
  -27.6617  -24.5765   21.4910 H   0  0  0  0  0  0
  -27.0037  -24.3547   19.9211 H   0  0  0  0  0  0
  -29.7729  -23.3046   20.7912 H   0  0  0  0  0  0
  -28.7640  -15.9783   20.5417 H   0  0  0  0  0  0
  1 25  1  0  0  0
  1 30  2  0  0  0
  1 85  1  0  0  0
  2  3  1  0  0  0
  2 25  1  0  0  0
  2 86  1  0  0  0
  2 87  1  0  0  0
  3  4  1  0  0  0
  3 88  1  0  0  0
  3 89  1  0  0  0
  4  5  1  0  0  0
  4 90  1  0  0  0
  4 91  1  0  0  0
  5  6  1  0  0  0
  5 26  1  0  0  0
  5 92  1  0  0  0
  6 25  1  0  0  0
  6 93  1  0  0  0
  6 94  1  0  0  0
  7  8  2  0  0  0
  7 26  1  0  0  0
  7 29  1  0  0  0
  8  9  1  0  0  0
  8 22  1  0  0  0
  9 10  1  0  0  0
  9 27  2  0  0  0
 10 11  2  0  0  0
 10 15  1  0  0  0
 11 12  1  0  0  0
 11 95  1  0  0  0
 12 13  2  0  0  0
 12 96  1  0  0  0
 13 14  1  0  0  0
 13 31  1  0  0  0
 14 15  2  0  0  0
 14 97  1  0  0  0
 15 98  1  0  0  0
 16 17  2  0  0  0
 16 21  1  0  0  0
 16 31  1  0  0  0
 17 18  1  0  0  0
 17 99  1  0  0  0
 18 19  2  0  0  0
 18100  1  0  0  0
 19 20  1  0  0  0
 19 24  1  0  0  0
 20 21  2  0  0  0
 20101  1  0  0  0
 21 23  1  0  0  0
 22 28  1  0  0  0
 22 32  2  0  0  0
 26 27  1  0  0  0
 28102  1  0  0  0
 28103  1  0  0  0
 29104  1  0  0  0
 29105  1  0  0  0
 33 34  1  0  0  0
 33 66  1  0  0  0
 33 70  2  0  0  0
 34 36  1  0  0  0
 34 59  1  0  0  0
 34106  1  0  0  0
 35 44  2  0  0  0
 35 45  1  0  0  0
 35 68  1  0  0  0
 36 56  1  0  0  0
 36107  1  0  0  0
 37 39  1  0  0  0
 37 47  1  0  0  0
 37 66  1  0  0  0
 37108  1  0  0  0
 38 43  2  0  0  0
 38 46  1  0  0  0
 38 47  1  0  0  0
 39 64  1  0  0  0
 39 67  2  0  0  0
 40 52  1  0  0  0
 40 53  2  0  0  0
 40 58  1  0  0  0
 41109  1  0  0  0
 41110  1  0  0  0
 41111  1  0  0  0
 41 48  1  0  0  0
 42 43  1  0  0  0
 42 66  1  0  0  0
 42112  1  0  0  0
 42113  1  0  0  0
 43 44  1  0  0  0
 44114  1  0  0  0
 45 46  2  0  0  0
 45115  1  0  0  0
 46116  1  0  0  0
 47117  1  0  0  0
 47118  1  0  0  0
 48 56  1  0  0  0
 48 65  1  0  0  0
 48119  1  0  0  0
 49 50  1  0  0  0
 49 53  1  0  0  0
 49 64  1  0  0  0
 49120  1  0  0  0
 50 51  1  0  0  0
 50121  1  0  0  0
 50122  1  0  0  0
 51 52  1  0  0  0
 51123  1  0  0  0
 51124  1  0  0  0
 52125  1  0  0  0
 52126  1  0  0  0
 53 54  1  0  0  0
 54 55  2  0  0  0
 54127  1  0  0  0
 55 57  1  0  0  0
 55128  1  0  0  0
 56 69  2  0  0  0
 57 58  2  0  0  0
 57129  1  0  0  0
 58130  1  0  0  0
 59 60  1  0  0  0
 59 61  1  0  0  0
 59 62  1  0  0  0
 60131  1  0  0  0
 60132  1  0  0  0
 60133  1  0  0  0
 61134  1  0  0  0
 61135  1  0  0  0
 61136  1  0  0  0
 62137  1  0  0  0
 62138  1  0  0  0
 62139  1  0  0  0
 63 65  1  0  0  0
 63140  1  0  0  0
 63141  1  0  0  0
 63142  1  0  0  0
 64143  1  0  0  0
 65144  1  0  0  0
 68 81  1  0  0  0
 71 73  1  0  0  0
 71 74  2  0  0  0
 71145  1  0  0  0
 72 73  2  0  0  0
 72 84  1  0  0  0
 72146  1  0  0  0
 73 83  1  0  0  0
 74 82  1  0  0  0
 74 84  1  0  0  0
 75147  1  0  0  0
 75148  1  0  0  0
 75149  1  0  0  0
 75 82  1  0  0  0
 76150  1  0  0  0
 76151  1  0  0  0
 76152  1  0  0  0
 76 83  1  0  0  0
 77 83  1  0  0  0
 77153  1  0  0  0
 77154  1  0  0  0
 77155  1  0  0  0
 78 83  1  0  0  0
 78156  1  0  0  0
 78157  1  0  0  0
 78158  1  0  0  0
 79 80  1  0  0  0
 79 84  1  0  0  0
 79159  1  0  0  0
 79160  1  0  0  0
 80 85  1  0  0  0
 80161  1  0  0  0
 80162  1  0  0  0
 81 82  1  0  0  0
 81163  1  0  0  0
 81164  1  0  0  0
 82165  1  0  0  0
 85166  1  0  0  0
M  ISO  4   1 100  68 101  81 101  85 100
M  END
> <chiral flag>
0

> <version>
0

> <s_m_source_file>
/data/baiqing/PycharmProjects/Reinvent-master-3.2/result/LINK_invent/BTK/process_docking_weight1_custom_sum_contain_oxygen_bond_distance_aromatic_linkinvent_7_9_3/rearranged_h_0093.sdf

> <i_m_source_file_index>
51

> <r_mmod_Potential_Energy-OPLS-2005>
625.5498046875

> <r_mmod_Stretch_Energy-OPLS-2005>
318.629791259766

> <r_mmod_Bend_Energy-OPLS-2005>
358.773284912109

> <r_mmod_Torsional_Energy-OPLS-2005>
244.619689941406

> <r_mmod_Improper_Torsional_Energy-OPLS-2005>
4.98352527618408

> <r_mmod_Van_der_Waal_Energy-OPLS-2005>
110.284980773926

> <r_mmod_Electrostatic_Energy-OPLS-2005>
-425.708618164062

> <r_mmod_Solvation_Energy-OPLS-2005>
-204.941482543945

> <b_mmod_Minimization_Converged-OPLS-2005>
0

> <r_mmod_RMS_Derivative-OPLS-2005>
1.19036221504211

$$$$
51
                    3D
 Structure written by MMmdl.
164172  0  0  1  0            999 V2000
  -30.6530  -14.6045   20.5086 C   0  0  0  0  0  0
  -30.4277  -12.3755   19.4348 C   0  0  0  0  0  0
  -29.4931  -12.5028   18.2096 C   0  0  0  0  0  0
  -28.0112  -12.3444   18.6227 C   0  0  0  0  0  0
  -27.6447  -13.2092   19.8550 C   0  0  2  0  0  0
  -28.6988  -13.0421   20.9702 C   0  0  0  0  0  0
  -25.2497  -13.8144   20.5669 C   0  0  0  0  0  0
  -24.1771  -13.0396   20.9206 C   0  0  0  0  0  0
  -24.6362  -11.6889   20.8806 C   0  0  0  0  0  0
  -23.9043  -10.4266   21.0476 C   0  0  0  0  0  0
  -24.3599   -9.4162   21.9211 C   0  0  0  0  0  0
  -23.6284   -8.2176   22.0776 C   0  0  0  0  0  0
  -22.4237   -8.0248   21.3596 C   0  0  0  0  0  0
  -21.9903   -9.0197   20.4653 C   0  0  0  0  0  0
  -22.7224  -10.2085   20.3106 C   0  0  0  0  0  0
  -21.6823   -6.0715   22.5280 C   0  0  0  0  0  0
  -21.3977   -6.5627   23.8210 C   0  0  0  0  0  0
  -21.3681   -5.6800   24.9192 C   0  0  0  0  0  0
  -21.6050   -4.3073   24.7241 C   0  0  0  0  0  0
  -21.8803   -3.8147   23.4368 C   0  0  0  0  0  0
  -21.9166   -4.6940   22.3418 C   0  0  0  0  0  0
  -22.7789  -13.5153   21.1851 C   0  0  0  0  0  0
  -22.1632   -4.2103   21.1005 F   0  0  0  0  0  0
  -21.5672   -3.4567   25.7788 F   0  0  0  0  0  0
  -30.0099  -13.3964   20.4154 N   0  0  0  0  0  0
  -26.2948  -12.9312   20.3329 N   0  0  0  0  0  0
  -25.9291  -11.6484   20.5854 N   0  0  0  0  0  0
  -22.0486  -12.8114   22.0466 N   0  0  0  0  0  0
  -25.4196  -15.1863   20.4080 N   0  0  0  0  0  0
  -31.8430  -14.6786   20.1838 O   0  0  0  0  0  0
  -21.6602   -6.8845   21.4271 O   0  0  0  0  0  0
  -22.3407  -14.5408   20.6696 O   0  0  0  0  0  0
  -24.6103  -31.8670   23.2097 C   0  0  0  0  0  0
  -25.8999  -32.4812   23.8375 C   0  0  1  0  0  0
  -27.2394  -27.4101   20.0887 C   0  0  0  0  0  0
  -25.5897  -33.8623   24.2323 N   0  0  0  0  0  0
  -23.3994  -30.4865   21.5518 C   0  0  2  0  0  0
  -24.8472  -28.9487   20.1166 C   0  0  0  0  0  0
  -22.7377  -29.4639   22.5032 C   0  0  0  0  0  0
  -18.0254  -28.1323   22.8495 C   0  0  0  0  0  0
  -24.1503  -36.7282   23.2641 C   0  0  0  0  0  0
  -25.9305  -30.8159   21.3773 C   0  0  0  0  0  0
  -26.0068  -29.4524   20.7163 C   0  0  0  0  0  0
  -27.2007  -28.6874   20.7034 C   0  0  0  0  0  0
  -26.0521  -26.9210   19.4921 C   0  0  0  0  0  0
  -24.8649  -27.6792   19.5106 C   0  0  0  0  0  0
  -23.6047  -29.8133   20.1703 C   0  0  0  0  0  0
  -25.4135  -36.3088   24.0326 C   0  0  1  0  0  0
  -20.5837  -28.3616   23.1334 C   0  0  2  0  0  0
  -20.6744  -26.9365   22.5408 C   0  0  0  0  0  0
  -19.5722  -26.6351   21.5203 C   0  0  0  0  0  0
  -18.1909  -26.7877   22.1621 C   0  0  0  0  0  0
  -19.1509  -28.8795   23.2903 C   0  0  0  0  0  0
  -18.9436  -30.1424   23.8896 C   0  0  0  0  0  0
  -17.6440  -30.6560   24.0544 C   0  0  0  0  0  0
  -25.9058  -34.9462   23.5127 C   0  0  0  0  0  0
  -16.5340  -29.9053   23.6334 C   0  0  0  0  0  0
  -16.7241  -28.6457   23.0383 C   0  0  0  0  0  0
  -26.4435  -31.6586   25.0713 C   0  0  0  0  0  0
  -25.3688  -31.3705   26.1451 C   0  0  0  0  0  0
  -27.0279  -30.3013   24.6133 C   0  0  0  0  0  0
  -27.6010  -32.4328   25.7462 C   0  0  0  0  0  0
  -27.5597  -37.1798   24.8470 C   0  0  0  0  0  0
  -21.4099  -29.3003   22.3754 N   0  0  0  0  0  0
  -26.4323  -37.3782   23.9385 N   0  0  0  0  0  0
  -24.6632  -31.0732   22.1024 N   0  0  0  0  0  0
  -23.4144  -28.8204   23.3097 O   0  0  0  0  0  0
  -28.4271  -26.6903   20.1064 O   0  0  0  0  0  0
  -26.5615  -34.8914   22.4685 O   0  0  0  0  0  0
  -23.5291  -32.1477   23.7466 O   0  0  0  0  0  0
  -28.8959  -20.0889   18.6324 C   0  0  0  0  0  0
  -30.3401  -19.8430   20.3024 C   0  0  0  0  0  0
  -29.1259  -18.7444   18.7738 C   0  0  0  0  0  0
  -30.0632  -18.5667   19.8453 C   0  0  0  0  0  0
  -28.5450  -17.6679   17.8941 C   0  0  0  0  0  0
  -29.1151  -17.5478   22.7706 C   0  0  0  0  0  0
  -30.7452  -17.2391   20.2783 C   0  0  0  0  0  0
  -29.3525  -16.1195   22.2259 C   0  0  0  0  0  0
  -29.1061  -23.0922   20.6549 C   0  0  0  0  0  0
  -28.0519  -24.1682   20.2111 C   0  0  0  0  0  0
  -29.8259  -22.2721   19.5335 C   0  0  0  0  0  0
  -28.5482  -25.4212   19.4212 C   0  0  0  0  0  0
  -29.8873  -15.9832   20.7625 C   0  0  2  0  0  0
  -29.6658  -20.7946   19.5367 N   0  0  0  0  0  0
  -31.4708  -12.4868   19.1271 H   0  0  0  0  0  0
  -30.3555  -11.3784   19.8710 H   0  0  0  0  0  0
  -29.7576  -11.7734   17.4411 H   0  0  0  0  0  0
  -29.6355  -13.4824   17.7514 H   0  0  0  0  0  0
  -27.8251  -11.2902   18.8394 H   0  0  0  0  0  0
  -27.3508  -12.6001   17.7922 H   0  0  0  0  0  0
  -27.6598  -14.2434   19.5077 H   0  0  0  0  0  0
  -28.7207  -12.0042   21.3121 H   0  0  0  0  0  0
  -28.4401  -13.6032   21.8616 H   0  0  0  0  0  0
  -25.2769   -9.5579   22.4737 H   0  0  0  0  0  0
  -23.9990   -7.4553   22.7469 H   0  0  0  0  0  0
  -21.0870   -8.8705   19.8910 H   0  0  0  0  0  0
  -22.3726  -10.9624   19.6191 H   0  0  0  0  0  0
  -21.1937   -7.6128   23.9704 H   0  0  0  0  0  0
  -21.1554   -6.0543   25.9088 H   0  0  0  0  0  0
  -22.0582   -2.7592   23.2895 H   0  0  0  0  0  0
  -22.4187  -11.9780   22.4756 H   0  0  0  0  0  0
  -21.1130  -13.1102   22.2773 H   0  0  0  0  0  0
  -24.6483  -15.8398   20.4868 H   0  0  0  0  0  0
  -26.2784  -15.6322   20.1145 H   0  0  0  0  0  0
  -26.7059  -32.5515   23.1121 H   0  0  0  0  0  0
  -25.0023  -33.9804   25.0442 H   0  0  0  0  0  0
  -22.6879  -31.3022   21.4154 H   0  0  0  0  0  0
  -23.3786  -35.9602   23.3317 H   0  0  0  0  0  0
  -24.3591  -36.8877   22.2057 H   0  0  0  0  0  0
  -23.7249  -37.6485   23.6645 H   0  0  0  0  0  0
  -26.0695  -31.5906   20.6236 H   0  0  0  0  0  0
  -26.8072  -30.8502   22.0092 H   0  0  0  0  0  0
  -28.0919  -29.0734   21.1802 H   0  0  0  0  0  0
  -26.0114  -25.9505   19.0214 H   0  0  0  0  0  0
  -23.9661  -27.2831   19.0602 H   0  0  0  0  0  0
  -23.6943  -30.5852   19.4071 H   0  0  0  0  0  0
  -22.7314  -29.2203   19.8910 H   0  0  0  0  0  0
  -25.1324  -36.1964   25.0830 H   0  0  0  0  0  0
  -20.9921  -28.3161   24.1458 H   0  0  0  0  0  0
  -20.5647  -26.2218   23.3571 H   0  0  0  0  0  0
  -21.6615  -26.7394   22.1213 H   0  0  0  0  0  0
  -19.6894  -25.6269   21.1217 H   0  0  0  0  0  0
  -19.6675  -27.3171   20.6739 H   0  0  0  0  0  0
  -17.4176  -26.6623   21.4035 H   0  0  0  0  0  0
  -18.0326  -26.0012   22.9002 H   0  0  0  0  0  0
  -19.7927  -30.7225   24.2257 H   0  0  0  0  0  0
  -17.5008  -31.6259   24.5109 H   0  0  0  0  0  0
  -15.5336  -30.2955   23.7654 H   0  0  0  0  0  0
  -15.8641  -28.0755   22.7126 H   0  0  0  0  0  0
  -24.5859  -30.7068   25.7758 H   0  0  0  0  0  0
  -24.8883  -32.2869   26.4893 H   0  0  0  0  0  0
  -25.8021  -30.8854   27.0204 H   0  0  0  0  0  0
  -26.2838  -29.6789   24.1150 H   0  0  0  0  0  0
  -27.3972  -29.7248   25.4621 H   0  0  0  0  0  0
  -27.8711  -30.4311   23.9351 H   0  0  0  0  0  0
  -27.2620  -33.3635   26.2031 H   0  0  0  0  0  0
  -28.3797  -32.6888   25.0264 H   0  0  0  0  0  0
  -28.0691  -31.8461   26.5374 H   0  0  0  0  0  0
  -28.2613  -38.0092   24.7512 H   0  0  0  0  0  0
  -28.1087  -36.2620   24.6318 H   0  0  0  0  0  0
  -27.2285  -37.1467   25.8863 H   0  0  0  0  0  0
  -20.9242  -29.8711   21.6972 H   0  0  0  0  0  0
  -26.0207  -38.2859   24.1386 H   0  0  0  0  0  0
  -28.2934  -20.6162   17.9017 H   0  0  0  0  0  0
  -31.0293  -20.1738   21.0689 H   0  0  0  0  0  0
  -28.3409  -18.0597   16.8956 H   0  0  0  0  0  0
  -27.6133  -17.2838   18.3185 H   0  0  0  0  0  0
  -29.2529  -16.8473   17.7854 H   0  0  0  0  0  0
  -30.0553  -18.0650   22.9683 H   0  0  0  0  0  0
  -28.5601  -17.5320   23.7155 H   0  0  0  0  0  0
  -28.5247  -18.1431   22.0739 H   0  0  0  0  0  0
  -31.4796  -17.4591   21.0490 H   0  0  0  0  0  0
  -31.3247  -16.9658   19.3929 H   0  0  0  0  0  0
  -29.9860  -15.5686   22.9187 H   0  0  0  0  0  0
  -28.3696  -15.6475   22.2823 H   0  0  0  0  0  0
  -28.6219  -22.3966   21.3435 H   0  0  0  0  0  0
  -29.8694  -23.5910   21.2567 H   0  0  0  0  0  0
  -27.5345  -24.5277   21.1019 H   0  0  0  0  0  0
  -27.2882  -23.6642   19.6188 H   0  0  0  0  0  0
  -30.8970  -22.4767   19.5837 H   0  0  0  0  0  0
  -29.5243  -22.6451   18.5513 H   0  0  0  0  0  0
  -28.0628  -25.4680   18.4459 H   0  0  0  0  0  0
  -29.6012  -25.2962   19.1718 H   0  0  0  0  0  0
  -29.0196  -15.9644   20.1045 H   0  0  0  0  0  0
  1 25  1  0  0  0
  1 30  2  0  0  0
  1 83  1  0  0  0
  2  3  1  0  0  0
  2 25  1  0  0  0
  2 85  1  0  0  0
  2 86  1  0  0  0
  3  4  1  0  0  0
  3 87  1  0  0  0
  3 88  1  0  0  0
  4  5  1  0  0  0
  4 89  1  0  0  0
  4 90  1  0  0  0
  5  6  1  0  0  0
  5 26  1  0  0  0
  5 91  1  0  0  0
  6 25  1  0  0  0
  6 92  1  0  0  0
  6 93  1  0  0  0
  7  8  2  0  0  0
  7 26  1  0  0  0
  7 29  1  0  0  0
  8  9  1  0  0  0
  8 22  1  0  0  0
  9 10  1  0  0  0
  9 27  2  0  0  0
 10 11  2  0  0  0
 10 15  1  0  0  0
 11 12  1  0  0  0
 11 94  1  0  0  0
 12 13  2  0  0  0
 12 95  1  0  0  0
 13 14  1  0  0  0
 13 31  1  0  0  0
 14 15  2  0  0  0
 14 96  1  0  0  0
 15 97  1  0  0  0
 16 17  2  0  0  0
 16 21  1  0  0  0
 16 31  1  0  0  0
 17 18  1  0  0  0
 17 98  1  0  0  0
 18 19  2  0  0  0
 18 99  1  0  0  0
 19 20  1  0  0  0
 19 24  1  0  0  0
 20 21  2  0  0  0
 20100  1  0  0  0
 21 23  1  0  0  0
 22 28  1  0  0  0
 22 32  2  0  0  0
 26 27  1  0  0  0
 28101  1  0  0  0
 28102  1  0  0  0
 29103  1  0  0  0
 29104  1  0  0  0
 33 34  1  0  0  0
 33 66  1  0  0  0
 33 70  2  0  0  0
 34 36  1  0  0  0
 34 59  1  0  0  0
 34105  1  0  0  0
 35 44  2  0  0  0
 35 45  1  0  0  0
 35 68  1  0  0  0
 36 56  1  0  0  0
 36106  1  0  0  0
 37 39  1  0  0  0
 37 47  1  0  0  0
 37 66  1  0  0  0
 37107  1  0  0  0
 38 43  2  0  0  0
 38 46  1  0  0  0
 38 47  1  0  0  0
 39 64  1  0  0  0
 39 67  2  0  0  0
 40 52  1  0  0  0
 40 53  2  0  0  0
 40 58  1  0  0  0
 41108  1  0  0  0
 41109  1  0  0  0
 41110  1  0  0  0
 41 48  1  0  0  0
 42 43  1  0  0  0
 42 66  1  0  0  0
 42111  1  0  0  0
 42112  1  0  0  0
 43 44  1  0  0  0
 44113  1  0  0  0
 45 46  2  0  0  0
 45114  1  0  0  0
 46115  1  0  0  0
 47116  1  0  0  0
 47117  1  0  0  0
 48 56  1  0  0  0
 48 65  1  0  0  0
 48118  1  0  0  0
 49 50  1  0  0  0
 49 53  1  0  0  0
 49 64  1  0  0  0
 49119  1  0  0  0
 50 51  1  0  0  0
 50120  1  0  0  0
 50121  1  0  0  0
 51 52  1  0  0  0
 51122  1  0  0  0
 51123  1  0  0  0
 52124  1  0  0  0
 52125  1  0  0  0
 53 54  1  0  0  0
 54 55  2  0  0  0
 54126  1  0  0  0
 55 57  1  0  0  0
 55127  1  0  0  0
 56 69  2  0  0  0
 57 58  2  0  0  0
 57128  1  0  0  0
 58129  1  0  0  0
 59 60  1  0  0  0
 59 61  1  0  0  0
 59 62  1  0  0  0
 60130  1  0  0  0
 60131  1  0  0  0
 60132  1  0  0  0
 61133  1  0  0  0
 61134  1  0  0  0
 61135  1  0  0  0
 62136  1  0  0  0
 62137  1  0  0  0
 62138  1  0  0  0
 63 65  1  0  0  0
 63139  1  0  0  0
 63140  1  0  0  0
 63141  1  0  0  0
 64142  1  0  0  0
 65143  1  0  0  0
 68 82  1  0  0  0
 71 73  2  0  0  0
 71 84  1  0  0  0
 71144  1  0  0  0
 72 74  2  0  0  0
 72 84  1  0  0  0
 72145  1  0  0  0
 73 74  1  0  0  0
 73 75  1  0  0  0
 74 77  1  0  0  0
 75146  1  0  0  0
 75147  1  0  0  0
 75148  1  0  0  0
 76 78  1  0  0  0
 76149  1  0  0  0
 76150  1  0  0  0
 76151  1  0  0  0
 77152  1  0  0  0
 77153  1  0  0  0
 77 83  1  0  0  0
 78 83  1  0  0  0
 78154  1  0  0  0
 78155  1  0  0  0
 79 80  1  0  0  0
 79 81  1  0  0  0
 79156  1  0  0  0
 79157  1  0  0  0
 80 82  1  0  0  0
 80158  1  0  0  0
 80159  1  0  0  0
 81 84  1  0  0  0
 81160  1  0  0  0
 81161  1  0  0  0
 82162  1  0  0  0
 82163  1  0  0  0
 83164  1  0  0  0
M  ISO  4   1 100  68 101  82 101  83 100
M  END
> <chiral flag>
0

> <version>
0

> <s_m_source_file>
/data/baiqing/PycharmProjects/Reinvent-master-3.2/result/LINK_invent/BTK/process_docking_weight1_custom_sum_contain_oxygen_bond_distance_aromatic_linkinvent_7_9_3/rearranged_h_0093.sdf

> <i_m_source_file_index>
52

> <r_mmod_Potential_Energy-OPLS-2005>
79.9134140014648

> <r_mmod_Stretch_Energy-OPLS-2005>
60.4912338256836

> <r_mmod_Bend_Energy-OPLS-2005>
138.788482666016

> <r_mmod_Torsional_Energy-OPLS-2005>
233.836441040039

> <r_mmod_Improper_Torsional_Energy-OPLS-2005>
6.86777687072754

> <r_mmod_Van_der_Waal_Energy-OPLS-2005>
118.10343170166

> <r_mmod_Electrostatic_Energy-OPLS-2005>
-317.983093261719

> <r_mmod_Solvation_Energy-OPLS-2005>
-188.8828125

> <b_mmod_Minimization_Converged-OPLS-2005>
0

> <r_mmod_RMS_Derivative-OPLS-2005>
6.35869550704956

$$$$
52
                    3D
 Structure written by MMmdl.
161169  0  0  1  0            999 V2000
  -30.5960  -14.8650   20.4155 C   0  0  0  0  0  0
  -30.4301  -12.5334   19.4901 C   0  0  0  0  0  0
  -29.5090  -12.5152   18.2506 C   0  0  0  0  0  0
  -28.0358  -12.3359   18.6642 C   0  0  0  0  0  0
  -27.6347  -13.2471   19.8534 C   0  0  2  0  0  0
  -28.6845  -13.2487   20.9860 C   0  0  0  0  0  0
  -25.2502  -13.8247   20.5788 C   0  0  0  0  0  0
  -24.1810  -13.0452   20.9238 C   0  0  0  0  0  0
  -24.6409  -11.6934   20.8720 C   0  0  0  0  0  0
  -23.9061  -10.4305   21.0351 C   0  0  0  0  0  0
  -24.3613   -9.4230   21.9161 C   0  0  0  0  0  0
  -23.6293   -8.2262   22.0750 C   0  0  0  0  0  0
  -22.4282   -8.0277   21.3529 C   0  0  0  0  0  0
  -21.9889   -9.0252   20.4637 C   0  0  0  0  0  0
  -22.7210  -10.2134   20.3033 C   0  0  0  0  0  0
  -21.6860   -6.0726   22.5275 C   0  0  0  0  0  0
  -21.4014   -6.5637   23.8203 C   0  0  0  0  0  0
  -21.3669   -5.6796   24.9162 C   0  0  0  0  0  0
  -21.6046   -4.3058   24.7216 C   0  0  0  0  0  0
  -21.8826   -3.8143   23.4339 C   0  0  0  0  0  0
  -21.9200   -4.6952   22.3398 C   0  0  0  0  0  0
  -22.7830  -13.5188   21.1862 C   0  0  0  0  0  0
  -22.1667   -4.2143   21.0969 F   0  0  0  0  0  0
  -21.5631   -3.4550   25.7731 F   0  0  0  0  0  0
  -29.9663  -13.6290   20.3848 N   0  0  0  0  0  0
  -26.2912  -12.9480   20.3339 N   0  0  0  0  0  0
  -25.9346  -11.6595   20.5778 N   0  0  0  0  0  0
  -22.0485  -12.8178   22.0412 N   0  0  0  0  0  0
  -25.4181  -15.1979   20.4353 N   0  0  0  0  0  0
  -31.7900  -14.9052   20.1108 O   0  0  0  0  0  0
  -21.6642   -6.8870   21.4244 O   0  0  0  0  0  0
  -22.3502  -14.5472   20.6669 O   0  0  0  0  0  0
  -24.6339  -31.8475   23.1935 C   0  0  0  0  0  0
  -25.9136  -32.4716   23.8287 C   0  0  1  0  0  0
  -27.2286  -27.1888   20.1821 C   0  0  0  0  0  0
  -25.5891  -33.8514   24.2218 N   0  0  0  0  0  0
  -23.4368  -30.4665   21.5343 C   0  0  2  0  0  0
  -24.8928  -28.8940   20.1184 C   0  0  0  0  0  0
  -22.7515  -29.4559   22.4876 C   0  0  0  0  0  0
  -18.0295  -28.1369   22.8481 C   0  0  0  0  0  0
  -24.1481  -36.7272   23.2648 C   0  0  0  0  0  0
  -25.9854  -30.7462   21.3783 C   0  0  0  0  0  0
  -26.0647  -29.3574   20.7303 C   0  0  0  0  0  0
  -27.2349  -28.5211   20.7429 C   0  0  0  0  0  0
  -26.0352  -26.8081   19.5344 C   0  0  0  0  0  0
  -24.8855  -27.6277   19.5075 C   0  0  0  0  0  0
  -23.6636  -29.7871   20.1555 C   0  0  0  0  0  0
  -25.4103  -36.3048   24.0336 C   0  0  1  0  0  0
  -20.5899  -28.3678   23.1254 C   0  0  2  0  0  0
  -20.6781  -26.9384   22.5411 C   0  0  0  0  0  0
  -19.5771  -26.6359   21.5201 C   0  0  0  0  0  0
  -18.1948  -26.7915   22.1602 C   0  0  0  0  0  0
  -19.1553  -28.8839   23.2867 C   0  0  0  0  0  0
  -18.9471  -30.1440   23.8891 C   0  0  0  0  0  0
  -17.6472  -30.6580   24.0551 C   0  0  0  0  0  0
  -25.9048  -34.9419   23.5096 C   0  0  0  0  0  0
  -16.5363  -29.9075   23.6322 C   0  0  0  0  0  0
  -16.7281  -28.6480   23.0359 C   0  0  0  0  0  0
  -26.4473  -31.6562   25.0700 C   0  0  0  0  0  0
  -25.3681  -31.3726   26.1410 C   0  0  0  0  0  0
  -27.0354  -30.2988   24.6214 C   0  0  0  0  0  0
  -27.6028  -32.4284   25.7472 C   0  0  0  0  0  0
  -27.5580  -37.1782   24.8451 C   0  0  0  0  0  0
  -21.4207  -29.3038   22.3634 N   0  0  0  0  0  0
  -26.4279  -37.3759   23.9426 N   0  0  0  0  0  0
  -24.7044  -31.0401   22.0922 N   0  0  0  0  0  0
  -23.4198  -28.8114   23.2994 O   0  0  0  0  0  0
  -28.3178  -26.2647   20.2140 O   0  0  0  0  0  0
  -26.5632  -34.8919   22.4670 O   0  0  0  0  0  0
  -23.5471  -32.1284   23.7202 O   0  0  0  0  0  0
  -30.7281  -20.0236   20.7991 C   0  0  0  0  0  0
  -28.5718  -19.6348   19.9982 C   0  0  0  0  0  0
  -29.8120  -19.0191   20.3720 C   0  0  0  0  0  0
  -30.4628  -21.4462   20.7894 C   0  0  0  0  0  0
  -29.2135  -21.9787   20.3030 C   0  0  0  0  0  0
  -32.6739  -22.5094   20.1551 C   0  0  0  0  0  0
  -32.2482  -21.8951   22.5721 C   0  0  0  0  0  0
  -28.4556  -23.5526   18.3870 C   0  0  0  0  0  0
  -30.3447  -17.4866   20.0746 C   0  0  0  0  0  0
  -28.1560  -24.7809   20.6109 C   0  0  0  0  0  0
  -31.6016  -22.3645   21.2503 C   0  0  0  0  0  0
  -28.9665  -23.5538   19.8370 C   0  0  1  0  0  0
  -28.2920  -21.0029   19.9753 N   0  0  0  0  0  0
  -29.8691  -16.0726   20.5376 N   0  0  0  0  0  0
  -31.4642  -12.6713   19.1708 H   0  0  0  0  0  0
  -30.4043  -11.5759   20.0143 H   0  0  0  0  0  0
  -29.7993  -11.7100   17.5729 H   0  0  0  0  0  0
  -29.6284  -13.4451   17.6912 H   0  0  0  0  0  0
  -27.8850  -11.2904   18.9299 H   0  0  0  0  0  0
  -27.3772  -12.5228   17.8145 H   0  0  0  0  0  0
  -27.6069  -14.2577   19.4494 H   0  0  0  0  0  0
  -28.7599  -12.2734   21.4720 H   0  0  0  0  0  0
  -28.4079  -13.9618   21.7646 H   0  0  0  0  0  0
  -25.2741   -9.5740   22.4731 H   0  0  0  0  0  0
  -24.0031   -7.4666   22.7480 H   0  0  0  0  0  0
  -21.0807   -8.8734   19.8943 H   0  0  0  0  0  0
  -22.3629  -10.9677   19.6149 H   0  0  0  0  0  0
  -21.2006   -7.6150   23.9693 H   0  0  0  0  0  0
  -21.1480   -6.0531   25.9071 H   0  0  0  0  0  0
  -22.0593   -2.7601   23.2841 H   0  0  0  0  0  0
  -22.4135  -11.9864   22.4809 H   0  0  0  0  0  0
  -21.1112  -13.1195   22.2600 H   0  0  0  0  0  0
  -24.6656  -15.8534   20.6230 H   0  0  0  0  0  0
  -26.2659  -15.6508   20.1223 H   0  0  0  0  0  0
  -26.7200  -32.5384   23.1029 H   0  0  0  0  0  0
  -24.9987  -33.9605   25.0324 H   0  0  0  0  0  0
  -22.7381  -31.2908   21.3749 H   0  0  0  0  0  0
  -23.3765  -35.9583   23.3251 H   0  0  0  0  0  0
  -24.3612  -36.8950   22.2082 H   0  0  0  0  0  0
  -23.7194  -37.6438   23.6706 H   0  0  0  0  0  0
  -26.1206  -31.5009   20.6019 H   0  0  0  0  0  0
  -26.8638  -30.8117   22.0096 H   0  0  0  0  0  0
  -28.1302  -28.8740   21.2370 H   0  0  0  0  0  0
  -25.9825  -25.8389   19.0612 H   0  0  0  0  0  0
  -23.9909  -27.2589   19.0262 H   0  0  0  0  0  0
  -23.7965  -30.5523   19.3912 H   0  0  0  0  0  0
  -22.7835  -29.2172   19.8507 H   0  0  0  0  0  0
  -25.1296  -36.1874   25.0830 H   0  0  0  0  0  0
  -21.0001  -28.3254   24.1370 H   0  0  0  0  0  0
  -20.5611  -26.2297   23.3626 H   0  0  0  0  0  0
  -21.6661  -26.7377   22.1249 H   0  0  0  0  0  0
  -19.6931  -25.6259   21.1248 H   0  0  0  0  0  0
  -19.6726  -27.3156   20.6720 H   0  0  0  0  0  0
  -17.4219  -26.6652   21.4005 H   0  0  0  0  0  0
  -18.0355  -26.0057   22.8992 H   0  0  0  0  0  0
  -19.7960  -30.7240   24.2276 H   0  0  0  0  0  0
  -17.5042  -31.6276   24.5123 H   0  0  0  0  0  0
  -15.5365  -30.2978   23.7661 H   0  0  0  0  0  0
  -15.8685  -28.0800   22.7089 H   0  0  0  0  0  0
  -24.5845  -30.7091   25.7725 H   0  0  0  0  0  0
  -24.8879  -32.2911   26.4802 H   0  0  0  0  0  0
  -25.7969  -30.8899   27.0205 H   0  0  0  0  0  0
  -26.2977  -29.6698   24.1221 H   0  0  0  0  0  0
  -27.4032  -29.7273   25.4742 H   0  0  0  0  0  0
  -27.8838  -30.4290   23.9497 H   0  0  0  0  0  0
  -27.2660  -33.3599   26.2034 H   0  0  0  0  0  0
  -28.3857  -32.6795   25.0308 H   0  0  0  0  0  0
  -28.0676  -31.8398   26.5390 H   0  0  0  0  0  0
  -28.2544  -38.0126   24.7569 H   0  0  0  0  0  0
  -28.1120  -36.2665   24.6173 H   0  0  0  0  0  0
  -27.2336  -37.1324   25.8859 H   0  0  0  0  0  0
  -20.9371  -29.8775   21.6869 H   0  0  0  0  0  0
  -26.0138  -38.2826   24.1444 H   0  0  0  0  0  0
  -31.7181  -19.6868   21.0653 H   0  0  0  0  0  0
  -27.7838  -19.0082   19.6117 H   0  0  0  0  0  0
  -32.2470  -22.8875   19.2269 H   0  0  0  0  0  0
  -33.1524  -21.5536   19.9346 H   0  0  0  0  0  0
  -33.4636  -23.1995   20.4558 H   0  0  0  0  0  0
  -31.5061  -21.7881   23.3637 H   0  0  0  0  0  0
  -32.9975  -22.6096   22.9159 H   0  0  0  0  0  0
  -32.7673  -20.9404   22.4741 H   0  0  0  0  0  0
  -27.5255  -22.9878   18.3060 H   0  0  0  0  0  0
  -29.1877  -23.1136   17.7089 H   0  0  0  0  0  0
  -28.2477  -24.5656   18.0410 H   0  0  0  0  0  0
  -31.4098  -17.5101   20.3189 H   0  0  0  0  0  0
  -30.3275  -17.4136   18.9869 H   0  0  0  0  0  0
  -28.4680  -24.7522   21.6553 H   0  0  0  0  0  0
  -27.0927  -24.5352   20.6497 H   0  0  0  0  0  0
  -31.1891  -23.3519   21.4649 H   0  0  0  0  0  0
  -29.9725  -23.9603   19.7509 H   0  0  0  0  0  0
  -28.8919  -15.9741   20.7657 H   0  0  0  0  0  0
  1 25  1  0  0  0
  1 30  2  0  0  0
  1 84  1  0  0  0
  2  3  1  0  0  0
  2 25  1  0  0  0
  2 85  1  0  0  0
  2 86  1  0  0  0
  3  4  1  0  0  0
  3 87  1  0  0  0
  3 88  1  0  0  0
  4  5  1  0  0  0
  4 89  1  0  0  0
  4 90  1  0  0  0
  5  6  1  0  0  0
  5 26  1  0  0  0
  5 91  1  0  0  0
  6 25  1  0  0  0
  6 92  1  0  0  0
  6 93  1  0  0  0
  7  8  2  0  0  0
  7 26  1  0  0  0
  7 29  1  0  0  0
  8  9  1  0  0  0
  8 22  1  0  0  0
  9 10  1  0  0  0
  9 27  2  0  0  0
 10 11  2  0  0  0
 10 15  1  0  0  0
 11 12  1  0  0  0
 11 94  1  0  0  0
 12 13  2  0  0  0
 12 95  1  0  0  0
 13 14  1  0  0  0
 13 31  1  0  0  0
 14 15  2  0  0  0
 14 96  1  0  0  0
 15 97  1  0  0  0
 16 17  2  0  0  0
 16 21  1  0  0  0
 16 31  1  0  0  0
 17 18  1  0  0  0
 17 98  1  0  0  0
 18 19  2  0  0  0
 18 99  1  0  0  0
 19 20  1  0  0  0
 19 24  1  0  0  0
 20 21  2  0  0  0
 20100  1  0  0  0
 21 23  1  0  0  0
 22 28  1  0  0  0
 22 32  2  0  0  0
 26 27  1  0  0  0
 28101  1  0  0  0
 28102  1  0  0  0
 29103  1  0  0  0
 29104  1  0  0  0
 33 34  1  0  0  0
 33 66  1  0  0  0
 33 70  2  0  0  0
 34 36  1  0  0  0
 34 59  1  0  0  0
 34105  1  0  0  0
 35 44  2  0  0  0
 35 45  1  0  0  0
 35 68  1  0  0  0
 36 56  1  0  0  0
 36106  1  0  0  0
 37 39  1  0  0  0
 37 47  1  0  0  0
 37 66  1  0  0  0
 37107  1  0  0  0
 38 43  2  0  0  0
 38 46  1  0  0  0
 38 47  1  0  0  0
 39 64  1  0  0  0
 39 67  2  0  0  0
 40 52  1  0  0  0
 40 53  2  0  0  0
 40 58  1  0  0  0
 41108  1  0  0  0
 41109  1  0  0  0
 41110  1  0  0  0
 41 48  1  0  0  0
 42 43  1  0  0  0
 42 66  1  0  0  0
 42111  1  0  0  0
 42112  1  0  0  0
 43 44  1  0  0  0
 44113  1  0  0  0
 45 46  2  0  0  0
 45114  1  0  0  0
 46115  1  0  0  0
 47116  1  0  0  0
 47117  1  0  0  0
 48 56  1  0  0  0
 48 65  1  0  0  0
 48118  1  0  0  0
 49 50  1  0  0  0
 49 53  1  0  0  0
 49 64  1  0  0  0
 49119  1  0  0  0
 50 51  1  0  0  0
 50120  1  0  0  0
 50121  1  0  0  0
 51 52  1  0  0  0
 51122  1  0  0  0
 51123  1  0  0  0
 52124  1  0  0  0
 52125  1  0  0  0
 53 54  1  0  0  0
 54 55  2  0  0  0
 54126  1  0  0  0
 55 57  1  0  0  0
 55127  1  0  0  0
 56 69  2  0  0  0
 57 58  2  0  0  0
 57128  1  0  0  0
 58129  1  0  0  0
 59 60  1  0  0  0
 59 61  1  0  0  0
 59 62  1  0  0  0
 60130  1  0  0  0
 60131  1  0  0  0
 60132  1  0  0  0
 61133  1  0  0  0
 61134  1  0  0  0
 61135  1  0  0  0
 62136  1  0  0  0
 62137  1  0  0  0
 62138  1  0  0  0
 63 65  1  0  0  0
 63139  1  0  0  0
 63140  1  0  0  0
 63141  1  0  0  0
 64142  1  0  0  0
 65143  1  0  0  0
 68 80  1  0  0  0
 71 73  2  0  0  0
 71 74  1  0  0  0
 71144  1  0  0  0
 72 73  1  0  0  0
 72 83  2  0  0  0
 72145  1  0  0  0
 73 79  1  0  0  0
 74 75  2  0  0  0
 74 81  1  0  0  0
 75 82  1  0  0  0
 75 83  1  0  0  0
 76146  1  0  0  0
 76147  1  0  0  0
 76148  1  0  0  0
 76 81  1  0  0  0
 77 81  1  0  0  0
 77149  1  0  0  0
 77150  1  0  0  0
 77151  1  0  0  0
 78152  1  0  0  0
 78153  1  0  0  0
 78154  1  0  0  0
 78 82  1  0  0  0
 79 84  1  0  0  0
 79155  1  0  0  0
 79156  1  0  0  0
 80 82  1  0  0  0
 80157  1  0  0  0
 80158  1  0  0  0
 81159  1  0  0  0
 82160  1  0  0  0
 84161  1  0  0  0
M  ISO  4   1 100  68 101  80 101  84 100
M  END
> <chiral flag>
0

> <version>
0

> <s_m_source_file>
/data/baiqing/PycharmProjects/Reinvent-master-3.2/result/LINK_invent/BTK/process_docking_weight1_custom_sum_contain_oxygen_bond_distance_aromatic_linkinvent_7_9_3/rearranged_h_0093.sdf

> <i_m_source_file_index>
53

> <r_mmod_Potential_Energy-OPLS-2005>
289.786285400391

> <r_mmod_Stretch_Energy-OPLS-2005>
206.294509887695

> <r_mmod_Bend_Energy-OPLS-2005>
264.746704101562

> <r_mmod_Torsional_Energy-OPLS-2005>
235.324920654297

> <r_mmod_Improper_Torsional_Energy-OPLS-2005>
9.88704872131348

> <r_mmod_Van_der_Waal_Energy-OPLS-2005>
136.568435668945

> <r_mmod_Electrostatic_Energy-OPLS-2005>
-483.716949462891

> <r_mmod_Solvation_Energy-OPLS-2005>
-218.346298217773

> <b_mmod_Minimization_Converged-OPLS-2005>
0

> <r_mmod_RMS_Derivative-OPLS-2005>
4.46216773986816

$$$$
53
                    3D
 Structure written by MMmdl.
164172  0  0  1  0            999 V2000
  -30.6856  -14.4934   20.5202 C   0  0  0  0  0  0
  -30.4256  -12.3042   19.4303 C   0  0  0  0  0  0
  -29.4980  -12.4929   18.2128 C   0  0  0  0  0  0
  -28.0195  -12.3555   18.6261 C   0  0  0  0  0  0
  -27.6627  -13.2069   19.8743 C   0  0  2  0  0  0
  -28.7077  -13.0058   20.9979 C   0  0  0  0  0  0
  -25.2601  -13.8168   20.5686 C   0  0  0  0  0  0
  -24.1849  -13.0445   20.9190 C   0  0  0  0  0  0
  -24.6423  -11.6916   20.8773 C   0  0  0  0  0  0
  -23.9105  -10.4300   21.0426 C   0  0  0  0  0  0
  -24.3641   -9.4203   21.9203 C   0  0  0  0  0  0
  -23.6296   -8.2248   22.0761 C   0  0  0  0  0  0
  -22.4277   -8.0298   21.3551 C   0  0  0  0  0  0
  -21.9932   -9.0287   20.4661 C   0  0  0  0  0  0
  -22.7279  -10.2157   20.3080 C   0  0  0  0  0  0
  -21.6852   -6.0748   22.5288 C   0  0  0  0  0  0
  -21.4007   -6.5642   23.8225 C   0  0  0  0  0  0
  -21.3655   -5.6791   24.9184 C   0  0  0  0  0  0
  -21.6052   -4.3055   24.7231 C   0  0  0  0  0  0
  -21.8815   -3.8155   23.4351 C   0  0  0  0  0  0
  -21.9186   -4.6977   22.3410 C   0  0  0  0  0  0
  -22.7869  -13.5255   21.1832 C   0  0  0  0  0  0
  -22.1653   -4.2167   21.0985 F   0  0  0  0  0  0
  -21.5635   -3.4531   25.7743 F   0  0  0  0  0  0
  -30.0369  -13.3012   20.4402 N   0  0  0  0  0  0
  -26.3045  -12.9340   20.3381 N   0  0  0  0  0  0
  -25.9348  -11.6508   20.5803 N   0  0  0  0  0  0
  -22.0478  -12.8275   22.0390 N   0  0  0  0  0  0
  -25.4309  -15.1887   20.4065 N   0  0  0  0  0  0
  -31.8327  -14.6618   20.0975 O   0  0  0  0  0  0
  -21.6636   -6.8898   21.4251 O   0  0  0  0  0  0
  -22.3578  -14.5557   20.6663 O   0  0  0  0  0  0
  -24.6183  -31.8665   23.2108 C   0  0  0  0  0  0
  -25.9073  -32.4812   23.8393 C   0  0  1  0  0  0
  -27.2264  -27.4026   20.0997 C   0  0  0  0  0  0
  -25.5917  -33.8612   24.2317 N   0  0  0  0  0  0
  -23.4062  -30.4940   21.5527 C   0  0  2  0  0  0
  -24.8500  -28.9629   20.1134 C   0  0  0  0  0  0
  -22.7416  -29.4671   22.4984 C   0  0  0  0  0  0
  -18.0273  -28.1402   22.8492 C   0  0  0  0  0  0
  -24.1489  -36.7318   23.2639 C   0  0  0  0  0  0
  -25.9405  -30.8246   21.3683 C   0  0  0  0  0  0
  -26.0156  -29.4597   20.7105 C   0  0  0  0  0  0
  -27.2063  -28.6888   20.6985 C   0  0  0  0  0  0
  -26.0370  -26.9420   19.4821 C   0  0  0  0  0  0
  -24.8582  -27.7042   19.4954 C   0  0  0  0  0  0
  -23.6149  -29.8339   20.1654 C   0  0  0  0  0  0
  -25.4108  -36.3102   24.0334 C   0  0  1  0  0  0
  -20.5863  -28.3691   23.1312 C   0  0  2  0  0  0
  -20.6772  -26.9424   22.5414 C   0  0  0  0  0  0
  -19.5744  -26.6401   21.5219 C   0  0  0  0  0  0
  -18.1923  -26.7952   22.1627 C   0  0  0  0  0  0
  -19.1517  -28.8862   23.2903 C   0  0  0  0  0  0
  -18.9451  -30.1470   23.8915 C   0  0  0  0  0  0
  -17.6454  -30.6607   24.0573 C   0  0  0  0  0  0
  -25.9039  -34.9469   23.5118 C   0  0  0  0  0  0
  -16.5345  -29.9111   23.6340 C   0  0  0  0  0  0
  -16.7261  -28.6531   23.0351 C   0  0  0  0  0  0
  -26.4482  -31.6611   25.0743 C   0  0  0  0  0  0
  -25.3734  -31.3742   26.1484 C   0  0  0  0  0  0
  -27.0318  -30.3040   24.6164 C   0  0  0  0  0  0
  -27.6046  -32.4345   25.7505 C   0  0  0  0  0  0
  -27.5579  -37.1806   24.8456 C   0  0  0  0  0  0
  -21.4142  -29.3053   22.3711 N   0  0  0  0  0  0
  -26.4289  -37.3788   23.9415 N   0  0  0  0  0  0
  -24.6739  -31.0748   22.1024 N   0  0  0  0  0  0
  -23.4170  -28.8205   23.3029 O   0  0  0  0  0  0
  -28.3755  -26.6199   20.1478 O   0  0  0  0  0  0
  -26.5582  -34.8920   22.4668 O   0  0  0  0  0  0
  -23.5373  -32.1435   23.7484 O   0  0  0  0  0  0
  -29.6059  -20.3844   20.8263 C   0  0  0  0  0  0
  -31.3972  -21.9326   20.3611 C   0  0  0  0  0  0
  -30.0176  -21.6875   20.4483 C   0  0  0  0  0  0
  -30.5703  -19.3841   21.1214 C   0  0  0  0  0  0
  -31.9336  -19.7539   20.9844 C   0  0  0  0  0  0
  -33.6434  -18.9799   22.6858 C   0  0  0  0  0  0
  -28.8510  -17.9399   22.3931 C   0  0  0  0  0  0
  -28.9871  -22.7668   20.0780 C   0  0  0  0  0  0
  -33.0905  -18.8043   21.2665 C   0  0  0  0  0  0
  -29.3348  -24.2590   20.3843 C   0  0  0  0  0  0
  -30.1301  -16.9392   20.4285 C   0  0  0  0  0  0
  -28.1971  -25.2023   19.9145 C   0  0  0  0  0  0
  -30.1654  -17.9644   21.5920 C   0  0  1  0  0  0
  -32.3264  -20.9938   20.6219 N   0  0  0  0  0  0
  -29.9112  -15.5426   20.8551 N   0  0  0  0  0  0
  -31.4696  -12.3989   19.1281 H   0  0  0  0  0  0
  -30.3247  -11.2971   19.8382 H   0  0  0  0  0  0
  -29.7379  -11.7601   17.4414 H   0  0  0  0  0  0
  -29.6686  -13.4735   17.7666 H   0  0  0  0  0  0
  -27.8301  -11.3010   18.8302 H   0  0  0  0  0  0
  -27.3717  -12.6204   17.7910 H   0  0  0  0  0  0
  -27.6993  -14.2507   19.5612 H   0  0  0  0  0  0
  -28.6857  -11.9758   21.3566 H   0  0  0  0  0  0
  -28.4793  -13.6269   21.8656 H   0  0  0  0  0  0
  -25.2780   -9.5656   22.4788 H   0  0  0  0  0  0
  -23.9988   -7.4633   22.7478 H   0  0  0  0  0  0
  -21.0860   -8.8848   19.8958 H   0  0  0  0  0  0
  -22.3764  -10.9717   19.6199 H   0  0  0  0  0  0
  -21.1988   -7.6149   23.9740 H   0  0  0  0  0  0
  -21.1482   -6.0513   25.9090 H   0  0  0  0  0  0
  -22.0595   -2.7622   23.2854 H   0  0  0  0  0  0
  -22.4052  -11.9940   22.4824 H   0  0  0  0  0  0
  -21.1105  -13.1352   22.2566 H   0  0  0  0  0  0
  -24.6605  -15.8405   20.5068 H   0  0  0  0  0  0
  -26.2822  -15.6306   20.0837 H   0  0  0  0  0  0
  -26.7144  -32.5503   23.1155 H   0  0  0  0  0  0
  -25.0076  -33.9770   25.0463 H   0  0  0  0  0  0
  -22.6979  -31.3142   21.4165 H   0  0  0  0  0  0
  -23.3741  -35.9658   23.3294 H   0  0  0  0  0  0
  -24.3588  -36.8945   22.2055 H   0  0  0  0  0  0
  -23.7251  -37.6526   23.6658 H   0  0  0  0  0  0
  -26.0582  -31.5942   20.6032 H   0  0  0  0  0  0
  -26.8264  -30.8730   21.9902 H   0  0  0  0  0  0
  -28.1026  -29.0679   21.1698 H   0  0  0  0  0  0
  -25.9848  -25.9842   18.9858 H   0  0  0  0  0  0
  -23.9632  -27.3166   19.0289 H   0  0  0  0  0  0
  -23.7260  -30.6148   19.4122 H   0  0  0  0  0  0
  -22.7360  -29.2605   19.8641 H   0  0  0  0  0  0
  -25.1283  -36.1959   25.0826 H   0  0  0  0  0  0
  -20.9951  -28.3268   24.1435 H   0  0  0  0  0  0
  -20.5711  -26.2290   23.3602 H   0  0  0  0  0  0
  -21.6642  -26.7495   22.1185 H   0  0  0  0  0  0
  -19.6905  -25.6309   21.1259 H   0  0  0  0  0  0
  -19.6698  -27.3206   20.6747 H   0  0  0  0  0  0
  -17.4195  -26.6699   21.4033 H   0  0  0  0  0  0
  -18.0330  -26.0101   22.9029 H   0  0  0  0  0  0
  -19.7924  -30.7284   24.2293 H   0  0  0  0  0  0
  -17.5011  -31.6291   24.5168 H   0  0  0  0  0  0
  -15.5348  -30.3018   23.7672 H   0  0  0  0  0  0
  -15.8658  -28.0866   22.7054 H   0  0  0  0  0  0
  -24.5881  -30.7121   25.7820 H   0  0  0  0  0  0
  -24.8954  -32.2912   26.4944 H   0  0  0  0  0  0
  -25.8068  -30.8892   27.0239 H   0  0  0  0  0  0
  -26.2884  -29.6804   24.1187 H   0  0  0  0  0  0
  -27.4026  -29.7288   25.4662 H   0  0  0  0  0  0
  -27.8746  -30.4342   23.9371 H   0  0  0  0  0  0
  -27.2649  -33.3630   26.2109 H   0  0  0  0  0  0
  -28.3837  -32.6943   25.0326 H   0  0  0  0  0  0
  -28.0737  -31.8464   26.5403 H   0  0  0  0  0  0
  -28.2578  -38.0121   24.7521 H   0  0  0  0  0  0
  -28.1097  -36.2654   24.6254 H   0  0  0  0  0  0
  -27.2304  -37.1426   25.8859 H   0  0  0  0  0  0
  -20.9295  -29.8761   21.6921 H   0  0  0  0  0  0
  -26.0174  -38.2863   24.1422 H   0  0  0  0  0  0
  -28.5503  -20.1630   20.8880 H   0  0  0  0  0  0
  -31.7772  -22.8986   20.0648 H   0  0  0  0  0  0
  -34.4730  -18.2960   22.8616 H   0  0  0  0  0  0
  -32.8744  -18.7823   23.4328 H   0  0  0  0  0  0
  -34.0070  -19.9961   22.8433 H   0  0  0  0  0  0
  -28.8790  -18.6556   23.2149 H   0  0  0  0  0  0
  -28.6743  -16.9595   22.8356 H   0  0  0  0  0  0
  -27.9853  -18.1681   21.7704 H   0  0  0  0  0  0
  -28.0470  -22.5156   20.5723 H   0  0  0  0  0  0
  -28.7957  -22.6644   19.0091 H   0  0  0  0  0  0
  -33.8851  -18.9985   20.5447 H   0  0  0  0  0  0
  -32.8119  -17.7650   21.0983 H   0  0  0  0  0  0
  -30.2595  -24.5536   19.8883 H   0  0  0  0  0  0
  -29.4957  -24.3820   21.4559 H   0  0  0  0  0  0
  -31.0404  -17.0212   19.8337 H   0  0  0  0  0  0
  -29.3237  -17.2034   19.7441 H   0  0  0  0  0  0
  -27.2906  -24.8574   20.4158 H   0  0  0  0  0  0
  -28.0504  -25.0528   18.8435 H   0  0  0  0  0  0
  -30.9288  -17.6391   22.2987 H   0  0  0  0  0  0
  -28.9886  -15.3155   21.1962 H   0  0  0  0  0  0
  1 25  1  0  0  0
  1 30  2  0  0  0
  1 85  1  0  0  0
  2  3  1  0  0  0
  2 25  1  0  0  0
  2 86  1  0  0  0
  2 87  1  0  0  0
  3  4  1  0  0  0
  3 88  1  0  0  0
  3 89  1  0  0  0
  4  5  1  0  0  0
  4 90  1  0  0  0
  4 91  1  0  0  0
  5  6  1  0  0  0
  5 26  1  0  0  0
  5 92  1  0  0  0
  6 25  1  0  0  0
  6 93  1  0  0  0
  6 94  1  0  0  0
  7  8  2  0  0  0
  7 26  1  0  0  0
  7 29  1  0  0  0
  8  9  1  0  0  0
  8 22  1  0  0  0
  9 10  1  0  0  0
  9 27  2  0  0  0
 10 11  2  0  0  0
 10 15  1  0  0  0
 11 12  1  0  0  0
 11 95  1  0  0  0
 12 13  2  0  0  0
 12 96  1  0  0  0
 13 14  1  0  0  0
 13 31  1  0  0  0
 14 15  2  0  0  0
 14 97  1  0  0  0
 15 98  1  0  0  0
 16 17  2  0  0  0
 16 21  1  0  0  0
 16 31  1  0  0  0
 17 18  1  0  0  0
 17 99  1  0  0  0
 18 19  2  0  0  0
 18100  1  0  0  0
 19 20  1  0  0  0
 19 24  1  0  0  0
 20 21  2  0  0  0
 20101  1  0  0  0
 21 23  1  0  0  0
 22 28  1  0  0  0
 22 32  2  0  0  0
 26 27  1  0  0  0
 28102  1  0  0  0
 28103  1  0  0  0
 29104  1  0  0  0
 29105  1  0  0  0
 33 34  1  0  0  0
 33 66  1  0  0  0
 33 70  2  0  0  0
 34 36  1  0  0  0
 34 59  1  0  0  0
 34106  1  0  0  0
 35 44  2  0  0  0
 35 45  1  0  0  0
 35 68  1  0  0  0
 36 56  1  0  0  0
 36107  1  0  0  0
 37 39  1  0  0  0
 37 47  1  0  0  0
 37 66  1  0  0  0
 37108  1  0  0  0
 38 43  2  0  0  0
 38 46  1  0  0  0
 38 47  1  0  0  0
 39 64  1  0  0  0
 39 67  2  0  0  0
 40 52  1  0  0  0
 40 53  2  0  0  0
 40 58  1  0  0  0
 41109  1  0  0  0
 41110  1  0  0  0
 41111  1  0  0  0
 41 48  1  0  0  0
 42 43  1  0  0  0
 42 66  1  0  0  0
 42112  1  0  0  0
 42113  1  0  0  0
 43 44  1  0  0  0
 44114  1  0  0  0
 45 46  2  0  0  0
 45115  1  0  0  0
 46116  1  0  0  0
 47117  1  0  0  0
 47118  1  0  0  0
 48 56  1  0  0  0
 48 65  1  0  0  0
 48119  1  0  0  0
 49 50  1  0  0  0
 49 53  1  0  0  0
 49 64  1  0  0  0
 49120  1  0  0  0
 50 51  1  0  0  0
 50121  1  0  0  0
 50122  1  0  0  0
 51 52  1  0  0  0
 51123  1  0  0  0
 51124  1  0  0  0
 52125  1  0  0  0
 52126  1  0  0  0
 53 54  1  0  0  0
 54 55  2  0  0  0
 54127  1  0  0  0
 55 57  1  0  0  0
 55128  1  0  0  0
 56 69  2  0  0  0
 57 58  2  0  0  0
 57129  1  0  0  0
 58130  1  0  0  0
 59 60  1  0  0  0
 59 61  1  0  0  0
 59 62  1  0  0  0
 60131  1  0  0  0
 60132  1  0  0  0
 60133  1  0  0  0
 61134  1  0  0  0
 61135  1  0  0  0
 61136  1  0  0  0
 62137  1  0  0  0
 62138  1  0  0  0
 62139  1  0  0  0
 63 65  1  0  0  0
 63140  1  0  0  0
 63141  1  0  0  0
 63142  1  0  0  0
 64143  1  0  0  0
 65144  1  0  0  0
 68 82  1  0  0  0
 71 73  2  0  0  0
 71 74  1  0  0  0
 71145  1  0  0  0
 72 73  1  0  0  0
 72 84  2  0  0  0
 72146  1  0  0  0
 73 78  1  0  0  0
 74 75  2  0  0  0
 74 83  1  0  0  0
 75 79  1  0  0  0
 75 84  1  0  0  0
 76 79  1  0  0  0
 76147  1  0  0  0
 76148  1  0  0  0
 76149  1  0  0  0
 77150  1  0  0  0
 77151  1  0  0  0
 77152  1  0  0  0
 77 83  1  0  0  0
 78 80  1  0  0  0
 78153  1  0  0  0
 78154  1  0  0  0
 79155  1  0  0  0
 79156  1  0  0  0
 80 82  1  0  0  0
 80157  1  0  0  0
 80158  1  0  0  0
 81 83  1  0  0  0
 81 85  1  0  0  0
 81159  1  0  0  0
 81160  1  0  0  0
 82161  1  0  0  0
 82162  1  0  0  0
 83163  1  0  0  0
 85164  1  0  0  0
M  ISO  4   1 100  68 101  82 101  85 100
M  END
> <chiral flag>
0

> <version>
0

> <s_m_source_file>
/data/baiqing/PycharmProjects/Reinvent-master-3.2/result/LINK_invent/BTK/process_docking_weight1_custom_sum_contain_oxygen_bond_distance_aromatic_linkinvent_7_9_3/rearranged_h_0093.sdf

> <i_m_source_file_index>
54

> <r_mmod_Potential_Energy-OPLS-2005>
-258.523590087891

> <r_mmod_Stretch_Energy-OPLS-2005>
42.760311126709

> <r_mmod_Bend_Energy-OPLS-2005>
101.411010742188

> <r_mmod_Torsional_Energy-OPLS-2005>
199.755325317383

> <r_mmod_Improper_Torsional_Energy-OPLS-2005>
6.833655834198

> <r_mmod_Van_der_Waal_Energy-OPLS-2005>
160.986038208008

> <r_mmod_Electrostatic_Energy-OPLS-2005>
-569.458435058594

> <r_mmod_Solvation_Energy-OPLS-2005>
-219.887191772461

> <b_mmod_Minimization_Converged-OPLS-2005>
0

> <r_mmod_RMS_Derivative-OPLS-2005>
2.00990128517151

$$$$
54
                    3D
 Structure written by MMmdl.
175183  0  0  1  0            999 V2000
  -30.7028  -14.5903   20.5028 C   0  0  0  0  0  0
  -30.4047  -12.3847   19.4169 C   0  0  0  0  0  0
  -29.4705  -12.5186   18.1968 C   0  0  0  0  0  0
  -27.9969  -12.3731   18.6211 C   0  0  0  0  0  0
  -27.6396  -13.2311   19.8622 C   0  0  2  0  0  0
  -28.6997  -13.1068   20.9810 C   0  0  0  0  0  0
  -25.2497  -13.8172   20.5780 C   0  0  0  0  0  0
  -24.1787  -13.0388   20.9238 C   0  0  0  0  0  0
  -24.6396  -11.6891   20.8769 C   0  0  0  0  0  0
  -23.9055  -10.4275   21.0418 C   0  0  0  0  0  0
  -24.3597   -9.4183   21.9203 C   0  0  0  0  0  0
  -23.6296   -8.2207   22.0738 C   0  0  0  0  0  0
  -22.4258   -8.0280   21.3557 C   0  0  0  0  0  0
  -21.9900   -9.0231   20.4636 C   0  0  0  0  0  0
  -22.7227  -10.2112   20.3069 C   0  0  0  0  0  0
  -21.6841   -6.0747   22.5292 C   0  0  0  0  0  0
  -21.4001   -6.5642   23.8235 C   0  0  0  0  0  0
  -21.3640   -5.6798   24.9192 C   0  0  0  0  0  0
  -21.6054   -4.3065   24.7224 C   0  0  0  0  0  0
  -21.8818   -3.8155   23.4332 C   0  0  0  0  0  0
  -21.9158   -4.6977   22.3390 C   0  0  0  0  0  0
  -22.7813  -13.5196   21.1850 C   0  0  0  0  0  0
  -22.1636   -4.2180   21.0966 F   0  0  0  0  0  0
  -21.5605   -3.4534   25.7721 F   0  0  0  0  0  0
  -30.0019  -13.4243   20.3871 N   0  0  0  0  0  0
  -26.2945  -12.9390   20.3414 N   0  0  0  0  0  0
  -25.9348  -11.6516   20.5826 N   0  0  0  0  0  0
  -22.0453  -12.8205   22.0408 N   0  0  0  0  0  0
  -25.4161  -15.1889   20.4279 N   0  0  0  0  0  0
  -31.8680  -14.6704   20.1132 O   0  0  0  0  0  0
  -21.6627   -6.8895   21.4256 O   0  0  0  0  0  0
  -22.3504  -14.5482   20.6678 O   0  0  0  0  0  0
  -24.6198  -31.8657   23.2097 C   0  0  0  0  0  0
  -25.9100  -32.4789   23.8418 C   0  0  1  0  0  0
  -27.2152  -27.3684   20.1026 C   0  0  0  0  0  0
  -25.5991  -33.8611   24.2370 N   0  0  0  0  0  0
  -23.4055  -30.4912   21.5537 C   0  0  2  0  0  0
  -24.8447  -28.9535   20.1171 C   0  0  0  0  0  0
  -22.7398  -29.4640   22.5004 C   0  0  0  0  0  0
  -18.0268  -28.1307   22.8494 C   0  0  0  0  0  0
  -24.1484  -36.7259   23.2648 C   0  0  0  0  0  0
  -25.9426  -30.8121   21.3724 C   0  0  0  0  0  0
  -26.0125  -29.4446   20.7093 C   0  0  0  0  0  0
  -27.1967  -28.6600   20.7028 C   0  0  0  0  0  0
  -26.0148  -26.9021   19.5211 C   0  0  0  0  0  0
  -24.8407  -27.6801   19.5263 C   0  0  0  0  0  0
  -23.6152  -29.8365   20.1656 C   0  0  0  0  0  0
  -25.4108  -36.3062   24.0333 C   0  0  1  0  0  0
  -20.5844  -28.3598   23.1347 C   0  0  2  0  0  0
  -20.6773  -26.9352   22.5441 C   0  0  0  0  0  0
  -19.5778  -26.6326   21.5218 C   0  0  0  0  0  0
  -18.1943  -26.7836   22.1609 C   0  0  0  0  0  0
  -19.1504  -28.8777   23.2900 C   0  0  0  0  0  0
  -18.9429  -30.1402   23.8861 C   0  0  0  0  0  0
  -17.6436  -30.6537   24.0531 C   0  0  0  0  0  0
  -25.9056  -34.9443   23.5130 C   0  0  0  0  0  0
  -16.5340  -29.9015   23.6320 C   0  0  0  0  0  0
  -16.7248  -28.6423   23.0351 C   0  0  0  0  0  0
  -26.4519  -31.6572   25.0773 C   0  0  0  0  0  0
  -25.3849  -31.3637   26.1572 C   0  0  0  0  0  0
  -27.0408  -30.3005   24.6226 C   0  0  0  0  0  0
  -27.6090  -32.4311   25.7540 C   0  0  0  0  0  0
  -27.5550  -37.1795   24.8478 C   0  0  0  0  0  0
  -21.4121  -29.3016   22.3773 N   0  0  0  0  0  0
  -26.4266  -37.3767   23.9427 N   0  0  0  0  0  0
  -24.6733  -31.0732   22.1016 N   0  0  0  0  0  0
  -23.4154  -28.8198   23.3046 O   0  0  0  0  0  0
  -28.3860  -26.6087   20.1195 O   0  0  0  0  0  0
  -26.5568  -34.8895   22.4663 O   0  0  0  0  0  0
  -23.5368  -32.1496   23.7419 O   0  0  0  0  0  0
  -26.7307  -18.3289   19.6150 C   0  0  0  0  0  0
  -25.6820  -19.2772   19.5793 C   0  0  0  0  0  0
  -27.8551  -18.8820   20.1548 C   0  0  0  0  0  0
  -26.1729  -20.4439   20.1171 C   0  0  0  0  0  0
  -24.3092  -18.9637   19.0548 C   0  0  0  0  0  0
  -21.6107  -22.1750   21.2375 C   0  0  0  0  0  0
  -23.1262  -20.4329   22.2141 C   0  0  0  0  0  0
  -29.1551  -18.1147   20.4750 C   0  0  0  0  0  0
  -25.4937  -21.7653   20.4649 C   0  0  0  0  0  0
  -23.9609  -21.9401   20.2658 C   0  0  0  0  0  0
  -28.5548  -22.6239   19.8093 C   0  0  0  0  0  0
  -28.2720  -24.0453   20.4466 C   0  0  0  0  0  0
  -28.4660  -21.3584   20.7601 C   0  0  0  0  0  0
  -29.0132  -16.5249   20.4475 C   0  0  0  0  0  0
  -28.4626  -25.2856   19.4991 C   0  0  0  0  0  0
  -23.0771  -21.8101   21.5322 C   0  0  0  0  0  0
  -27.5556  -20.2620   20.3269 N   0  0  0  0  0  0
  -30.1228  -15.7075   21.0233 N   0  0  0  0  0  0
  -31.4404  -12.4873   19.0889 H   0  0  0  0  0  0
  -30.3378  -11.3886   19.8626 H   0  0  0  0  0  0
  -29.7137  -11.7699   17.4436 H   0  0  0  0  0  0
  -29.6113  -13.4901   17.7191 H   0  0  0  0  0  0
  -27.8009  -11.3177   18.8281 H   0  0  0  0  0  0
  -27.3474  -12.6453   17.7860 H   0  0  0  0  0  0
  -27.6385  -14.2651   19.5216 H   0  0  0  0  0  0
  -28.7259  -12.0938   21.3844 H   0  0  0  0  0  0
  -28.4733  -13.7703   21.8152 H   0  0  0  0  0  0
  -25.2715   -9.5611   22.4842 H   0  0  0  0  0  0
  -23.9995   -7.4573   22.7417 H   0  0  0  0  0  0
  -21.0838   -8.8733   19.8939 H   0  0  0  0  0  0
  -22.3697  -10.9650   19.6198 H   0  0  0  0  0  0
  -21.2056   -7.6170   23.9730 H   0  0  0  0  0  0
  -21.1451   -6.0542   25.9105 H   0  0  0  0  0  0
  -22.0622   -2.7619   23.2818 H   0  0  0  0  0  0
  -22.4081  -11.9906   22.4852 H   0  0  0  0  0  0
  -21.1056  -13.1268   22.2532 H   0  0  0  0  0  0
  -24.6605  -15.8521   20.5656 H   0  0  0  0  0  0
  -26.2901  -15.6194   20.1694 H   0  0  0  0  0  0
  -26.7177  -32.5405   23.1174 H   0  0  0  0  0  0
  -25.0334  -33.9810   25.0642 H   0  0  0  0  0  0
  -22.6949  -31.3084   21.4133 H   0  0  0  0  0  0
  -23.3751  -35.9591   23.3320 H   0  0  0  0  0  0
  -24.3596  -36.8876   22.2070 H   0  0  0  0  0  0
  -23.7236  -37.6466   23.6655 H   0  0  0  0  0  0
  -26.0899  -31.5850   20.6182 H   0  0  0  0  0  0
  -26.8115  -30.8421   22.0139 H   0  0  0  0  0  0
  -28.0859  -29.0395   21.1851 H   0  0  0  0  0  0
  -25.9376  -25.9211   19.0787 H   0  0  0  0  0  0
  -23.9307  -27.2820   19.0971 H   0  0  0  0  0  0
  -23.7486  -30.6217   19.4206 H   0  0  0  0  0  0
  -22.7298  -29.2845   19.8484 H   0  0  0  0  0  0
  -25.1293  -36.1920   25.0823 H   0  0  0  0  0  0
  -20.9898  -28.3146   24.1475 H   0  0  0  0  0  0
  -20.5688  -26.2230   23.3621 H   0  0  0  0  0  0
  -21.6654  -26.7429   22.1251 H   0  0  0  0  0  0
  -19.6997  -25.6252   21.1215 H   0  0  0  0  0  0
  -19.6694  -27.3157   20.6757 H   0  0  0  0  0  0
  -17.4248  -26.6584   21.3958 H   0  0  0  0  0  0
  -18.0300  -25.9918   22.8931 H   0  0  0  0  0  0
  -19.7927  -30.7225   24.2198 H   0  0  0  0  0  0
  -17.5011  -31.6216   24.5134 H   0  0  0  0  0  0
  -15.5362  -30.2953   23.7630 H   0  0  0  0  0  0
  -15.8622  -28.0765   22.7099 H   0  0  0  0  0  0
  -24.6038  -30.6923   25.7975 H   0  0  0  0  0  0
  -24.9041  -32.2786   26.5059 H   0  0  0  0  0  0
  -25.8329  -30.8838   27.0305 H   0  0  0  0  0  0
  -26.2981  -29.6677   24.1350 H   0  0  0  0  0  0
  -27.4271  -29.7290   25.4690 H   0  0  0  0  0  0
  -27.8764  -30.4311   23.9332 H   0  0  0  0  0  0
  -27.2695  -33.3628   26.2065 H   0  0  0  0  0  0
  -28.3912  -32.6868   25.0387 H   0  0  0  0  0  0
  -28.0745  -31.8505   26.5512 H   0  0  0  0  0  0
  -28.2588  -38.0070   24.7516 H   0  0  0  0  0  0
  -28.1005  -36.2612   24.6285 H   0  0  0  0  0  0
  -27.2273  -37.1445   25.8883 H   0  0  0  0  0  0
  -20.9242  -29.8843   21.7127 H   0  0  0  0  0  0
  -26.0108  -38.2821   24.1486 H   0  0  0  0  0  0
  -26.6471  -17.3032   19.2902 H   0  0  0  0  0  0
  -24.2625  -17.9374   18.6918 H   0  0  0  0  0  0
  -24.0522  -19.6217   18.2234 H   0  0  0  0  0  0
  -23.5556  -19.0594   19.8313 H   0  0  0  0  0  0
  -21.0098  -22.1227   22.1480 H   0  0  0  0  0  0
  -21.1586  -21.4924   20.5172 H   0  0  0  0  0  0
  -21.5128  -23.1858   20.8416 H   0  0  0  0  0  0
  -22.6214  -20.4721   23.1800 H   0  0  0  0  0  0
  -24.1476  -20.0978   22.3935 H   0  0  0  0  0  0
  -22.6096  -19.6705   21.6325 H   0  0  0  0  0  0
  -29.5159  -18.4310   21.4542 H   0  0  0  0  0  0
  -29.9324  -18.4217   19.7721 H   0  0  0  0  0  0
  -25.9359  -22.5433   19.8472 H   0  0  0  0  0  0
  -25.7435  -22.0364   21.4944 H   0  0  0  0  0  0
  -23.5686  -21.3799   19.4265 H   0  0  0  0  0  0
  -23.8230  -22.9739   19.9411 H   0  0  0  0  0  0
  -29.5590  -22.6382   19.3836 H   0  0  0  0  0  0
  -27.9203  -22.4786   18.9357 H   0  0  0  0  0  0
  -28.9401  -24.1702   21.2994 H   0  0  0  0  0  0
  -27.2577  -24.0803   20.8467 H   0  0  0  0  0  0
  -28.1534  -21.6768   21.7555 H   0  0  0  0  0  0
  -29.4648  -20.9415   20.8807 H   0  0  0  0  0  0
  -28.8164  -16.2136   19.4227 H   0  0  0  0  0  0
  -28.1239  -16.2638   21.0250 H   0  0  0  0  0  0
  -29.4679  -25.2218   19.0842 H   0  0  0  0  0  0
  -27.8345  -25.2040   18.6130 H   0  0  0  0  0  0
  -23.4536  -22.5419   22.2480 H   0  0  0  0  0  0
  -30.8359  -16.3090   21.4150 H   0  0  0  0  0  0
  1 25  1  0  0  0
  1 30  2  0  0  0
  1 88  1  0  0  0
  2  3  1  0  0  0
  2 25  1  0  0  0
  2 89  1  0  0  0
  2 90  1  0  0  0
  3  4  1  0  0  0
  3 91  1  0  0  0
  3 92  1  0  0  0
  4  5  1  0  0  0
  4 93  1  0  0  0
  4 94  1  0  0  0
  5  6  1  0  0  0
  5 26  1  0  0  0
  5 95  1  0  0  0
  6 25  1  0  0  0
  6 96  1  0  0  0
  6 97  1  0  0  0
  7  8  2  0  0  0
  7 26  1  0  0  0
  7 29  1  0  0  0
  8  9  1  0  0  0
  8 22  1  0  0  0
  9 10  1  0  0  0
  9 27  2  0  0  0
 10 11  2  0  0  0
 10 15  1  0  0  0
 11 12  1  0  0  0
 11 98  1  0  0  0
 12 13  2  0  0  0
 12 99  1  0  0  0
 13 14  1  0  0  0
 13 31  1  0  0  0
 14 15  2  0  0  0
 14100  1  0  0  0
 15101  1  0  0  0
 16 17  2  0  0  0
 16 21  1  0  0  0
 16 31  1  0  0  0
 17 18  1  0  0  0
 17102  1  0  0  0
 18 19  2  0  0  0
 18103  1  0  0  0
 19 20  1  0  0  0
 19 24  1  0  0  0
 20 21  2  0  0  0
 20104  1  0  0  0
 21 23  1  0  0  0
 22 28  1  0  0  0
 22 32  2  0  0  0
 26 27  1  0  0  0
 28105  1  0  0  0
 28106  1  0  0  0
 29107  1  0  0  0
 29108  1  0  0  0
 33 34  1  0  0  0
 33 66  1  0  0  0
 33 70  2  0  0  0
 34 36  1  0  0  0
 34 59  1  0  0  0
 34109  1  0  0  0
 35 44  2  0  0  0
 35 45  1  0  0  0
 35 68  1  0  0  0
 36 56  1  0  0  0
 36110  1  0  0  0
 37 39  1  0  0  0
 37 47  1  0  0  0
 37 66  1  0  0  0
 37111  1  0  0  0
 38 43  2  0  0  0
 38 46  1  0  0  0
 38 47  1  0  0  0
 39 64  1  0  0  0
 39 67  2  0  0  0
 40 52  1  0  0  0
 40 53  2  0  0  0
 40 58  1  0  0  0
 41112  1  0  0  0
 41113  1  0  0  0
 41114  1  0  0  0
 41 48  1  0  0  0
 42 43  1  0  0  0
 42 66  1  0  0  0
 42115  1  0  0  0
 42116  1  0  0  0
 43 44  1  0  0  0
 44117  1  0  0  0
 45 46  2  0  0  0
 45118  1  0  0  0
 46119  1  0  0  0
 47120  1  0  0  0
 47121  1  0  0  0
 48 56  1  0  0  0
 48 65  1  0  0  0
 48122  1  0  0  0
 49 50  1  0  0  0
 49 53  1  0  0  0
 49 64  1  0  0  0
 49123  1  0  0  0
 50 51  1  0  0  0
 50124  1  0  0  0
 50125  1  0  0  0
 51 52  1  0  0  0
 51126  1  0  0  0
 51127  1  0  0  0
 52128  1  0  0  0
 52129  1  0  0  0
 53 54  1  0  0  0
 54 55  2  0  0  0
 54130  1  0  0  0
 55 57  1  0  0  0
 55131  1  0  0  0
 56 69  2  0  0  0
 57 58  2  0  0  0
 57132  1  0  0  0
 58133  1  0  0  0
 59 60  1  0  0  0
 59 61  1  0  0  0
 59 62  1  0  0  0
 60134  1  0  0  0
 60135  1  0  0  0
 60136  1  0  0  0
 61137  1  0  0  0
 61138  1  0  0  0
 61139  1  0  0  0
 62140  1  0  0  0
 62141  1  0  0  0
 62142  1  0  0  0
 63 65  1  0  0  0
 63143  1  0  0  0
 63144  1  0  0  0
 63145  1  0  0  0
 64146  1  0  0  0
 65147  1  0  0  0
 68 85  1  0  0  0
 71 72  1  0  0  0
 71 73  2  0  0  0
 71148  1  0  0  0
 72 74  2  0  0  0
 72 75  1  0  0  0
 73 78  1  0  0  0
 73 87  1  0  0  0
 74 79  1  0  0  0
 74 87  1  0  0  0
 75149  1  0  0  0
 75150  1  0  0  0
 75151  1  0  0  0
 76152  1  0  0  0
 76153  1  0  0  0
 76154  1  0  0  0
 76 86  1  0  0  0
 77 86  1  0  0  0
 77155  1  0  0  0
 77156  1  0  0  0
 77157  1  0  0  0
 78 84  1  0  0  0
 78158  1  0  0  0
 78159  1  0  0  0
 79 80  1  0  0  0
 79160  1  0  0  0
 79161  1  0  0  0
 80 86  1  0  0  0
 80162  1  0  0  0
 80163  1  0  0  0
 81 82  1  0  0  0
 81 83  1  0  0  0
 81164  1  0  0  0
 81165  1  0  0  0
 82 85  1  0  0  0
 82166  1  0  0  0
 82167  1  0  0  0
 83 87  1  0  0  0
 83168  1  0  0  0
 83169  1  0  0  0
 84 88  1  0  0  0
 84170  1  0  0  0
 84171  1  0  0  0
 85172  1  0  0  0
 85173  1  0  0  0
 86174  1  0  0  0
 88175  1  0  0  0
M  ISO  4   1 100  68 101  85 101  88 100
M  END
> <chiral flag>
0

> <version>
0

> <s_m_source_file>
/data/baiqing/PycharmProjects/Reinvent-master-3.2/result/LINK_invent/BTK/process_docking_weight1_custom_sum_contain_oxygen_bond_distance_aromatic_linkinvent_7_9_3/rearranged_h_0093.sdf

> <i_m_source_file_index>
55

> <r_mmod_Potential_Energy-OPLS-2005>
72.4270401000977

> <r_mmod_Stretch_Energy-OPLS-2005>
70.5563812255859

> <r_mmod_Bend_Energy-OPLS-2005>
168.999313354492

> <r_mmod_Torsional_Energy-OPLS-2005>
289.90380859375

> <r_mmod_Improper_Torsional_Energy-OPLS-2005>
5.5009298324585

> <r_mmod_Van_der_Waal_Energy-OPLS-2005>
113.32576751709

> <r_mmod_Electrostatic_Energy-OPLS-2005>
-410.553314208984

> <r_mmod_Solvation_Energy-OPLS-2005>
-198.891662597656

> <b_mmod_Minimization_Converged-OPLS-2005>
0

> <r_mmod_RMS_Derivative-OPLS-2005>
6.4792046546936

$$$$
55
                    3D
 Structure written by MMmdl.
155163  0  0  1  0            999 V2000
  -30.5199  -14.9555   20.4385 C   0  0  0  0  0  0
  -30.4456  -12.5874   19.5047 C   0  0  0  0  0  0
  -29.5270  -12.5318   18.2597 C   0  0  0  0  0  0
  -28.0583  -12.3117   18.6708 C   0  0  0  0  0  0
  -27.6313  -13.2442   19.8323 C   0  0  2  0  0  0
  -28.6681  -13.2641   20.9722 C   0  0  0  0  0  0
  -25.2490  -13.8208   20.5695 C   0  0  0  0  0  0
  -24.1795  -13.0441   20.9208 C   0  0  0  0  0  0
  -24.6407  -11.6922   20.8752 C   0  0  0  0  0  0
  -23.9089  -10.4295   21.0409 C   0  0  0  0  0  0
  -24.3637   -9.4213   21.9186 C   0  0  0  0  0  0
  -23.6307   -8.2249   22.0760 C   0  0  0  0  0  0
  -22.4291   -8.0291   21.3547 C   0  0  0  0  0  0
  -21.9926   -9.0265   20.4650 C   0  0  0  0  0  0
  -22.7261  -10.2139   20.3057 C   0  0  0  0  0  0
  -21.6850   -6.0750   22.5283 C   0  0  0  0  0  0
  -21.4011   -6.5652   23.8217 C   0  0  0  0  0  0
  -21.3656   -5.6804   24.9176 C   0  0  0  0  0  0
  -21.6037   -4.3065   24.7222 C   0  0  0  0  0  0
  -21.8821   -3.8161   23.4344 C   0  0  0  0  0  0
  -21.9193   -4.6979   22.3402 C   0  0  0  0  0  0
  -22.7817  -13.5217   21.1875 C   0  0  0  0  0  0
  -22.1663   -4.2166   21.0978 F   0  0  0  0  0  0
  -21.5626   -3.4545   25.7731 F   0  0  0  0  0  0
  -29.9535  -13.6790   20.3952 N   0  0  0  0  0  0
  -26.2896  -12.9427   20.3193 N   0  0  0  0  0  0
  -25.9331  -11.6561   20.5702 N   0  0  0  0  0  0
  -22.0469  -12.8197   22.0428 N   0  0  0  0  0  0
  -25.4202  -15.1932   20.4159 N   0  0  0  0  0  0
  -31.7091  -15.0286   20.1061 O   0  0  0  0  0  0
  -21.6645   -6.8895   21.4245 O   0  0  0  0  0  0
  -22.3494  -14.5523   20.6727 O   0  0  0  0  0  0
  -24.6447  -31.8417   23.1857 C   0  0  0  0  0  0
  -25.9209  -32.4682   23.8252 C   0  0  1  0  0  0
  -27.2202  -27.1279   20.1584 C   0  0  0  0  0  0
  -25.5959  -33.8490   24.2171 N   0  0  0  0  0  0
  -23.4494  -30.4615   21.5314 C   0  0  2  0  0  0
  -24.8994  -28.8848   20.1112 C   0  0  0  0  0  0
  -22.7567  -29.4546   22.4841 C   0  0  0  0  0  0
  -18.0310  -28.1407   22.8496 C   0  0  0  0  0  0
  -24.1489  -36.7243   23.2644 C   0  0  0  0  0  0
  -26.0047  -30.7163   21.3835 C   0  0  0  0  0  0
  -26.0767  -29.3256   20.7284 C   0  0  0  0  0  0
  -27.2384  -28.4641   20.7327 C   0  0  0  0  0  0
  -26.0152  -26.7882   19.5057 C   0  0  0  0  0  0
  -24.8816  -27.6302   19.4842 C   0  0  0  0  0  0
  -23.6755  -29.7878   20.1514 C   0  0  0  0  0  0
  -25.4119  -36.3022   24.0313 C   0  0  1  0  0  0
  -20.5922  -28.3734   23.1233 C   0  0  2  0  0  0
  -20.6801  -26.9433   22.5413 C   0  0  0  0  0  0
  -19.5767  -26.6398   21.5229 C   0  0  0  0  0  0
  -18.1946  -26.7951   22.1637 C   0  0  0  0  0  0
  -19.1568  -28.8889   23.2857 C   0  0  0  0  0  0
  -18.9483  -30.1487   23.8878 C   0  0  0  0  0  0
  -17.6479  -30.6603   24.0571 C   0  0  0  0  0  0
  -25.9071  -34.9402   23.5050 C   0  0  0  0  0  0
  -16.5369  -29.9098   23.6341 C   0  0  0  0  0  0
  -16.7292  -28.6518   23.0364 C   0  0  0  0  0  0
  -26.4537  -31.6552   25.0694 C   0  0  0  0  0  0
  -25.3719  -31.3753   26.1387 C   0  0  0  0  0  0
  -27.0407  -30.2948   24.6270 C   0  0  0  0  0  0
  -27.6069  -32.4318   25.7476 C   0  0  0  0  0  0
  -27.5565  -37.1767   24.8460 C   0  0  0  0  0  0
  -21.4257  -29.3051   22.3590 N   0  0  0  0  0  0
  -26.4275  -37.3736   23.9418 N   0  0  0  0  0  0
  -24.7198  -31.0282   22.0885 N   0  0  0  0  0  0
  -23.4209  -28.8101   23.3003 O   0  0  0  0  0  0
  -28.2795  -26.1470   20.2257 O   0  0  0  0  0  0
  -26.5665  -34.8911   22.4633 O   0  0  0  0  0  0
  -23.5562  -32.1292   23.7071 O   0  0  0  0  0  0
  -28.0159  -19.6758   20.7242 C   0  0  0  0  0  0
  -29.8508  -20.7031   20.1924 C   0  0  0  0  0  0
  -29.3709  -19.3748   20.3618 C   0  0  0  0  0  0
  -27.7572  -21.0443   20.7567 C   0  0  0  0  0  0
  -26.4797  -21.7340   21.1110 C   0  0  0  0  0  0
  -29.6031  -16.5424   22.2993 C   0  0  0  0  0  0
  -30.1060  -17.8918   20.1342 C   0  0  0  0  0  0
  -29.1295  -23.3603   20.4097 C   0  0  0  0  0  0
  -28.0133  -24.6061   20.1520 C   0  0  0  0  0  0
  -29.7046  -16.3795   20.7720 C   0  0  1  0  0  0
  -28.8966  -21.7771   20.4112 N   0  0  0  0  0  0
  -31.4800  -12.7447   19.1959 H   0  0  0  0  0  0
  -30.4370  -11.6326   20.0330 H   0  0  0  0  0  0
  -29.8503  -11.7364   17.5869 H   0  0  0  0  0  0
  -29.6143  -13.4635   17.6982 H   0  0  0  0  0  0
  -27.9567  -11.2706   18.9798 H   0  0  0  0  0  0
  -27.3972  -12.4405   17.8126 H   0  0  0  0  0  0
  -27.5971  -14.2467   19.4045 H   0  0  0  0  0  0
  -28.7504  -12.2855   21.4468 H   0  0  0  0  0  0
  -28.3483  -13.9560   21.7503 H   0  0  0  0  0  0
  -25.2781   -9.5682   22.4766 H   0  0  0  0  0  0
  -24.0013   -7.4634   22.7477 H   0  0  0  0  0  0
  -21.0861   -8.8785   19.8952 H   0  0  0  0  0  0
  -22.3726  -10.9680   19.6170 H   0  0  0  0  0  0
  -21.2005   -7.6161   23.9724 H   0  0  0  0  0  0
  -21.1470   -6.0533   25.9079 H   0  0  0  0  0  0
  -22.0602   -2.7624   23.2834 H   0  0  0  0  0  0
  -22.4087  -11.9850   22.4794 H   0  0  0  0  0  0
  -21.1087  -13.1217   22.2647 H   0  0  0  0  0  0
  -24.6599  -15.8524   20.5402 H   0  0  0  0  0  0
  -26.2796  -15.6328   20.1118 H   0  0  0  0  0  0
  -26.7272  -32.5293   23.0978 H   0  0  0  0  0  0
  -25.0094  -33.9597   25.0312 H   0  0  0  0  0  0
  -22.7539  -31.2881   21.3744 H   0  0  0  0  0  0
  -23.3760  -35.9566   23.3287 H   0  0  0  0  0  0
  -24.3583  -36.8890   22.2061 H   0  0  0  0  0  0
  -23.7231  -37.6429   23.6696 H   0  0  0  0  0  0
  -26.1579  -31.4678   20.6081 H   0  0  0  0  0  0
  -26.8763  -30.7694   22.0243 H   0  0  0  0  0  0
  -28.1347  -28.7985   21.2355 H   0  0  0  0  0  0
  -25.9136  -25.8293   19.0210 H   0  0  0  0  0  0
  -23.9820  -27.2875   18.9928 H   0  0  0  0  0  0
  -23.8095  -30.5609   19.3934 H   0  0  0  0  0  0
  -22.7897  -29.2290   19.8435 H   0  0  0  0  0  0
  -25.1302  -36.1833   25.0800 H   0  0  0  0  0  0
  -21.0024  -28.3337   24.1346 H   0  0  0  0  0  0
  -20.5731  -26.2340   23.3638 H   0  0  0  0  0  0
  -21.6659  -26.7456   22.1181 H   0  0  0  0  0  0
  -19.6933  -25.6310   21.1261 H   0  0  0  0  0  0
  -19.6706  -27.3214   20.6764 H   0  0  0  0  0  0
  -17.4220  -26.6712   21.4033 H   0  0  0  0  0  0
  -18.0321  -26.0101   22.9029 H   0  0  0  0  0  0
  -19.7958  -30.7319   24.2232 H   0  0  0  0  0  0
  -17.5026  -31.6278   24.5185 H   0  0  0  0  0  0
  -15.5369  -30.2996   23.7682 H   0  0  0  0  0  0
  -15.8689  -28.0835   22.7078 H   0  0  0  0  0  0
  -24.5901  -30.7103   25.7703 H   0  0  0  0  0  0
  -24.8917  -32.2949   26.4736 H   0  0  0  0  0  0
  -25.7989  -30.8968   27.0208 H   0  0  0  0  0  0
  -26.3022  -29.6665   24.1285 H   0  0  0  0  0  0
  -27.4034  -29.7246   25.4830 H   0  0  0  0  0  0
  -27.8924  -30.4190   23.9581 H   0  0  0  0  0  0
  -27.2670  -33.3660   26.1963 H   0  0  0  0  0  0
  -28.3935  -32.6801   25.0335 H   0  0  0  0  0  0
  -28.0690  -31.8498   26.5463 H   0  0  0  0  0  0
  -28.2554  -38.0088   24.7528 H   0  0  0  0  0  0
  -28.1081  -36.2613   24.6255 H   0  0  0  0  0  0
  -27.2294  -37.1371   25.8865 H   0  0  0  0  0  0
  -20.9463  -29.8732   21.6742 H   0  0  0  0  0  0
  -26.0128  -38.2793   24.1454 H   0  0  0  0  0  0
  -27.2644  -18.9289   20.9461 H   0  0  0  0  0  0
  -30.8564  -20.9980   19.9176 H   0  0  0  0  0  0
  -25.6969  -21.0110   21.3438 H   0  0  0  0  0  0
  -26.1208  -22.3472   20.2839 H   0  0  0  0  0  0
  -26.6076  -22.3729   21.9854 H   0  0  0  0  0  0
  -28.7597  -17.1801   22.5658 H   0  0  0  0  0  0
  -30.5052  -17.0023   22.7030 H   0  0  0  0  0  0
  -29.4692  -15.5919   22.8153 H   0  0  0  0  0  0
  -31.1516  -18.0586   20.3948 H   0  0  0  0  0  0
  -30.1272  -17.7597   19.0527 H   0  0  0  0  0  0
  -29.5775  -23.5723   21.3798 H   0  0  0  0  0  0
  -29.9400  -23.5344   19.7023 H   0  0  0  0  0  0
  -27.1961  -24.4379   20.8516 H   0  0  0  0  0  0
  -27.5929  -24.4169   19.1649 H   0  0  0  0  0  0
  -28.6951  -16.1810   20.4136 H   0  0  0  0  0  0
  1 25  1  0  0  0
  1 30  2  0  0  0
  1 80  1  0  0  0
  2  3  1  0  0  0
  2 25  1  0  0  0
  2 82  1  0  0  0
  2 83  1  0  0  0
  3  4  1  0  0  0
  3 84  1  0  0  0
  3 85  1  0  0  0
  4  5  1  0  0  0
  4 86  1  0  0  0
  4 87  1  0  0  0
  5  6  1  0  0  0
  5 26  1  0  0  0
  5 88  1  0  0  0
  6 25  1  0  0  0
  6 89  1  0  0  0
  6 90  1  0  0  0
  7  8  2  0  0  0
  7 26  1  0  0  0
  7 29  1  0  0  0
  8  9  1  0  0  0
  8 22  1  0  0  0
  9 10  1  0  0  0
  9 27  2  0  0  0
 10 11  2  0  0  0
 10 15  1  0  0  0
 11 12  1  0  0  0
 11 91  1  0  0  0
 12 13  2  0  0  0
 12 92  1  0  0  0
 13 14  1  0  0  0
 13 31  1  0  0  0
 14 15  2  0  0  0
 14 93  1  0  0  0
 15 94  1  0  0  0
 16 17  2  0  0  0
 16 21  1  0  0  0
 16 31  1  0  0  0
 17 18  1  0  0  0
 17 95  1  0  0  0
 18 19  2  0  0  0
 18 96  1  0  0  0
 19 20  1  0  0  0
 19 24  1  0  0  0
 20 21  2  0  0  0
 20 97  1  0  0  0
 21 23  1  0  0  0
 22 28  1  0  0  0
 22 32  2  0  0  0
 26 27  1  0  0  0
 28 98  1  0  0  0
 28 99  1  0  0  0
 29100  1  0  0  0
 29101  1  0  0  0
 33 34  1  0  0  0
 33 66  1  0  0  0
 33 70  2  0  0  0
 34 36  1  0  0  0
 34 59  1  0  0  0
 34102  1  0  0  0
 35 44  2  0  0  0
 35 45  1  0  0  0
 35 68  1  0  0  0
 36 56  1  0  0  0
 36103  1  0  0  0
 37 39  1  0  0  0
 37 47  1  0  0  0
 37 66  1  0  0  0
 37104  1  0  0  0
 38 43  2  0  0  0
 38 46  1  0  0  0
 38 47  1  0  0  0
 39 64  1  0  0  0
 39 67  2  0  0  0
 40 52  1  0  0  0
 40 53  2  0  0  0
 40 58  1  0  0  0
 41105  1  0  0  0
 41106  1  0  0  0
 41107  1  0  0  0
 41 48  1  0  0  0
 42 43  1  0  0  0
 42 66  1  0  0  0
 42108  1  0  0  0
 42109  1  0  0  0
 43 44  1  0  0  0
 44110  1  0  0  0
 45 46  2  0  0  0
 45111  1  0  0  0
 46112  1  0  0  0
 47113  1  0  0  0
 47114  1  0  0  0
 48 56  1  0  0  0
 48 65  1  0  0  0
 48115  1  0  0  0
 49 50  1  0  0  0
 49 53  1  0  0  0
 49 64  1  0  0  0
 49116  1  0  0  0
 50 51  1  0  0  0
 50117  1  0  0  0
 50118  1  0  0  0
 51 52  1  0  0  0
 51119  1  0  0  0
 51120  1  0  0  0
 52121  1  0  0  0
 52122  1  0  0  0
 53 54  1  0  0  0
 54 55  2  0  0  0
 54123  1  0  0  0
 55 57  1  0  0  0
 55124  1  0  0  0
 56 69  2  0  0  0
 57 58  2  0  0  0
 57125  1  0  0  0
 58126  1  0  0  0
 59 60  1  0  0  0
 59 61  1  0  0  0
 59 62  1  0  0  0
 60127  1  0  0  0
 60128  1  0  0  0
 60129  1  0  0  0
 61130  1  0  0  0
 61131  1  0  0  0
 61132  1  0  0  0
 62133  1  0  0  0
 62134  1  0  0  0
 62135  1  0  0  0
 63 65  1  0  0  0
 63136  1  0  0  0
 63137  1  0  0  0
 63138  1  0  0  0
 64139  1  0  0  0
 65140  1  0  0  0
 68 79  1  0  0  0
 71 73  1  0  0  0
 71 74  2  0  0  0
 71141  1  0  0  0
 72 73  2  0  0  0
 72 81  1  0  0  0
 72142  1  0  0  0
 73 77  1  0  0  0
 74 75  1  0  0  0
 74 81  1  0  0  0
 75143  1  0  0  0
 75144  1  0  0  0
 75145  1  0  0  0
 76146  1  0  0  0
 76147  1  0  0  0
 76148  1  0  0  0
 76 80  1  0  0  0
 77 80  1  0  0  0
 77149  1  0  0  0
 77150  1  0  0  0
 78 79  1  0  0  0
 78 81  1  0  0  0
 78151  1  0  0  0
 78152  1  0  0  0
 79153  1  0  0  0
 79154  1  0  0  0
 80155  1  0  0  0
M  ISO  4   1 100  68 101  79 101  80 100
M  END
> <chiral flag>
0

> <version>
0

> <s_m_source_file>
/data/baiqing/PycharmProjects/Reinvent-master-3.2/result/LINK_invent/BTK/process_docking_weight1_custom_sum_contain_oxygen_bond_distance_aromatic_linkinvent_7_9_3/rearranged_h_0093.sdf

> <i_m_source_file_index>
56

> <r_mmod_Potential_Energy-OPLS-2005>
516.080139160156

> <r_mmod_Stretch_Energy-OPLS-2005>
271.363647460938

> <r_mmod_Bend_Energy-OPLS-2005>
261.016418457031

> <r_mmod_Torsional_Energy-OPLS-2005>
196.242980957031

> <r_mmod_Improper_Torsional_Energy-OPLS-2005>
3.14202904701233

> <r_mmod_Van_der_Waal_Energy-OPLS-2005>
104.557495117188

> <r_mmod_Electrostatic_Energy-OPLS-2005>
-317.770751953125

> <r_mmod_Solvation_Energy-OPLS-2005>
-197.732757568359

> <b_mmod_Minimization_Converged-OPLS-2005>
0

> <r_mmod_RMS_Derivative-OPLS-2005>
1.52236700057983

$$$$
56
                    3D
 Structure written by MMmdl.
172180  0  0  1  0            999 V2000
  -30.6141  -14.7305   20.4809 C   0  0  0  0  0  0
  -30.4291  -12.4517   19.4567 C   0  0  0  0  0  0
  -29.4985  -12.5101   18.2260 C   0  0  0  0  0  0
  -28.0250  -12.3396   18.6436 C   0  0  0  0  0  0
  -27.6394  -13.2325   19.8520 C   0  0  2  0  0  0
  -28.6883  -13.1505   20.9813 C   0  0  0  0  0  0
  -25.2495  -13.8203   20.5763 C   0  0  0  0  0  0
  -24.1793  -13.0429   20.9246 C   0  0  0  0  0  0
  -24.6391  -11.6920   20.8774 C   0  0  0  0  0  0
  -23.9085  -10.4293   21.0418 C   0  0  0  0  0  0
  -24.3629   -9.4200   21.9191 C   0  0  0  0  0  0
  -23.6302   -8.2243   22.0758 C   0  0  0  0  0  0
  -22.4289   -8.0286   21.3538 C   0  0  0  0  0  0
  -21.9932   -9.0267   20.4648 C   0  0  0  0  0  0
  -22.7270  -10.2138   20.3063 C   0  0  0  0  0  0
  -21.6846   -6.0747   22.5299 C   0  0  0  0  0  0
  -21.4016   -6.5657   23.8227 C   0  0  0  0  0  0
  -21.3656   -5.6800   24.9187 C   0  0  0  0  0  0
  -21.6043   -4.3072   24.7242 C   0  0  0  0  0  0
  -21.8812   -3.8165   23.4361 C   0  0  0  0  0  0
  -21.9196   -4.6971   22.3416 C   0  0  0  0  0  0
  -22.7816  -13.5195   21.1912 C   0  0  0  0  0  0
  -22.1666   -4.2163   21.0986 F   0  0  0  0  0  0
  -21.5613   -3.4552   25.7752 F   0  0  0  0  0  0
  -29.9860  -13.5088   20.3950 N   0  0  0  0  0  0
  -26.2924  -12.9418   20.3330 N   0  0  0  0  0  0
  -25.9320  -11.6560   20.5782 N   0  0  0  0  0  0
  -22.0475  -12.8158   22.0446 N   0  0  0  0  0  0
  -25.4147  -15.1927   20.4216 N   0  0  0  0  0  0
  -31.8058  -14.8337   20.1807 O   0  0  0  0  0  0
  -21.6643   -6.8884   21.4254 O   0  0  0  0  0  0
  -22.3510  -14.5515   20.6772 O   0  0  0  0  0  0
  -24.6343  -31.8526   23.2003 C   0  0  0  0  0  0
  -25.9167  -32.4730   23.8350 C   0  0  1  0  0  0
  -27.2291  -27.2578   20.1202 C   0  0  0  0  0  0
  -25.5940  -33.8535   24.2268 N   0  0  0  0  0  0
  -23.4318  -30.4773   21.5451 C   0  0  2  0  0  0
  -24.8796  -28.9232   20.1072 C   0  0  0  0  0  0
  -22.7525  -29.4605   22.4917 C   0  0  0  0  0  0
  -18.0313  -28.1347   22.8475 C   0  0  0  0  0  0
  -24.1466  -36.7290   23.2637 C   0  0  0  0  0  0
  -25.9819  -30.7551   21.3879 C   0  0  0  0  0  0
  -26.0493  -29.3821   20.7238 C   0  0  0  0  0  0
  -27.2262  -28.5632   20.7214 C   0  0  0  0  0  0
  -26.0337  -26.8710   19.4707 C   0  0  0  0  0  0
  -24.8749  -27.6748   19.4699 C   0  0  0  0  0  0
  -23.6502  -29.8114   20.1604 C   0  0  0  0  0  0
  -25.4096  -36.3063   24.0311 C   0  0  1  0  0  0
  -20.5925  -28.3696   23.1237 C   0  0  2  0  0  0
  -20.6798  -26.9397   22.5412 C   0  0  0  0  0  0
  -19.5766  -26.6347   21.5225 C   0  0  0  0  0  0
  -18.1943  -26.7898   22.1617 C   0  0  0  0  0  0
  -19.1567  -28.8833   23.2837 C   0  0  0  0  0  0
  -18.9476  -30.1451   23.8832 C   0  0  0  0  0  0
  -17.6468  -30.6556   24.0558 C   0  0  0  0  0  0
  -25.9043  -34.9425   23.5094 C   0  0  0  0  0  0
  -16.5362  -29.9053   23.6309 C   0  0  0  0  0  0
  -16.7293  -28.6481   23.0310 C   0  0  0  0  0  0
  -26.4511  -31.6558   25.0750 C   0  0  0  0  0  0
  -25.3693  -31.3708   26.1446 C   0  0  0  0  0  0
  -27.0402  -30.2941   24.6300 C   0  0  0  0  0  0
  -27.6040  -32.4355   25.7482 C   0  0  0  0  0  0
  -27.5576  -37.1789   24.8444 C   0  0  0  0  0  0
  -21.4240  -29.3034   22.3614 N   0  0  0  0  0  0
  -26.4284  -37.3760   23.9387 N   0  0  0  0  0  0
  -24.7008  -31.0485   22.0986 N   0  0  0  0  0  0
  -23.4213  -28.8123   23.3011 O   0  0  0  0  0  0
  -28.3282  -26.3652   20.1886 O   0  0  0  0  0  0
  -26.5629  -34.8884   22.4678 O   0  0  0  0  0  0
  -23.5486  -32.1404   23.7262 O   0  0  0  0  0  0
  -27.5331  -21.6334   21.8607 C   0  0  0  0  0  0
  -28.5325  -21.1186   21.0109 C   0  0  0  0  0  0
  -28.7513  -19.6645   21.1365 C   0  0  0  0  0  0
  -27.1141  -19.6028   22.7739 C   0  0  0  0  0  0
  -29.2484  -21.6782   26.4749 C   0  0  0  0  0  0
  -26.9609  -21.3873   27.5068 C   0  0  0  0  0  0
  -29.1575  -22.1988   20.0406 C   0  0  0  0  0  0
  -29.5774  -18.6169   20.2794 C   0  0  0  0  0  0
  -26.3489  -18.7541   23.7780 C   0  0  0  0  0  0
  -29.2081  -23.7905   20.4391 C   0  0  0  0  0  0
  -26.4117  -19.2575   25.2389 C   0  0  0  0  0  0
  -27.7930  -19.7295   25.7559 C   0  0  0  0  0  0
  -30.2591  -17.3111   20.9997 C   0  0  0  0  0  0
  -28.1113  -24.8910   19.9687 C   0  0  0  0  0  0
  -27.8091  -21.1960   26.2373 C   0  0  0  0  0  0
  -26.8135  -20.8864   22.7053 N   0  0  0  0  0  0
  -28.0201  -18.9835   22.0377 N   0  0  0  0  0  0
  -29.8414  -15.8576   20.7223 N   0  0  0  0  0  0
  -31.4673  -12.5844   19.1486 H   0  0  0  0  0  0
  -30.3820  -11.4707   19.9338 H   0  0  0  0  0  0
  -29.7713  -11.7394   17.5045 H   0  0  0  0  0  0
  -29.6251  -13.4669   17.7170 H   0  0  0  0  0  0
  -27.8712  -11.2891   18.8981 H   0  0  0  0  0  0
  -27.3660  -12.5477   17.7996 H   0  0  0  0  0  0
  -27.6360  -14.2579   19.4793 H   0  0  0  0  0  0
  -28.7235  -12.1471   21.4091 H   0  0  0  0  0  0
  -28.4320  -13.8222   21.8020 H   0  0  0  0  0  0
  -25.2758   -9.5690   22.4776 H   0  0  0  0  0  0
  -24.0021   -7.4632   22.7470 H   0  0  0  0  0  0
  -21.0869   -8.8787   19.8948 H   0  0  0  0  0  0
  -22.3722  -10.9685   19.6186 H   0  0  0  0  0  0
  -21.2007   -7.6166   23.9741 H   0  0  0  0  0  0
  -21.1481   -6.0531   25.9083 H   0  0  0  0  0  0
  -22.0588   -2.7635   23.2863 H   0  0  0  0  0  0
  -22.4100  -11.9780   22.4769 H   0  0  0  0  0  0
  -21.1094  -13.1166   22.2695 H   0  0  0  0  0  0
  -24.6401  -15.8378   20.5340 H   0  0  0  0  0  0
  -26.2559  -15.6444   20.0900 H   0  0  0  0  0  0
  -26.7235  -32.5323   23.1079 H   0  0  0  0  0  0
  -25.0058  -33.9650   25.0398 H   0  0  0  0  0  0
  -22.7294  -31.3008   21.3982 H   0  0  0  0  0  0
  -23.3720  -35.9625   23.3301 H   0  0  0  0  0  0
  -24.3553  -36.8965   22.2059 H   0  0  0  0  0  0
  -23.7266  -37.6502   23.6684 H   0  0  0  0  0  0
  -26.1361  -31.5095   20.6157 H   0  0  0  0  0  0
  -26.8561  -30.7962   22.0282 H   0  0  0  0  0  0
  -28.1198  -28.9071   21.2194 H   0  0  0  0  0  0
  -25.9578  -25.9194   18.9641 H   0  0  0  0  0  0
  -23.9814  -27.3195   18.9753 H   0  0  0  0  0  0
  -23.7702  -30.5898   19.4061 H   0  0  0  0  0  0
  -22.7631  -29.2505   19.8603 H   0  0  0  0  0  0
  -25.1282  -36.1921   25.0812 H   0  0  0  0  0  0
  -21.0014  -28.3292   24.1354 H   0  0  0  0  0  0
  -20.5735  -26.2298   23.3631 H   0  0  0  0  0  0
  -21.6660  -26.7420   22.1168 H   0  0  0  0  0  0
  -19.6942  -25.6258   21.1242 H   0  0  0  0  0  0
  -19.6703  -27.3148   20.6737 H   0  0  0  0  0  0
  -17.4239  -26.6658   21.3986 H   0  0  0  0  0  0
  -18.0313  -26.0019   22.8976 H   0  0  0  0  0  0
  -19.7952  -30.7293   24.2157 H   0  0  0  0  0  0
  -17.5024  -31.6220   24.5189 H   0  0  0  0  0  0
  -15.5364  -30.2935   23.7682 H   0  0  0  0  0  0
  -15.8688  -28.0822   22.7000 H   0  0  0  0  0  0
  -24.5836  -30.7106   25.7778 H   0  0  0  0  0  0
  -24.8874  -32.2869   26.4863 H   0  0  0  0  0  0
  -25.7948  -30.8880   27.0247 H   0  0  0  0  0  0
  -26.3035  -29.6623   24.1321 H   0  0  0  0  0  0
  -27.4072  -29.7268   25.4873 H   0  0  0  0  0  0
  -27.8888  -30.4221   23.9589 H   0  0  0  0  0  0
  -27.2650  -33.3702   26.1957 H   0  0  0  0  0  0
  -28.3847  -32.6879   25.0305 H   0  0  0  0  0  0
  -28.0697  -31.8577   26.5495 H   0  0  0  0  0  0
  -28.2553  -38.0117   24.7543 H   0  0  0  0  0  0
  -28.1139  -36.2662   24.6227 H   0  0  0  0  0  0
  -27.2293  -37.1408   25.8846 H   0  0  0  0  0  0
  -20.9461  -29.8775   21.6813 H   0  0  0  0  0  0
  -26.0159  -38.2826   24.1416 H   0  0  0  0  0  0
  -27.2631  -22.6784   21.8420 H   0  0  0  0  0  0
  -29.2668  -22.6937   26.8687 H   0  0  0  0  0  0
  -29.8233  -21.6789   25.5484 H   0  0  0  0  0  0
  -29.7701  -21.0373   27.1874 H   0  0  0  0  0  0
  -26.9728  -22.4235   27.8460 H   0  0  0  0  0  0
  -27.3294  -20.7662   28.3248 H   0  0  0  0  0  0
  -25.9170  -21.1203   27.3409 H   0  0  0  0  0  0
  -28.6619  -22.0954   19.0736 H   0  0  0  0  0  0
  -30.1876  -21.8761   19.8703 H   0  0  0  0  0  0
  -30.3759  -19.1837   19.7999 H   0  0  0  0  0  0
  -28.9382  -18.2771   19.4654 H   0  0  0  0  0  0
  -26.7395  -17.7370   23.7433 H   0  0  0  0  0  0
  -25.3087  -18.6810   23.4564 H   0  0  0  0  0  0
  -30.1302  -24.1539   19.9842 H   0  0  0  0  0  0
  -29.3993  -23.8936   21.5086 H   0  0  0  0  0  0
  -26.0263  -18.4759   25.8944 H   0  0  0  0  0  0
  -25.6957  -20.0755   25.3148 H   0  0  0  0  0  0
  -28.5551  -19.5977   24.9859 H   0  0  0  0  0  0
  -28.1115  -19.0845   26.5749 H   0  0  0  0  0  0
  -30.2061  -17.4492   22.0800 H   0  0  0  0  0  0
  -31.3274  -17.3668   20.7878 H   0  0  0  0  0  0
  -27.1757  -24.6171   20.4562 H   0  0  0  0  0  0
  -27.9487  -24.7527   18.8983 H   0  0  0  0  0  0
  -27.3893  -21.8250   25.4483 H   0  0  0  0  0  0
  -28.8626  -15.6640   20.8736 H   0  0  0  0  0  0
  1 25  1  0  0  0
  1 30  2  0  0  0
  1 88  1  0  0  0
  2  3  1  0  0  0
  2 25  1  0  0  0
  2 89  1  0  0  0
  2 90  1  0  0  0
  3  4  1  0  0  0
  3 91  1  0  0  0
  3 92  1  0  0  0
  4  5  1  0  0  0
  4 93  1  0  0  0
  4 94  1  0  0  0
  5  6  1  0  0  0
  5 26  1  0  0  0
  5 95  1  0  0  0
  6 25  1  0  0  0
  6 96  1  0  0  0
  6 97  1  0  0  0
  7  8  2  0  0  0
  7 26  1  0  0  0
  7 29  1  0  0  0
  8  9  1  0  0  0
  8 22  1  0  0  0
  9 10  1  0  0  0
  9 27  2  0  0  0
 10 11  2  0  0  0
 10 15  1  0  0  0
 11 12  1  0  0  0
 11 98  1  0  0  0
 12 13  2  0  0  0
 12 99  1  0  0  0
 13 14  1  0  0  0
 13 31  1  0  0  0
 14 15  2  0  0  0
 14100  1  0  0  0
 15101  1  0  0  0
 16 17  2  0  0  0
 16 21  1  0  0  0
 16 31  1  0  0  0
 17 18  1  0  0  0
 17102  1  0  0  0
 18 19  2  0  0  0
 18103  1  0  0  0
 19 20  1  0  0  0
 19 24  1  0  0  0
 20 21  2  0  0  0
 20104  1  0  0  0
 21 23  1  0  0  0
 22 28  1  0  0  0
 22 32  2  0  0  0
 26 27  1  0  0  0
 28105  1  0  0  0
 28106  1  0  0  0
 29107  1  0  0  0
 29108  1  0  0  0
 33 34  1  0  0  0
 33 66  1  0  0  0
 33 70  2  0  0  0
 34 36  1  0  0  0
 34 59  1  0  0  0
 34109  1  0  0  0
 35 44  2  0  0  0
 35 45  1  0  0  0
 35 68  1  0  0  0
 36 56  1  0  0  0
 36110  1  0  0  0
 37 39  1  0  0  0
 37 47  1  0  0  0
 37 66  1  0  0  0
 37111  1  0  0  0
 38 43  2  0  0  0
 38 46  1  0  0  0
 38 47  1  0  0  0
 39 64  1  0  0  0
 39 67  2  0  0  0
 40 52  1  0  0  0
 40 53  2  0  0  0
 40 58  1  0  0  0
 41112  1  0  0  0
 41113  1  0  0  0
 41114  1  0  0  0
 41 48  1  0  0  0
 42 43  1  0  0  0
 42 66  1  0  0  0
 42115  1  0  0  0
 42116  1  0  0  0
 43 44  1  0  0  0
 44117  1  0  0  0
 45 46  2  0  0  0
 45118  1  0  0  0
 46119  1  0  0  0
 47120  1  0  0  0
 47121  1  0  0  0
 48 56  1  0  0  0
 48 65  1  0  0  0
 48122  1  0  0  0
 49 50  1  0  0  0
 49 53  1  0  0  0
 49 64  1  0  0  0
 49123  1  0  0  0
 50 51  1  0  0  0
 50124  1  0  0  0
 50125  1  0  0  0
 51 52  1  0  0  0
 51126  1  0  0  0
 51127  1  0  0  0
 52128  1  0  0  0
 52129  1  0  0  0
 53 54  1  0  0  0
 54 55  2  0  0  0
 54130  1  0  0  0
 55 57  1  0  0  0
 55131  1  0  0  0
 56 69  2  0  0  0
 57 58  2  0  0  0
 57132  1  0  0  0
 58133  1  0  0  0
 59 60  1  0  0  0
 59 61  1  0  0  0
 59 62  1  0  0  0
 60134  1  0  0  0
 60135  1  0  0  0
 60136  1  0  0  0
 61137  1  0  0  0
 61138  1  0  0  0
 61139  1  0  0  0
 62140  1  0  0  0
 62141  1  0  0  0
 62142  1  0  0  0
 63 65  1  0  0  0
 63143  1  0  0  0
 63144  1  0  0  0
 63145  1  0  0  0
 64146  1  0  0  0
 65147  1  0  0  0
 68 84  1  0  0  0
 71 72  2  0  0  0
 71 86  1  0  0  0
 71148  1  0  0  0
 72 73  1  0  0  0
 72 77  1  0  0  0
 73 78  1  0  0  0
 73 87  2  0  0  0
 74 79  1  0  0  0
 74 86  2  0  0  0
 74 87  1  0  0  0
 75149  1  0  0  0
 75150  1  0  0  0
 75151  1  0  0  0
 75 85  1  0  0  0
 76 85  1  0  0  0
 76152  1  0  0  0
 76153  1  0  0  0
 76154  1  0  0  0
 77 80  1  0  0  0
 77155  1  0  0  0
 77156  1  0  0  0
 78 83  1  0  0  0
 78157  1  0  0  0
 78158  1  0  0  0
 79 81  1  0  0  0
 79159  1  0  0  0
 79160  1  0  0  0
 80 84  1  0  0  0
 80161  1  0  0  0
 80162  1  0  0  0
 81 82  1  0  0  0
 81163  1  0  0  0
 81164  1  0  0  0
 82 85  1  0  0  0
 82165  1  0  0  0
 82166  1  0  0  0
 83 88  1  0  0  0
 83167  1  0  0  0
 83168  1  0  0  0
 84169  1  0  0  0
 84170  1  0  0  0
 85171  1  0  0  0
 88172  1  0  0  0
M  ISO  4   1 100  68 101  84 101  88 100
M  END
> <chiral flag>
0

> <version>
0

> <s_m_source_file>
/data/baiqing/PycharmProjects/Reinvent-master-3.2/result/LINK_invent/BTK/process_docking_weight1_custom_sum_contain_oxygen_bond_distance_aromatic_linkinvent_7_9_3/rearranged_h_0093.sdf

> <i_m_source_file_index>
57

> <r_mmod_Potential_Energy-OPLS-2005>
-92.7004165649414

> <r_mmod_Stretch_Energy-OPLS-2005>
137.819229125977

> <r_mmod_Bend_Energy-OPLS-2005>
215.482055664062

> <r_mmod_Torsional_Energy-OPLS-2005>
240.604766845703

> <r_mmod_Improper_Torsional_Energy-OPLS-2005>
4.87949275970459

> <r_mmod_Van_der_Waal_Energy-OPLS-2005>
143.960235595703

> <r_mmod_Electrostatic_Energy-OPLS-2005>
-698.184020996094

> <r_mmod_Solvation_Energy-OPLS-2005>
-221.006851196289

> <b_mmod_Minimization_Converged-OPLS-2005>
0

> <r_mmod_RMS_Derivative-OPLS-2005>
4.31805896759033

$$$$
57
                    3D
 Structure written by MMmdl.
169177  0  0  1  0            999 V2000
  -30.7351  -14.3687   20.6508 C   0  0  0  0  0  0
  -30.4229  -12.2768   19.3840 C   0  0  0  0  0  0
  -29.4866  -12.5252   18.1870 C   0  0  0  0  0  0
  -28.0067  -12.3935   18.5978 C   0  0  0  0  0  0
  -27.6720  -13.1943   19.8850 C   0  0  2  0  0  0
  -28.7119  -12.9046   20.9883 C   0  0  0  0  0  0
  -25.2663  -13.8164   20.5669 C   0  0  0  0  0  0
  -24.1882  -13.0463   20.9139 C   0  0  0  0  0  0
  -24.6407  -11.6922   20.8704 C   0  0  0  0  0  0
  -23.9056  -10.4313   21.0369 C   0  0  0  0  0  0
  -24.3626   -9.4252   21.9158 C   0  0  0  0  0  0
  -23.6327   -8.2273   22.0737 C   0  0  0  0  0  0
  -22.4304   -8.0290   21.3536 C   0  0  0  0  0  0
  -21.9920   -9.0253   20.4640 C   0  0  0  0  0  0
  -22.7219  -10.2147   20.3035 C   0  0  0  0  0  0
  -21.6871   -6.0749   22.5271 C   0  0  0  0  0  0
  -21.4016   -6.5645   23.8204 C   0  0  0  0  0  0
  -21.3658   -5.6803   24.9157 C   0  0  0  0  0  0
  -21.6050   -4.3064   24.7200 C   0  0  0  0  0  0
  -21.8842   -3.8154   23.4317 C   0  0  0  0  0  0
  -21.9204   -4.6971   22.3379 C   0  0  0  0  0  0
  -22.7906  -13.5251   21.1809 C   0  0  0  0  0  0
  -22.1674   -4.2156   21.0951 F   0  0  0  0  0  0
  -21.5615   -3.4541   25.7698 F   0  0  0  0  0  0
  -30.0508  -13.2135   20.4511 N   0  0  0  0  0  0
  -26.3083  -12.9289   20.3404 N   0  0  0  0  0  0
  -25.9333  -11.6454   20.5781 N   0  0  0  0  0  0
  -22.0544  -12.8249   22.0366 N   0  0  0  0  0  0
  -25.4455  -15.1876   20.4034 N   0  0  0  0  0  0
  -31.7855  -14.6540   20.0665 O   0  0  0  0  0  0
  -21.6676   -6.8881   21.4236 O   0  0  0  0  0  0
  -22.3578  -14.5558   20.6664 O   0  0  0  0  0  0
  -24.6121  -31.8695   23.2111 C   0  0  0  0  0  0
  -25.9036  -32.4824   23.8391 C   0  0  1  0  0  0
  -27.2347  -27.4583   20.1019 C   0  0  0  0  0  0
  -25.5905  -33.8626   24.2329 N   0  0  0  0  0  0
  -23.3979  -30.4942   21.5496 C   0  0  2  0  0  0
  -24.8447  -28.9583   20.1211 C   0  0  0  0  0  0
  -22.7385  -29.4679   22.4986 C   0  0  0  0  0  0
  -18.0262  -28.1371   22.8484 C   0  0  0  0  0  0
  -24.1489  -36.7327   23.2637 C   0  0  0  0  0  0
  -25.9234  -30.8446   21.3588 C   0  0  0  0  0  0
  -26.0031  -29.4794   20.7112 C   0  0  0  0  0  0
  -27.2037  -28.7384   20.6946 C   0  0  0  0  0  0
  -26.0590  -26.9408   19.5171 C   0  0  0  0  0  0
  -24.8656  -27.6861   19.5229 C   0  0  0  0  0  0
  -23.6063  -29.8233   20.1658 C   0  0  0  0  0  0
  -25.4106  -36.3117   24.0339 C   0  0  1  0  0  0
  -20.5851  -28.3664   23.1318 C   0  0  2  0  0  0
  -20.6758  -26.9406   22.5414 C   0  0  0  0  0  0
  -19.5737  -26.6379   21.5208 C   0  0  0  0  0  0
  -18.1915  -26.7917   22.1616 C   0  0  0  0  0  0
  -19.1511  -28.8829   23.2900 C   0  0  0  0  0  0
  -18.9448  -30.1430   23.8911 C   0  0  0  0  0  0
  -17.6458  -30.6582   24.0564 C   0  0  0  0  0  0
  -25.9029  -34.9476   23.5126 C   0  0  0  0  0  0
  -16.5342  -29.9095   23.6320 C   0  0  0  0  0  0
  -16.7249  -28.6508   23.0338 C   0  0  0  0  0  0
  -26.4473  -31.6589   25.0706 C   0  0  0  0  0  0
  -25.3762  -31.3713   26.1479 C   0  0  0  0  0  0
  -27.0291  -30.3025   24.6064 C   0  0  0  0  0  0
  -27.6037  -32.4315   25.7484 C   0  0  0  0  0  0
  -27.5584  -37.1819   24.8459 C   0  0  0  0  0  0
  -21.4114  -29.3044   22.3733 N   0  0  0  0  0  0
  -26.4296  -37.3798   23.9404 N   0  0  0  0  0  0
  -24.6625  -31.0834   22.0990 N   0  0  0  0  0  0
  -23.4168  -28.8218   23.3023 O   0  0  0  0  0  0
  -28.4229  -26.7703   20.0459 O   0  0  0  0  0  0
  -26.5582  -34.8934   22.4683 O   0  0  0  0  0  0
  -23.5326  -32.1430   23.7530 O   0  0  0  0  0  0
  -28.7754  -20.8776   20.0738 C   0  0  0  0  0  0
  -29.7809  -19.9508   19.9973 C   0  0  0  0  0  0
  -30.2910  -20.0735   18.6766 C   0  0  0  0  0  0
  -29.6244  -21.0426   17.9864 C   0  0  0  0  0  0
  -29.7988  -21.5316   16.5811 C   0  0  0  0  0  0
  -30.5407  -25.2279   19.0704 C   0  0  0  0  0  0
  -29.0241  -25.4745   21.9607 C   0  0  0  0  0  0
  -30.2607  -19.0227   21.0835 C   0  0  0  0  0  0
  -29.7992  -17.5724   20.8783 C   0  0  0  0  0  0
  -28.4101  -24.0181   18.3914 C   0  0  0  0  0  0
  -27.7362  -22.6450   18.6041 C   0  0  0  0  0  0
  -30.5607  -16.5855   21.7820 C   0  0  0  0  0  0
  -29.2623  -24.5319   19.5788 C   0  0  2  0  0  0
  -28.4401  -25.4296   20.5412 C   0  0  2  0  0  0
  -28.6856  -21.5652   18.8698 N   0  0  0  0  0  0
  -30.1566  -15.2111   21.5124 N   0  0  0  0  0  0
  -31.5858  -19.1299   18.0320 Cl  0  0  0  0  0  0
  -31.4644  -12.3908   19.0754 H   0  0  0  0  0  0
  -30.3230  -11.2483   19.7345 H   0  0  0  0  0  0
  -29.7170  -11.8300   17.3770 H   0  0  0  0  0  0
  -29.6642  -13.5260   17.7930 H   0  0  0  0  0  0
  -27.7912  -11.3352   18.7476 H   0  0  0  0  0  0
  -27.3649  -12.7185   17.7767 H   0  0  0  0  0  0
  -27.7440  -14.2538   19.6392 H   0  0  0  0  0  0
  -28.6787  -11.8513   21.2683 H   0  0  0  0  0  0
  -28.4666  -13.4441   21.9012 H   0  0  0  0  0  0
  -25.2774   -9.5764   22.4727 H   0  0  0  0  0  0
  -24.0055   -7.4689   22.7480 H   0  0  0  0  0  0
  -21.0840   -8.8759   19.8977 H   0  0  0  0  0  0
  -22.3652  -10.9679   19.6150 H   0  0  0  0  0  0
  -21.2015   -7.6157   23.9699 H   0  0  0  0  0  0
  -21.1451   -6.0519   25.9063 H   0  0  0  0  0  0
  -22.0624   -2.7615   23.2803 H   0  0  0  0  0  0
  -22.4156  -11.9889   22.4726 H   0  0  0  0  0  0
  -21.1176  -13.1288   22.2609 H   0  0  0  0  0  0
  -24.6887  -15.8551   20.4965 H   0  0  0  0  0  0
  -26.3102  -15.6115   20.0866 H   0  0  0  0  0  0
  -26.7108  -32.5553   23.1160 H   0  0  0  0  0  0
  -25.0097  -33.9782   25.0504 H   0  0  0  0  0  0
  -22.6860  -31.3099   21.4091 H   0  0  0  0  0  0
  -23.3742  -35.9673   23.3306 H   0  0  0  0  0  0
  -24.3588  -36.8931   22.2052 H   0  0  0  0  0  0
  -23.7256  -37.6543   23.6639 H   0  0  0  0  0  0
  -26.0308  -31.6093   20.5883 H   0  0  0  0  0  0
  -26.8139  -30.9003   21.9736 H   0  0  0  0  0  0
  -28.1041  -29.1410   21.1378 H   0  0  0  0  0  0
  -26.0602  -25.9711   19.0440 H   0  0  0  0  0  0
  -23.9754  -27.2777   19.0656 H   0  0  0  0  0  0
  -23.7170  -30.5948   19.4031 H   0  0  0  0  0  0
  -22.7308  -29.2419   19.8698 H   0  0  0  0  0  0
  -25.1288  -36.1981   25.0832 H   0  0  0  0  0  0
  -20.9943  -28.3235   24.1441 H   0  0  0  0  0  0
  -20.5657  -26.2279   23.3605 H   0  0  0  0  0  0
  -21.6629  -26.7453   22.1214 H   0  0  0  0  0  0
  -19.6909  -25.6291   21.1239 H   0  0  0  0  0  0
  -19.6682  -27.3190   20.6742 H   0  0  0  0  0  0
  -17.4191  -26.6657   21.4016 H   0  0  0  0  0  0
  -18.0317  -26.0051   22.9005 H   0  0  0  0  0  0
  -19.7932  -30.7228   24.2297 H   0  0  0  0  0  0
  -17.5023  -31.6268   24.5162 H   0  0  0  0  0  0
  -15.5350  -30.3011   23.7629 H   0  0  0  0  0  0
  -15.8643  -28.0840   22.7043 H   0  0  0  0  0  0
  -24.5891  -30.7101   25.7837 H   0  0  0  0  0  0
  -24.9022  -32.2891   26.4965 H   0  0  0  0  0  0
  -25.8142  -30.8853   27.0204 H   0  0  0  0  0  0
  -26.2821  -29.6796   24.1128 H   0  0  0  0  0  0
  -27.4070  -29.7248   25.4506 H   0  0  0  0  0  0
  -27.8651  -30.4328   23.9190 H   0  0  0  0  0  0
  -27.2615  -33.3580   26.2105 H   0  0  0  0  0  0
  -28.3837  -32.6932   25.0324 H   0  0  0  0  0  0
  -28.0710  -31.8418   26.5378 H   0  0  0  0  0  0
  -28.2603  -38.0114   24.7502 H   0  0  0  0  0  0
  -28.1075  -36.2646   24.6284 H   0  0  0  0  0  0
  -27.2302  -37.1474   25.8862 H   0  0  0  0  0  0
  -20.9259  -29.8802   21.6997 H   0  0  0  0  0  0
  -26.0186  -38.2882   24.1392 H   0  0  0  0  0  0
  -28.1210  -21.1246   20.8985 H   0  0  0  0  0  0
  -30.2821  -20.7782   15.9597 H   0  0  0  0  0  0
  -30.4233  -22.4256   16.5583 H   0  0  0  0  0  0
  -28.8425  -21.7634   16.1138 H   0  0  0  0  0  0
  -31.1700  -24.5281   18.5185 H   0  0  0  0  0  0
  -31.1424  -25.6239   19.8872 H   0  0  0  0  0  0
  -30.3049  -26.0558   18.3991 H   0  0  0  0  0  0
  -29.0095  -24.4866   22.4218 H   0  0  0  0  0  0
  -28.4419  -26.1411   22.5977 H   0  0  0  0  0  0
  -30.0546  -25.8293   21.9663 H   0  0  0  0  0  0
  -29.9230  -19.3920   22.0540 H   0  0  0  0  0  0
  -31.3495  -19.0667   21.0972 H   0  0  0  0  0  0
  -29.9553  -17.2912   19.8352 H   0  0  0  0  0  0
  -28.7258  -17.5046   21.0595 H   0  0  0  0  0  0
  -27.6463  -24.7514   18.1378 H   0  0  0  0  0  0
  -29.0269  -23.9628   17.4974 H   0  0  0  0  0  0
  -27.1467  -22.3757   17.7285 H   0  0  0  0  0  0
  -27.0298  -22.7040   19.4315 H   0  0  0  0  0  0
  -30.3616  -16.8099   22.8317 H   0  0  0  0  0  0
  -31.6379  -16.6965   21.6383 H   0  0  0  0  0  0
  -29.5984  -23.6672   20.1510 H   0  0  0  0  0  0
  -27.4378  -25.0106   20.6327 H   0  0  0  0  0  0
  -29.3179  -14.8711   21.9608 H   0  0  0  0  0  0
  1 25  1  0  0  0
  1 30  2  0  0  0
  1 86  1  0  0  0
  2  3  1  0  0  0
  2 25  1  0  0  0
  2 88  1  0  0  0
  2 89  1  0  0  0
  3  4  1  0  0  0
  3 90  1  0  0  0
  3 91  1  0  0  0
  4  5  1  0  0  0
  4 92  1  0  0  0
  4 93  1  0  0  0
  5  6  1  0  0  0
  5 26  1  0  0  0
  5 94  1  0  0  0
  6 25  1  0  0  0
  6 95  1  0  0  0
  6 96  1  0  0  0
  7  8  2  0  0  0
  7 26  1  0  0  0
  7 29  1  0  0  0
  8  9  1  0  0  0
  8 22  1  0  0  0
  9 10  1  0  0  0
  9 27  2  0  0  0
 10 11  2  0  0  0
 10 15  1  0  0  0
 11 12  1  0  0  0
 11 97  1  0  0  0
 12 13  2  0  0  0
 12 98  1  0  0  0
 13 14  1  0  0  0
 13 31  1  0  0  0
 14 15  2  0  0  0
 14 99  1  0  0  0
 15100  1  0  0  0
 16 17  2  0  0  0
 16 21  1  0  0  0
 16 31  1  0  0  0
 17 18  1  0  0  0
 17101  1  0  0  0
 18 19  2  0  0  0
 18102  1  0  0  0
 19 20  1  0  0  0
 19 24  1  0  0  0
 20 21  2  0  0  0
 20103  1  0  0  0
 21 23  1  0  0  0
 22 28  1  0  0  0
 22 32  2  0  0  0
 26 27  1  0  0  0
 28104  1  0  0  0
 28105  1  0  0  0
 29106  1  0  0  0
 29107  1  0  0  0
 33 34  1  0  0  0
 33 66  1  0  0  0
 33 70  2  0  0  0
 34 36  1  0  0  0
 34 59  1  0  0  0
 34108  1  0  0  0
 35 44  2  0  0  0
 35 45  1  0  0  0
 35 68  1  0  0  0
 36 56  1  0  0  0
 36109  1  0  0  0
 37 39  1  0  0  0
 37 47  1  0  0  0
 37 66  1  0  0  0
 37110  1  0  0  0
 38 43  2  0  0  0
 38 46  1  0  0  0
 38 47  1  0  0  0
 39 64  1  0  0  0
 39 67  2  0  0  0
 40 52  1  0  0  0
 40 53  2  0  0  0
 40 58  1  0  0  0
 41111  1  0  0  0
 41112  1  0  0  0
 41113  1  0  0  0
 41 48  1  0  0  0
 42 43  1  0  0  0
 42 66  1  0  0  0
 42114  1  0  0  0
 42115  1  0  0  0
 43 44  1  0  0  0
 44116  1  0  0  0
 45 46  2  0  0  0
 45117  1  0  0  0
 46118  1  0  0  0
 47119  1  0  0  0
 47120  1  0  0  0
 48 56  1  0  0  0
 48 65  1  0  0  0
 48121  1  0  0  0
 49 50  1  0  0  0
 49 53  1  0  0  0
 49 64  1  0  0  0
 49122  1  0  0  0
 50 51  1  0  0  0
 50123  1  0  0  0
 50124  1  0  0  0
 51 52  1  0  0  0
 51125  1  0  0  0
 51126  1  0  0  0
 52127  1  0  0  0
 52128  1  0  0  0
 53 54  1  0  0  0
 54 55  2  0  0  0
 54129  1  0  0  0
 55 57  1  0  0  0
 55130  1  0  0  0
 56 69  2  0  0  0
 57 58  2  0  0  0
 57131  1  0  0  0
 58132  1  0  0  0
 59 60  1  0  0  0
 59 61  1  0  0  0
 59 62  1  0  0  0
 60133  1  0  0  0
 60134  1  0  0  0
 60135  1  0  0  0
 61136  1  0  0  0
 61137  1  0  0  0
 61138  1  0  0  0
 62139  1  0  0  0
 62140  1  0  0  0
 62141  1  0  0  0
 63 65  1  0  0  0
 63142  1  0  0  0
 63143  1  0  0  0
 63144  1  0  0  0
 64145  1  0  0  0
 65146  1  0  0  0
 68 84  1  0  0  0
 71 72  2  0  0  0
 71 85  1  0  0  0
 71147  1  0  0  0
 72 73  1  0  0  0
 72 78  1  0  0  0
 73 74  2  0  0  0
 73 87  1  0  0  0
 74 75  1  0  0  0
 74 85  1  0  0  0
 75148  1  0  0  0
 75149  1  0  0  0
 75150  1  0  0  0
 76151  1  0  0  0
 76152  1  0  0  0
 76153  1  0  0  0
 76 83  1  0  0  0
 77154  1  0  0  0
 77155  1  0  0  0
 77156  1  0  0  0
 77 84  1  0  0  0
 78 79  1  0  0  0
 78157  1  0  0  0
 78158  1  0  0  0
 79 82  1  0  0  0
 79159  1  0  0  0
 79160  1  0  0  0
 80 81  1  0  0  0
 80 83  1  0  0  0
 80161  1  0  0  0
 80162  1  0  0  0
 81 85  1  0  0  0
 81163  1  0  0  0
 81164  1  0  0  0
 82 86  1  0  0  0
 82165  1  0  0  0
 82166  1  0  0  0
 83 84  1  0  0  0
 83167  1  0  0  0
 84168  1  0  0  0
 86169  1  0  0  0
M  ISO  4   1 100  68 101  84 101  86 100
M  END
> <chiral flag>
0

> <version>
0

> <s_m_source_file>
/data/baiqing/PycharmProjects/Reinvent-master-3.2/result/LINK_invent/BTK/process_docking_weight1_custom_sum_contain_oxygen_bond_distance_aromatic_linkinvent_7_9_3/rearranged_h_0093.sdf

> <i_m_source_file_index>
58

> <r_mmod_Potential_Energy-OPLS-2005>
-105.35417175293

> <r_mmod_Stretch_Energy-OPLS-2005>
31.8237972259521

> <r_mmod_Bend_Energy-OPLS-2005>
98.7219467163086

> <r_mmod_Torsional_Energy-OPLS-2005>
234.661209106445

> <r_mmod_Improper_Torsional_Energy-OPLS-2005>
2.14723873138428

> <r_mmod_Van_der_Waal_Energy-OPLS-2005>
122.496719360352

> <r_mmod_Electrostatic_Energy-OPLS-2005>
-395.802886962891

> <r_mmod_Solvation_Energy-OPLS-2005>
-206.354675292969

> <b_mmod_Minimization_Converged-OPLS-2005>
0

> <r_mmod_RMS_Derivative-OPLS-2005>
3.24853777885437

$$$$
58
                    3D
 Structure written by MMmdl.
160168  0  0  1  0            999 V2000
  -30.6111  -14.7347   20.4748 C   0  0  0  0  0  0
  -30.4352  -12.4632   19.4462 C   0  0  0  0  0  0
  -29.5126  -12.5341   18.2117 C   0  0  0  0  0  0
  -28.0358  -12.3533   18.6255 C   0  0  0  0  0  0
  -27.6406  -13.2374   19.8424 C   0  0  2  0  0  0
  -28.6898  -13.1424   20.9687 C   0  0  0  0  0  0
  -25.2494  -13.8192   20.5661 C   0  0  0  0  0  0
  -24.1798  -13.0427   20.9192 C   0  0  0  0  0  0
  -24.6411  -11.6905   20.8710 C   0  0  0  0  0  0
  -23.9084  -10.4287   21.0366 C   0  0  0  0  0  0
  -24.3621   -9.4210   21.9150 C   0  0  0  0  0  0
  -23.6296   -8.2246   22.0724 C   0  0  0  0  0  0
  -22.4271   -8.0289   21.3529 C   0  0  0  0  0  0
  -21.9917   -9.0255   20.4617 C   0  0  0  0  0  0
  -22.7260  -10.2120   20.3016 C   0  0  0  0  0  0
  -21.6838   -6.0733   22.5284 C   0  0  0  0  0  0
  -21.4027   -6.5625   23.8232 C   0  0  0  0  0  0
  -21.3659   -5.6769   24.9185 C   0  0  0  0  0  0
  -21.6045   -4.3038   24.7227 C   0  0  0  0  0  0
  -21.8823   -3.8133   23.4348 C   0  0  0  0  0  0
  -21.9203   -4.6959   22.3408 C   0  0  0  0  0  0
  -22.7813  -13.5198   21.1869 C   0  0  0  0  0  0
  -22.1654   -4.2136   21.0984 F   0  0  0  0  0  0
  -21.5636   -3.4519   25.7738 F   0  0  0  0  0  0
  -29.9827  -13.5135   20.3821 N   0  0  0  0  0  0
  -26.2933  -12.9404   20.3221 N   0  0  0  0  0  0
  -25.9336  -11.6525   20.5668 N   0  0  0  0  0  0
  -22.0457  -12.8174   22.0419 N   0  0  0  0  0  0
  -25.4151  -15.1928   20.4057 N   0  0  0  0  0  0
  -31.8137  -14.8274   20.2214 O   0  0  0  0  0  0
  -21.6634   -6.8882   21.4239 O   0  0  0  0  0  0
  -22.3484  -14.5512   20.6740 O   0  0  0  0  0  0
  -24.6229  -31.8563   23.1992 C   0  0  0  0  0  0
  -25.9088  -32.4747   23.8324 C   0  0  1  0  0  0
  -27.1980  -27.2748   20.1308 C   0  0  0  0  0  0
  -25.5893  -33.8559   24.2241 N   0  0  0  0  0  0
  -23.4214  -30.4815   21.5363 C   0  0  2  0  0  0
  -24.8668  -28.9334   20.1018 C   0  0  0  0  0  0
  -22.7443  -29.4631   22.4861 C   0  0  0  0  0  0
  -18.0267  -28.1447   22.8475 C   0  0  0  0  0  0
  -24.1501  -36.7295   23.2637 C   0  0  0  0  0  0
  -25.9665  -30.7718   21.3869 C   0  0  0  0  0  0
  -26.0356  -29.3973   20.7226 C   0  0  0  0  0  0
  -27.2074  -28.5805   20.7274 C   0  0  0  0  0  0
  -26.0264  -26.8922   19.4458 C   0  0  0  0  0  0
  -24.8664  -27.6895   19.4518 C   0  0  0  0  0  0
  -23.6379  -29.8189   20.1515 C   0  0  0  0  0  0
  -25.4135  -36.3068   24.0302 C   0  0  1  0  0  0
  -20.5880  -28.3750   23.1311 C   0  0  2  0  0  0
  -20.6729  -26.9391   22.5642 C   0  0  0  0  0  0
  -19.5784  -26.6351   21.5340 C   0  0  0  0  0  0
  -18.1923  -26.7987   22.1623 C   0  0  0  0  0  0
  -19.1537  -28.8896   23.2897 C   0  0  0  0  0  0
  -18.9485  -30.1476   23.8932 C   0  0  0  0  0  0
  -17.6514  -30.6634   24.0627 C   0  0  0  0  0  0
  -25.9052  -34.9440   23.5081 C   0  0  0  0  0  0
  -16.5373  -29.9164   23.6380 C   0  0  0  0  0  0
  -16.7271  -28.6599   23.0342 C   0  0  0  0  0  0
  -26.4477  -31.6554   25.0707 C   0  0  0  0  0  0
  -25.3714  -31.3759   26.1443 C   0  0  0  0  0  0
  -27.0342  -30.2937   24.6262 C   0  0  0  0  0  0
  -27.5977  -32.4349   25.7519 C   0  0  0  0  0  0
  -27.5593  -37.1808   24.8462 C   0  0  0  0  0  0
  -21.4152  -29.3055   22.3614 N   0  0  0  0  0  0
  -26.4314  -37.3762   23.9378 N   0  0  0  0  0  0
  -24.6872  -31.0592   22.0931 N   0  0  0  0  0  0
  -23.4166  -28.8192   23.2979 O   0  0  0  0  0  0
  -28.2803  -26.3703   20.1769 O   0  0  0  0  0  0
  -26.5673  -34.8885   22.4686 O   0  0  0  0  0  0
  -23.5371  -32.1378   23.7288 O   0  0  0  0  0  0
  -29.1120  -19.6807   21.0407 C   0  0  0  0  0  0
  -29.9179  -18.6656   20.5310 C   0  0  0  0  0  0
  -30.5450  -19.2983   19.4090 C   0  0  0  0  0  0
  -30.1630  -20.6294   19.3356 C   0  0  0  0  0  0
  -31.5487  -18.6384   18.5015 C   0  0  0  0  0  0
  -30.6516  -21.6673   18.3644 C   0  0  0  0  0  0
  -26.7558  -24.7175   21.4319 C   0  0  0  0  0  0
  -30.2809  -17.2408   21.1602 C   0  0  0  0  0  0
  -28.7018  -23.6682   20.0267 C   0  0  0  0  0  0
  -28.6331  -22.2461   20.8154 C   0  0  0  0  0  0
  -28.1352  -24.9916   20.7812 C   0  0  1  0  0  0
  -29.2728  -20.9217   20.3688 N   0  0  0  0  0  0
  -29.8393  -15.8673   20.6674 N   0  0  0  0  0  0
  -31.4764  -12.5990   19.1525 H   0  0  0  0  0  0
  -30.3750  -11.4776   19.9103 H   0  0  0  0  0  0
  -29.7969  -11.7859   17.4698 H   0  0  0  0  0  0
  -29.6358  -13.5033   17.7260 H   0  0  0  0  0  0
  -27.8952  -11.2992   18.8682 H   0  0  0  0  0  0
  -27.3804  -12.5611   17.7786 H   0  0  0  0  0  0
  -27.6375  -14.2683   19.4855 H   0  0  0  0  0  0
  -28.7293  -12.1223   21.3531 H   0  0  0  0  0  0
  -28.4329  -13.7820   21.8146 H   0  0  0  0  0  0
  -25.2768   -9.5668   22.4718 H   0  0  0  0  0  0
  -23.9996   -7.4619   22.7432 H   0  0  0  0  0  0
  -21.0860   -8.8796   19.8907 H   0  0  0  0  0  0
  -22.3755  -10.9648   19.6107 H   0  0  0  0  0  0
  -21.2006   -7.6125   23.9743 H   0  0  0  0  0  0
  -21.1475   -6.0478   25.9088 H   0  0  0  0  0  0
  -22.0597   -2.7589   23.2861 H   0  0  0  0  0  0
  -22.4054  -11.9867   22.4872 H   0  0  0  0  0  0
  -21.1040  -13.1149   22.2557 H   0  0  0  0  0  0
  -24.6361  -15.8369   20.4947 H   0  0  0  0  0  0
  -26.2613  -15.6402   20.0757 H   0  0  0  0  0  0
  -26.7145  -32.5394   23.1049 H   0  0  0  0  0  0
  -24.9992  -33.9696   25.0356 H   0  0  0  0  0  0
  -22.7153  -31.3010   21.3882 H   0  0  0  0  0  0
  -23.3735  -35.9663   23.3345 H   0  0  0  0  0  0
  -24.3539  -36.8907   22.2039 H   0  0  0  0  0  0
  -23.7283  -37.6496   23.6685 H   0  0  0  0  0  0
  -26.1164  -31.5416   20.6292 H   0  0  0  0  0  0
  -26.8383  -30.8020   22.0331 H   0  0  0  0  0  0
  -28.0994  -28.9229   21.2328 H   0  0  0  0  0  0
  -25.9957  -25.9439   18.9230 H   0  0  0  0  0  0
  -23.9779  -27.3351   18.9479 H   0  0  0  0  0  0
  -23.7589  -30.5952   19.3932 H   0  0  0  0  0  0
  -22.7575  -29.2500   19.8479 H   0  0  0  0  0  0
  -25.1314  -36.1917   25.0788 H   0  0  0  0  0  0
  -20.9988  -28.3420   24.1425 H   0  0  0  0  0  0
  -20.5425  -26.2414   23.3944 H   0  0  0  0  0  0
  -21.6651  -26.7285   22.1627 H   0  0  0  0  0  0
  -19.6939  -25.6253   21.1356 H   0  0  0  0  0  0
  -19.6794  -27.3176   20.6892 H   0  0  0  0  0  0
  -17.4234  -26.6790   21.3958 H   0  0  0  0  0  0
  -18.0230  -26.0129   22.9020 H   0  0  0  0  0  0
  -19.7991  -30.7274   24.2312 H   0  0  0  0  0  0
  -17.5132  -31.6281   24.5304 H   0  0  0  0  0  0
  -15.5402  -30.3118   23.7776 H   0  0  0  0  0  0
  -15.8668  -28.0966   22.7034 H   0  0  0  0  0  0
  -24.5831  -30.7162   25.7805 H   0  0  0  0  0  0
  -24.9005  -32.2981   26.4866 H   0  0  0  0  0  0
  -25.7979  -30.8922   27.0237 H   0  0  0  0  0  0
  -26.2947  -29.6668   24.1258 H   0  0  0  0  0  0
  -27.3948  -29.7201   25.4817 H   0  0  0  0  0  0
  -27.8869  -30.4174   23.9574 H   0  0  0  0  0  0
  -27.2468  -33.3617   26.2087 H   0  0  0  0  0  0
  -28.3794  -32.6981   25.0380 H   0  0  0  0  0  0
  -28.0668  -31.8538   26.5476 H   0  0  0  0  0  0
  -28.2604  -38.0105   24.7465 H   0  0  0  0  0  0
  -28.1070  -36.2607   24.6359 H   0  0  0  0  0  0
  -27.2278  -37.1580   25.8854 H   0  0  0  0  0  0
  -20.9279  -29.8801   21.6884 H   0  0  0  0  0  0
  -26.0177  -38.2830   24.1349 H   0  0  0  0  0  0
  -28.4716  -19.6514   21.9155 H   0  0  0  0  0  0
  -31.5506  -17.5571   18.6315 H   0  0  0  0  0  0
  -32.5496  -19.0157   18.7142 H   0  0  0  0  0  0
  -31.3237  -18.8488   17.4559 H   0  0  0  0  0  0
  -31.4013  -21.2516   17.6890 H   0  0  0  0  0  0
  -31.1436  -22.4920   18.8794 H   0  0  0  0  0  0
  -29.8399  -22.0567   17.7488 H   0  0  0  0  0  0
  -26.4136  -25.5533   22.0445 H   0  0  0  0  0  0
  -26.7794  -23.8585   22.1004 H   0  0  0  0  0  0
  -25.9917  -24.5171   20.6852 H   0  0  0  0  0  0
  -29.9558  -17.2841   22.2014 H   0  0  0  0  0  0
  -31.3692  -17.2327   21.2258 H   0  0  0  0  0  0
  -28.1836  -23.5617   19.0711 H   0  0  0  0  0  0
  -29.7369  -23.8853   19.7743 H   0  0  0  0  0  0
  -27.5765  -22.0184   20.9594 H   0  0  0  0  0  0
  -29.0190  -22.4292   21.8187 H   0  0  0  0  0  0
  -28.7973  -25.0829   21.6420 H   0  0  0  0  0  0
  -28.8450  -15.6973   20.7023 H   0  0  0  0  0  0
  1 25  1  0  0  0
  1 30  2  0  0  0
  1 83  1  0  0  0
  2  3  1  0  0  0
  2 25  1  0  0  0
  2 84  1  0  0  0
  2 85  1  0  0  0
  3  4  1  0  0  0
  3 86  1  0  0  0
  3 87  1  0  0  0
  4  5  1  0  0  0
  4 88  1  0  0  0
  4 89  1  0  0  0
  5  6  1  0  0  0
  5 26  1  0  0  0
  5 90  1  0  0  0
  6 25  1  0  0  0
  6 91  1  0  0  0
  6 92  1  0  0  0
  7  8  2  0  0  0
  7 26  1  0  0  0
  7 29  1  0  0  0
  8  9  1  0  0  0
  8 22  1  0  0  0
  9 10  1  0  0  0
  9 27  2  0  0  0
 10 11  2  0  0  0
 10 15  1  0  0  0
 11 12  1  0  0  0
 11 93  1  0  0  0
 12 13  2  0  0  0
 12 94  1  0  0  0
 13 14  1  0  0  0
 13 31  1  0  0  0
 14 15  2  0  0  0
 14 95  1  0  0  0
 15 96  1  0  0  0
 16 17  2  0  0  0
 16 21  1  0  0  0
 16 31  1  0  0  0
 17 18  1  0  0  0
 17 97  1  0  0  0
 18 19  2  0  0  0
 18 98  1  0  0  0
 19 20  1  0  0  0
 19 24  1  0  0  0
 20 21  2  0  0  0
 20 99  1  0  0  0
 21 23  1  0  0  0
 22 28  1  0  0  0
 22 32  2  0  0  0
 26 27  1  0  0  0
 28100  1  0  0  0
 28101  1  0  0  0
 29102  1  0  0  0
 29103  1  0  0  0
 33 34  1  0  0  0
 33 66  1  0  0  0
 33 70  2  0  0  0
 34 36  1  0  0  0
 34 59  1  0  0  0
 34104  1  0  0  0
 35 44  2  0  0  0
 35 45  1  0  0  0
 35 68  1  0  0  0
 36 56  1  0  0  0
 36105  1  0  0  0
 37 39  1  0  0  0
 37 47  1  0  0  0
 37 66  1  0  0  0
 37106  1  0  0  0
 38 43  2  0  0  0
 38 46  1  0  0  0
 38 47  1  0  0  0
 39 64  1  0  0  0
 39 67  2  0  0  0
 40 52  1  0  0  0
 40 53  2  0  0  0
 40 58  1  0  0  0
 41107  1  0  0  0
 41108  1  0  0  0
 41109  1  0  0  0
 41 48  1  0  0  0
 42 43  1  0  0  0
 42 66  1  0  0  0
 42110  1  0  0  0
 42111  1  0  0  0
 43 44  1  0  0  0
 44112  1  0  0  0
 45 46  2  0  0  0
 45113  1  0  0  0
 46114  1  0  0  0
 47115  1  0  0  0
 47116  1  0  0  0
 48 56  1  0  0  0
 48 65  1  0  0  0
 48117  1  0  0  0
 49 50  1  0  0  0
 49 53  1  0  0  0
 49 64  1  0  0  0
 49118  1  0  0  0
 50 51  1  0  0  0
 50119  1  0  0  0
 50120  1  0  0  0
 51 52  1  0  0  0
 51121  1  0  0  0
 51122  1  0  0  0
 52123  1  0  0  0
 52124  1  0  0  0
 53 54  1  0  0  0
 54 55  2  0  0  0
 54125  1  0  0  0
 55 57  1  0  0  0
 55126  1  0  0  0
 56 69  2  0  0  0
 57 58  2  0  0  0
 57127  1  0  0  0
 58128  1  0  0  0
 59 60  1  0  0  0
 59 61  1  0  0  0
 59 62  1  0  0  0
 60129  1  0  0  0
 60130  1  0  0  0
 60131  1  0  0  0
 61132  1  0  0  0
 61133  1  0  0  0
 61134  1  0  0  0
 62135  1  0  0  0
 62136  1  0  0  0
 62137  1  0  0  0
 63 65  1  0  0  0
 63138  1  0  0  0
 63139  1  0  0  0
 63140  1  0  0  0
 64141  1  0  0  0
 65142  1  0  0  0
 68 81  1  0  0  0
 71 72  2  0  0  0
 71 82  1  0  0  0
 71143  1  0  0  0
 72 73  1  0  0  0
 72 78  1  0  0  0
 73 74  2  0  0  0
 73 75  1  0  0  0
 74 76  1  0  0  0
 74 82  1  0  0  0
 75144  1  0  0  0
 75145  1  0  0  0
 75146  1  0  0  0
 76147  1  0  0  0
 76148  1  0  0  0
 76149  1  0  0  0
 77150  1  0  0  0
 77151  1  0  0  0
 77152  1  0  0  0
 77 81  1  0  0  0
 78 83  1  0  0  0
 78153  1  0  0  0
 78154  1  0  0  0
 79 80  1  0  0  0
 79 81  1  0  0  0
 79155  1  0  0  0
 79156  1  0  0  0
 80 82  1  0  0  0
 80157  1  0  0  0
 80158  1  0  0  0
 81159  1  0  0  0
 83160  1  0  0  0
M  ISO  4   1 100  68 101  81 101  83 100
M  END
> <chiral flag>
0

> <version>
0

> <s_m_source_file>
/data/baiqing/PycharmProjects/Reinvent-master-3.2/result/LINK_invent/BTK/process_docking_weight1_custom_sum_contain_oxygen_bond_distance_aromatic_linkinvent_7_9_3/rearranged_h_0093.sdf

> <i_m_source_file_index>
59

> <r_mmod_Potential_Energy-OPLS-2005>
121.265281677246

> <r_mmod_Stretch_Energy-OPLS-2005>
118.841903686523

> <r_mmod_Bend_Energy-OPLS-2005>
199.595993041992

> <r_mmod_Torsional_Energy-OPLS-2005>
254.356063842773

> <r_mmod_Improper_Torsional_Energy-OPLS-2005>
6.66912269592285

> <r_mmod_Van_der_Waal_Energy-OPLS-2005>
118.032196044922

> <r_mmod_Electrostatic_Energy-OPLS-2005>
-447.850433349609

> <r_mmod_Solvation_Energy-OPLS-2005>
-211.900512695312

> <b_mmod_Minimization_Converged-OPLS-2005>
0

> <r_mmod_RMS_Derivative-OPLS-2005>
5.67020320892334

$$$$
59
                    3D
 Structure written by MMmdl.
172180  0  0  1  0            999 V2000
  -30.6333  -14.5563   20.4601 C   0  0  0  0  0  0
  -30.4188  -12.3162   19.4687 C   0  0  0  0  0  0
  -29.5092  -12.4637   18.2283 C   0  0  0  0  0  0
  -28.0261  -12.3282   18.6323 C   0  0  0  0  0  0
  -27.6490  -13.1895   19.8679 C   0  0  2  0  0  0
  -28.6885  -13.0456   21.0012 C   0  0  0  0  0  0
  -25.2593  -13.8060   20.5689 C   0  0  0  0  0  0
  -24.1820  -13.0380   20.9133 C   0  0  0  0  0  0
  -24.6338  -11.6839   20.8725 C   0  0  0  0  0  0
  -23.8983  -10.4261   21.0409 C   0  0  0  0  0  0
  -24.3522   -9.4188   21.9207 C   0  0  0  0  0  0
  -23.6217   -8.2215   22.0763 C   0  0  0  0  0  0
  -22.4211   -8.0238   21.3560 C   0  0  0  0  0  0
  -21.9836   -9.0209   20.4675 C   0  0  0  0  0  0
  -22.7138  -10.2098   20.3087 C   0  0  0  0  0  0
  -21.6862   -6.0703   22.5265 C   0  0  0  0  0  0
  -21.4022   -6.5626   23.8178 C   0  0  0  0  0  0
  -21.3653   -5.6789   24.9150 C   0  0  0  0  0  0
  -21.6048   -4.3056   24.7236 C   0  0  0  0  0  0
  -21.8834   -3.8132   23.4365 C   0  0  0  0  0  0
  -21.9188   -4.6922   22.3407 C   0  0  0  0  0  0
  -22.7854  -13.5199   21.1797 C   0  0  0  0  0  0
  -22.1671   -4.2092   21.0999 F   0  0  0  0  0  0
  -21.5605   -3.4571   25.7775 F   0  0  0  0  0  0
  -30.0147  -13.3450   20.4439 N   0  0  0  0  0  0
  -26.2975  -12.9181   20.3350 N   0  0  0  0  0  0
  -25.9263  -11.6383   20.5815 N   0  0  0  0  0  0
  -22.0445  -12.8270   22.0355 N   0  0  0  0  0  0
  -25.4432  -15.1826   20.4238 N   0  0  0  0  0  0
  -31.8016  -14.7039   20.0925 O   0  0  0  0  0  0
  -21.6603   -6.8835   21.4238 O   0  0  0  0  0  0
  -22.3693  -14.5559   20.6603 O   0  0  0  0  0  0
  -24.6178  -31.8685   23.2112 C   0  0  0  0  0  0
  -25.9084  -32.4805   23.8403 C   0  0  1  0  0  0
  -27.2243  -27.3850   20.1234 C   0  0  0  0  0  0
  -25.5967  -33.8605   24.2367 N   0  0  0  0  0  0
  -23.4037  -30.4889   21.5595 C   0  0  2  0  0  0
  -24.8513  -28.9467   20.1232 C   0  0  0  0  0  0
  -22.7384  -29.4647   22.5076 C   0  0  0  0  0  0
  -18.0242  -28.1400   22.8547 C   0  0  0  0  0  0
  -24.1453  -36.7202   23.2640 C   0  0  0  0  0  0
  -25.9368  -30.8140   21.3703 C   0  0  0  0  0  0
  -26.0157  -29.4446   20.7202 C   0  0  0  0  0  0
  -27.2060  -28.6721   20.7196 C   0  0  0  0  0  0
  -26.0437  -26.9196   19.5024 C   0  0  0  0  0  0
  -24.8608  -27.6816   19.5120 C   0  0  0  0  0  0
  -23.6160  -29.8192   20.1758 C   0  0  0  0  0  0
  -25.4079  -36.3079   24.0375 C   0  0  1  0  0  0
  -20.5840  -28.3647   23.1363 C   0  0  2  0  0  0
  -20.6734  -26.9388   22.5438 C   0  0  0  0  0  0
  -19.5713  -26.6429   21.5223 C   0  0  0  0  0  0
  -18.1902  -26.7964   22.1654 C   0  0  0  0  0  0
  -19.1493  -28.8841   23.2954 C   0  0  0  0  0  0
  -18.9446  -30.1458   23.8949 C   0  0  0  0  0  0
  -17.6460  -30.6631   24.0578 C   0  0  0  0  0  0
  -25.9051  -34.9457   23.5147 C   0  0  0  0  0  0
  -16.5347  -29.9134   23.6348 C   0  0  0  0  0  0
  -16.7230  -28.6532   23.0391 C   0  0  0  0  0  0
  -26.4527  -31.6551   25.0697 C   0  0  0  0  0  0
  -25.3819  -31.3612   26.1450 C   0  0  0  0  0  0
  -27.0327  -30.3005   24.6021 C   0  0  0  0  0  0
  -27.6123  -32.4234   25.7451 C   0  0  0  0  0  0
  -27.5549  -37.1741   24.8511 C   0  0  0  0  0  0
  -21.4125  -29.2992   22.3759 N   0  0  0  0  0  0
  -26.4250  -37.3785   23.9478 N   0  0  0  0  0  0
  -24.6714  -31.0675   22.1080 N   0  0  0  0  0  0
  -23.4111  -28.8212   23.3167 O   0  0  0  0  0  0
  -28.3661  -26.6002   20.1369 O   0  0  0  0  0  0
  -26.5572  -34.8919   22.4687 O   0  0  0  0  0  0
  -23.5380  -32.1524   23.7478 O   0  0  0  0  0  0
  -29.7551  -19.4076   19.5430 C   0  0  0  0  0  0
  -29.9563  -18.1800   20.1448 C   0  0  0  0  0  0
  -30.6869  -19.8145   21.5152 C   0  0  0  0  0  0
  -31.2347  -21.8225   23.1142 C   0  0  0  0  0  0
  -32.9465  -20.0495   22.5739 C   0  0  0  0  0  0
  -28.6941  -24.2100   18.3286 C   0  0  0  0  0  0
  -29.0817  -22.7481   20.3872 C   0  0  0  0  0  0
  -30.3015  -21.8435   20.0019 C   0  0  0  0  0  0
  -28.6206  -16.6575   18.5978 C   0  0  0  0  0  0
  -28.2152  -25.2258   20.5895 C   0  0  0  0  0  0
  -29.8035  -16.7600   19.6013 C   0  0  1  0  0  0
  -31.4452  -20.3522   22.7096 C   0  0  0  0  0  0
  -29.1122  -24.2104   19.8095 C   0  0  2  0  0  0
  -30.2231  -20.3990   20.3836 N   0  0  0  0  0  0
  -30.4999  -18.4882   21.3644 N   0  3  0  0  0  0
  -29.7998  -15.6265   20.5690 N   0  0  0  0  0  0
  -27.2930  -16.9704   19.1731 N   0  3  0  0  0  0
  -31.4747  -12.3839   19.1968 H   0  0  0  0  0  0
  -30.2934  -11.3227   19.9010 H   0  0  0  0  0  0
  -29.7566  -11.6939   17.4962 H   0  0  0  0  0  0
  -29.6936  -13.4206   17.7342 H   0  0  0  0  0  0
  -27.8529  -11.2759   18.8573 H   0  0  0  0  0  0
  -27.3796  -12.5694   17.7870 H   0  0  0  0  0  0
  -27.6541  -14.2194   19.5327 H   0  0  0  0  0  0
  -28.6768  -12.0291   21.3966 H   0  0  0  0  0  0
  -28.4459  -13.6956   21.8437 H   0  0  0  0  0  0
  -25.2684   -9.5656   22.4768 H   0  0  0  0  0  0
  -23.9924   -7.4627   22.7490 H   0  0  0  0  0  0
  -21.0751   -8.8698   19.9032 H   0  0  0  0  0  0
  -22.3549  -10.9612   19.6182 H   0  0  0  0  0  0
  -21.2025   -7.6135   23.9660 H   0  0  0  0  0  0
  -21.1466   -6.0544   25.9037 H   0  0  0  0  0  0
  -22.0613   -2.7601   23.2871 H   0  0  0  0  0  0
  -22.3989  -11.9923   22.4802 H   0  0  0  0  0  0
  -21.1099  -13.1413   22.2593 H   0  0  0  0  0  0
  -24.5213  -15.5144   20.1463 H   0  0  0  0  0  0
  -25.5026  -15.5368   21.3732 H   0  0  0  0  0  0
  -26.7105  -32.5519   23.1126 H   0  0  0  0  0  0
  -25.0177  -33.9785   25.0548 H   0  0  0  0  0  0
  -22.6936  -31.3055   21.4177 H   0  0  0  0  0  0
  -23.3783  -35.9477   23.3364 H   0  0  0  0  0  0
  -24.3527  -36.8732   22.2039 H   0  0  0  0  0  0
  -23.7118  -37.6386   23.6591 H   0  0  0  0  0  0
  -26.0428  -31.5698   20.5927 H   0  0  0  0  0  0
  -26.8244  -30.8798   21.9863 H   0  0  0  0  0  0
  -28.1001  -29.0427   21.2018 H   0  0  0  0  0  0
  -26.0311  -25.9565   19.0150 H   0  0  0  0  0  0
  -23.9640  -27.2809   19.0571 H   0  0  0  0  0  0
  -23.7338  -30.5919   19.4198 H   0  0  0  0  0  0
  -22.7353  -29.2494   19.8770 H   0  0  0  0  0  0
  -25.1242  -36.1950   25.0870 H   0  0  0  0  0  0
  -20.9938  -28.3227   24.1479 H   0  0  0  0  0  0
  -20.5661  -26.2249   23.3611 H   0  0  0  0  0  0
  -21.6614  -26.7486   22.1206 H   0  0  0  0  0  0
  -19.6880  -25.6354   21.1203 H   0  0  0  0  0  0
  -19.6660  -27.3287   20.6789 H   0  0  0  0  0  0
  -17.4164  -26.6726   21.4057 H   0  0  0  0  0  0
  -18.0309  -26.0070   22.9015 H   0  0  0  0  0  0
  -19.7915  -30.7246   24.2380 H   0  0  0  0  0  0
  -17.5019  -31.6337   24.5138 H   0  0  0  0  0  0
  -15.5354  -30.3079   23.7642 H   0  0  0  0  0  0
  -15.8622  -28.0874   22.7140 H   0  0  0  0  0  0
  -24.6077  -30.6851   25.7806 H   0  0  0  0  0  0
  -24.8895  -32.2720   26.4866 H   0  0  0  0  0  0
  -25.8230  -30.8844   27.0215 H   0  0  0  0  0  0
  -26.2820  -29.6737   24.1187 H   0  0  0  0  0  0
  -27.4238  -29.7275   25.4426 H   0  0  0  0  0  0
  -27.8608  -30.4309   23.9049 H   0  0  0  0  0  0
  -27.2804  -33.3565   26.2020 H   0  0  0  0  0  0
  -28.3946  -32.6731   25.0268 H   0  0  0  0  0  0
  -28.0772  -31.8331   26.5357 H   0  0  0  0  0  0
  -28.2627  -37.9979   24.7567 H   0  0  0  0  0  0
  -28.0977  -36.2529   24.6356 H   0  0  0  0  0  0
  -27.2272  -37.1438   25.8912 H   0  0  0  0  0  0
  -20.9321  -29.8618   21.6897 H   0  0  0  0  0  0
  -26.0149  -38.2849   24.1584 H   0  0  0  0  0  0
  -29.3856  -19.6558   18.5548 H   0  0  0  0  0  0
  -30.1858  -22.0904   23.2268 H   0  0  0  0  0  0
  -31.7138  -22.5166   22.4254 H   0  0  0  0  0  0
  -31.7043  -21.9969   24.0828 H   0  0  0  0  0  0
  -33.1209  -18.9760   22.4601 H   0  0  0  0  0  0
  -33.4977  -20.3947   23.4531 H   0  0  0  0  0  0
  -33.3768  -20.5483   21.7018 H   0  0  0  0  0  0
  -28.7989  -25.1996   17.8812 H   0  0  0  0  0  0
  -29.3043  -23.5313   17.7374 H   0  0  0  0  0  0
  -27.6500  -23.9136   18.2132 H   0  0  0  0  0  0
  -28.9934  -22.7998   21.4701 H   0  0  0  0  0  0
  -28.1645  -22.2601   20.0510 H   0  0  0  0  0  0
  -31.2414  -22.2540   20.3638 H   0  0  0  0  0  0
  -30.4028  -21.8534   18.9160 H   0  0  0  0  0  0
  -28.5935  -15.6663   18.1478 H   0  0  0  0  0  0
  -28.7928  -17.3341   17.7600 H   0  0  0  0  0  0
  -28.4798  -25.1965   21.6484 H   0  0  0  0  0  0
  -27.1837  -24.8740   20.5569 H   0  0  0  0  0  0
  -30.6837  -16.6301   18.9691 H   0  0  0  0  0  0
  -31.0540  -19.7544   23.5360 H   0  0  0  0  0  0
  -30.1381  -24.5792   19.8839 H   0  0  0  0  0  0
  -30.7885  -17.7983   22.0491 H   0  0  0  0  0  0
  -28.9231  -15.4358   21.0254 H   0  0  0  0  0  0
  -26.8604  -16.1968   19.6705 H   0  0  0  0  0  0
  -26.6624  -17.1842   18.4210 H   0  0  0  0  0  0
  -27.3218  -17.7723   19.7780 H   0  0  0  0  0  0
  1 25  1  0  0  0
  1 30  2  0  0  0
  1 86  1  0  0  0
  2  3  1  0  0  0
  2 25  1  0  0  0
  2 88  1  0  0  0
  2 89  1  0  0  0
  3  4  1  0  0  0
  3 90  1  0  0  0
  3 91  1  0  0  0
  4  5  1  0  0  0
  4 92  1  0  0  0
  4 93  1  0  0  0
  5  6  1  0  0  0
  5 26  1  0  0  0
  5 94  1  0  0  0
  6 25  1  0  0  0
  6 95  1  0  0  0
  6 96  1  0  0  0
  7  8  2  0  0  0
  7 26  1  0  0  0
  7 29  1  0  0  0
  8  9  1  0  0  0
  8 22  1  0  0  0
  9 10  1  0  0  0
  9 27  2  0  0  0
 10 11  2  0  0  0
 10 15  1  0  0  0
 11 12  1  0  0  0
 11 97  1  0  0  0
 12 13  2  0  0  0
 12 98  1  0  0  0
 13 14  1  0  0  0
 13 31  1  0  0  0
 14 15  2  0  0  0
 14 99  1  0  0  0
 15100  1  0  0  0
 16 17  2  0  0  0
 16 21  1  0  0  0
 16 31  1  0  0  0
 17 18  1  0  0  0
 17101  1  0  0  0
 18 19  2  0  0  0
 18102  1  0  0  0
 19 20  1  0  0  0
 19 24  1  0  0  0
 20 21  2  0  0  0
 20103  1  0  0  0
 21 23  1  0  0  0
 22 28  1  0  0  0
 22 32  2  0  0  0
 26 27  1  0  0  0
 28104  1  0  0  0
 28105  1  0  0  0
 29106  1  0  0  0
 29107  1  0  0  0
 33 34  1  0  0  0
 33 66  1  0  0  0
 33 70  2  0  0  0
 34 36  1  0  0  0
 34 59  1  0  0  0
 34108  1  0  0  0
 35 44  2  0  0  0
 35 45  1  0  0  0
 35 68  1  0  0  0
 36 56  1  0  0  0
 36109  1  0  0  0
 37 39  1  0  0  0
 37 47  1  0  0  0
 37 66  1  0  0  0
 37110  1  0  0  0
 38 43  2  0  0  0
 38 46  1  0  0  0
 38 47  1  0  0  0
 39 64  1  0  0  0
 39 67  2  0  0  0
 40 52  1  0  0  0
 40 53  2  0  0  0
 40 58  1  0  0  0
 41111  1  0  0  0
 41112  1  0  0  0
 41113  1  0  0  0
 41 48  1  0  0  0
 42 43  1  0  0  0
 42 66  1  0  0  0
 42114  1  0  0  0
 42115  1  0  0  0
 43 44  1  0  0  0
 44116  1  0  0  0
 45 46  2  0  0  0
 45117  1  0  0  0
 46118  1  0  0  0
 47119  1  0  0  0
 47120  1  0  0  0
 48 56  1  0  0  0
 48 65  1  0  0  0
 48121  1  0  0  0
 49 50  1  0  0  0
 49 53  1  0  0  0
 49 64  1  0  0  0
 49122  1  0  0  0
 50 51  1  0  0  0
 50123  1  0  0  0
 50124  1  0  0  0
 51 52  1  0  0  0
 51125  1  0  0  0
 51126  1  0  0  0
 52127  1  0  0  0
 52128  1  0  0  0
 53 54  1  0  0  0
 54 55  2  0  0  0
 54129  1  0  0  0
 55 57  1  0  0  0
 55130  1  0  0  0
 56 69  2  0  0  0
 57 58  2  0  0  0
 57131  1  0  0  0
 58132  1  0  0  0
 59 60  1  0  0  0
 59 61  1  0  0  0
 59 62  1  0  0  0
 60133  1  0  0  0
 60134  1  0  0  0
 60135  1  0  0  0
 61136  1  0  0  0
 61137  1  0  0  0
 61138  1  0  0  0
 62139  1  0  0  0
 62140  1  0  0  0
 62141  1  0  0  0
 63 65  1  0  0  0
 63142  1  0  0  0
 63143  1  0  0  0
 63144  1  0  0  0
 64145  1  0  0  0
 65146  1  0  0  0
 68 80  1  0  0  0
 71 72  2  0  0  0
 71 84  1  0  0  0
 71147  1  0  0  0
 72 81  1  0  0  0
 72 85  1  0  0  0
 73 82  1  0  0  0
 73 84  1  0  0  0
 73 85  2  0  0  0
 74148  1  0  0  0
 74149  1  0  0  0
 74150  1  0  0  0
 74 82  1  0  0  0
 75 82  1  0  0  0
 75151  1  0  0  0
 75152  1  0  0  0
 75153  1  0  0  0
 76154  1  0  0  0
 76155  1  0  0  0
 76156  1  0  0  0
 76 83  1  0  0  0
 77 78  1  0  0  0
 77 83  1  0  0  0
 77157  1  0  0  0
 77158  1  0  0  0
 78 84  1  0  0  0
 78159  1  0  0  0
 78160  1  0  0  0
 79 87  1  0  0  0
 79161  1  0  0  0
 79162  1  0  0  0
 79 81  1  0  0  0
 80 83  1  0  0  0
 80163  1  0  0  0
 80164  1  0  0  0
 81 86  1  0  0  0
 81165  1  0  0  0
 82166  1  0  0  0
 83167  1  0  0  0
 85168  1  0  0  0
 86169  1  0  0  0
 87170  1  0  0  0
 87171  1  0  0  0
 87172  1  0  0  0
M  CHG  2  85   1  87   1
M  ISO  4   1 100  68 101  80 101  86 100
M  END
> <chiral flag>
0

> <version>
0

> <s_m_source_file>
/data/baiqing/PycharmProjects/Reinvent-master-3.2/result/LINK_invent/BTK/process_docking_weight1_custom_sum_contain_oxygen_bond_distance_aromatic_linkinvent_7_9_3/rearranged_h_0093.sdf

> <i_m_source_file_index>
60

> <r_mmod_Potential_Energy-OPLS-2005>
-370.024505615234

> <r_mmod_Stretch_Energy-OPLS-2005>
49.9904670715332

> <r_mmod_Bend_Energy-OPLS-2005>
127.95792388916

> <r_mmod_Torsional_Energy-OPLS-2005>
350.014038085938

> <r_mmod_Improper_Torsional_Energy-OPLS-2005>
19.9423599243164

> <r_mmod_Van_der_Waal_Energy-OPLS-2005>
125.522857666016

> <r_mmod_Electrostatic_Energy-OPLS-2005>
-96.5027770996094

> <r_mmod_Solvation_Energy-OPLS-2005>
-975.650695800781

> <b_mmod_Minimization_Converged-OPLS-2005>
0

> <r_mmod_RMS_Derivative-OPLS-2005>
5.75583648681641

$$$$
60
                    3D
 Structure written by MMmdl.
149157  0  0  1  0            999 V2000
  -30.4747  -15.1959   20.3761 C   0  0  0  0  0  0
  -30.4335  -12.7574   19.5259 C   0  0  0  0  0  0
  -29.5300  -12.5701   18.2824 C   0  0  0  0  0  0
  -28.0744  -12.3091   18.7053 C   0  0  0  0  0  0
  -27.6139  -13.2723   19.8275 C   0  0  2  0  0  0
  -28.6496  -13.4226   20.9626 C   0  0  0  0  0  0
  -25.2392  -13.8245   20.5745 C   0  0  0  0  0  0
  -24.1742  -13.0438   20.9256 C   0  0  0  0  0  0
  -24.6391  -11.6935   20.8758 C   0  0  0  0  0  0
  -23.9085  -10.4296   21.0411 C   0  0  0  0  0  0
  -24.3635   -9.4208   21.9184 C   0  0  0  0  0  0
  -23.6311   -8.2242   22.0752 C   0  0  0  0  0  0
  -22.4289   -8.0282   21.3546 C   0  0  0  0  0  0
  -21.9929   -9.0253   20.4644 C   0  0  0  0  0  0
  -22.7258  -10.2132   20.3054 C   0  0  0  0  0  0
  -21.6854   -6.0741   22.5281 C   0  0  0  0  0  0
  -21.4016   -6.5646   23.8214 C   0  0  0  0  0  0
  -21.3663   -5.6799   24.9178 C   0  0  0  0  0  0
  -21.6042   -4.3059   24.7228 C   0  0  0  0  0  0
  -21.8819   -3.8151   23.4348 C   0  0  0  0  0  0
  -21.9197   -4.6969   22.3405 C   0  0  0  0  0  0
  -22.7761  -13.5188   21.1910 C   0  0  0  0  0  0
  -22.1664   -4.2154   21.0985 F   0  0  0  0  0  0
  -21.5630   -3.4544   25.7741 F   0  0  0  0  0  0
  -29.8925  -13.9030   20.3401 N   0  0  0  0  0  0
  -26.2822  -12.9517   20.3240 N   0  0  0  0  0  0
  -25.9329  -11.6624   20.5735 N   0  0  0  0  0  0
  -22.0436  -12.8153   22.0463 N   0  0  0  0  0  0
  -25.4011  -15.1981   20.4163 N   0  0  0  0  0  0
  -31.6926  -15.1913   20.1498 O   0  0  0  0  0  0
  -21.6648   -6.8880   21.4241 O   0  0  0  0  0  0
  -22.3436  -14.5495   20.6761 O   0  0  0  0  0  0
  -24.6602  -31.8263   23.1742 C   0  0  0  0  0  0
  -25.9300  -32.4599   23.8182 C   0  0  1  0  0  0
  -27.2133  -26.9612   20.1768 C   0  0  0  0  0  0
  -25.5985  -33.8418   24.2086 N   0  0  0  0  0  0
  -23.4726  -30.4418   21.5205 C   0  0  2  0  0  0
  -24.9264  -28.8396   20.1075 C   0  0  0  0  0  0
  -22.7655  -29.4461   22.4769 C   0  0  0  0  0  0
  -18.0322  -28.1416   22.8484 C   0  0  0  0  0  0
  -24.1488  -36.7201   23.2642 C   0  0  0  0  0  0
  -26.0407  -30.6446   21.4001 C   0  0  0  0  0  0
  -26.1090  -29.2392   20.7424 C   0  0  0  0  0  0
  -27.2485  -28.3197   20.7560 C   0  0  0  0  0  0
  -26.0052  -26.7143   19.4848 C   0  0  0  0  0  0
  -24.8984  -27.5971   19.4589 C   0  0  0  0  0  0
  -23.7121  -29.7638   20.1440 C   0  0  0  0  0  0
  -25.4127  -36.2968   24.0299 C   0  0  1  0  0  0
  -20.5949  -28.3755   23.1196 C   0  0  2  0  0  0
  -20.6801  -26.9439   22.5404 C   0  0  0  0  0  0
  -19.5772  -26.6389   21.5219 C   0  0  0  0  0  0
  -18.1956  -26.7947   22.1634 C   0  0  0  0  0  0
  -19.1585  -28.8902   23.2830 C   0  0  0  0  0  0
  -18.9496  -30.1494   23.8866 C   0  0  0  0  0  0
  -17.6494  -30.6609   24.0560 C   0  0  0  0  0  0
  -25.9099  -34.9357   23.5007 C   0  0  0  0  0  0
  -16.5381  -29.9106   23.6346 C   0  0  0  0  0  0
  -16.7308  -28.6520   23.0373 C   0  0  0  0  0  0
  -26.4560  -31.6544   25.0702 C   0  0  0  0  0  0
  -25.3705  -31.3810   26.1373 C   0  0  0  0  0  0
  -27.0425  -30.2901   24.6423 C   0  0  0  0  0  0
  -27.6047  -32.4349   25.7513 C   0  0  0  0  0  0
  -27.5561  -37.1759   24.8466 C   0  0  0  0  0  0
  -21.4318  -29.3054   22.3530 N   0  0  0  0  0  0
  -26.4262  -37.3711   23.9420 N   0  0  0  0  0  0
  -24.7452  -30.9966   22.0853 N   0  0  0  0  0  0
  -23.4215  -28.8022   23.2986 O   0  0  0  0  0  0
  -28.1983  -25.8513   20.2727 O   0  0  0  0  0  0
  -26.5691  -34.8891   22.4591 O   0  0  0  0  0  0
  -23.5679  -32.1209   23.6865 O   0  0  0  0  0  0
  -28.0054  -21.6610   21.1134 C   0  0  0  0  0  0
  -29.9293  -20.7696   19.5056 C   0  0  0  0  0  0
  -28.4037  -20.2285   21.1360 C   0  0  0  0  0  0
  -29.4309  -19.6421   20.2945 C   0  0  0  0  0  0
  -28.5632  -22.7241   20.2845 C   0  0  0  0  0  0
  -27.6931  -19.3000   22.1018 C   0  0  0  0  0  0
  -30.1581  -18.0539   20.2703 C   0  0  0  0  0  0
  -27.8315  -24.2840   20.0058 C   0  0  0  0  0  0
  -29.5344  -22.1385   19.4763 N   0  0  0  0  0  0
  -29.7353  -16.4690   20.4570 N   0  0  0  0  0  0
  -31.4600  -12.9384   19.2044 H   0  0  0  0  0  0
  -30.4705  -11.8423   20.1196 H   0  0  0  0  0  0
  -29.8973  -11.7507   17.6630 H   0  0  0  0  0  0
  -29.5738  -13.4672   17.6631 H   0  0  0  0  0  0
  -28.0124  -11.2784   19.0569 H   0  0  0  0  0  0
  -27.4079  -12.3795   17.8450 H   0  0  0  0  0  0
  -27.5369  -14.2472   19.3451 H   0  0  0  0  0  0
  -28.7979  -12.4828   21.4965 H   0  0  0  0  0  0
  -28.3021  -14.1476   21.7005 H   0  0  0  0  0  0
  -25.2775   -9.5692   22.4765 H   0  0  0  0  0  0
  -24.0026   -7.4629   22.7462 H   0  0  0  0  0  0
  -21.0866   -8.8765   19.8944 H   0  0  0  0  0  0
  -22.3710  -10.9671   19.6169 H   0  0  0  0  0  0
  -21.2002   -7.6156   23.9718 H   0  0  0  0  0  0
  -21.1485   -6.0532   25.9081 H   0  0  0  0  0  0
  -22.0592   -2.7613   23.2847 H   0  0  0  0  0  0
  -22.4088  -11.9816   22.4825 H   0  0  0  0  0  0
  -21.1043  -13.1137   22.2691 H   0  0  0  0  0  0
  -24.6231  -15.8418   20.5112 H   0  0  0  0  0  0
  -26.2369  -15.6383   20.0548 H   0  0  0  0  0  0
  -26.7364  -32.5145   23.0893 H   0  0  0  0  0  0
  -25.0117  -33.9504   25.0227 H   0  0  0  0  0  0
  -22.7845  -31.2736   21.3533 H   0  0  0  0  0  0
  -23.3756  -35.9524   23.3288 H   0  0  0  0  0  0
  -24.3566  -36.8862   22.2059 H   0  0  0  0  0  0
  -23.7245  -37.6387   23.6706 H   0  0  0  0  0  0
  -26.2186  -31.3911   20.6246 H   0  0  0  0  0  0
  -26.9014  -30.6969   22.0553 H   0  0  0  0  0  0
  -28.1405  -28.6207   21.2866 H   0  0  0  0  0  0
  -25.8699  -25.7691   18.9807 H   0  0  0  0  0  0
  -24.0014  -27.2875   18.9403 H   0  0  0  0  0  0
  -23.8680  -30.5348   19.3885 H   0  0  0  0  0  0
  -22.8220  -29.2195   19.8234 H   0  0  0  0  0  0
  -25.1333  -36.1738   25.0788 H   0  0  0  0  0  0
  -21.0051  -28.3355   24.1314 H   0  0  0  0  0  0
  -20.5676  -26.2379   23.3642 H   0  0  0  0  0  0
  -21.6664  -26.7426   22.1202 H   0  0  0  0  0  0
  -19.6928  -25.6288   21.1276 H   0  0  0  0  0  0
  -19.6695  -27.3173   20.6726 H   0  0  0  0  0  0
  -17.4216  -26.6690   21.4046 H   0  0  0  0  0  0
  -18.0355  -26.0106   22.9049 H   0  0  0  0  0  0
  -19.7971  -30.7319   24.2217 H   0  0  0  0  0  0
  -17.5051  -31.6287   24.5164 H   0  0  0  0  0  0
  -15.5382  -30.3000   23.7690 H   0  0  0  0  0  0
  -15.8709  -28.0826   22.7121 H   0  0  0  0  0  0
  -24.5879  -30.7161   25.7708 H   0  0  0  0  0  0
  -24.8906  -32.3023   26.4684 H   0  0  0  0  0  0
  -25.7953  -30.9059   27.0225 H   0  0  0  0  0  0
  -26.3071  -29.6602   24.1398 H   0  0  0  0  0  0
  -27.3916  -29.7249   25.5074 H   0  0  0  0  0  0
  -27.9049  -30.4071   23.9855 H   0  0  0  0  0  0
  -27.2608  -33.3708   26.1935 H   0  0  0  0  0  0
  -28.3951  -32.6809   25.0412 H   0  0  0  0  0  0
  -28.0601  -31.8566   26.5563 H   0  0  0  0  0  0
  -28.2553  -38.0076   24.7518 H   0  0  0  0  0  0
  -28.1075  -36.2603   24.6277 H   0  0  0  0  0  0
  -27.2283  -37.1391   25.8868 H   0  0  0  0  0  0
  -20.9549  -29.8759   21.6687 H   0  0  0  0  0  0
  -26.0093  -38.2759   24.1446 H   0  0  0  0  0  0
  -27.1849  -21.9534   21.7553 H   0  0  0  0  0  0
  -30.7374  -20.5596   18.8203 H   0  0  0  0  0  0
  -26.9953  -19.8373   22.7440 H   0  0  0  0  0  0
  -28.4143  -18.7912   22.7421 H   0  0  0  0  0  0
  -27.1325  -18.5438   21.5520 H   0  0  0  0  0  0
  -30.9785  -18.1633   20.9809 H   0  0  0  0  0  0
  -30.6651  -18.0410   19.3046 H   0  0  0  0  0  0
  -26.8505  -24.1697   20.4675 H   0  0  0  0  0  0
  -27.6250  -24.2559   18.9360 H   0  0  0  0  0  0
  -28.7475  -16.3285   20.6072 H   0  0  0  0  0  0
  1 25  1  0  0  0
  1 30  2  0  0  0
  1 80  1  0  0  0
  2  3  1  0  0  0
  2 25  1  0  0  0
  2 81  1  0  0  0
  2 82  1  0  0  0
  3  4  1  0  0  0
  3 83  1  0  0  0
  3 84  1  0  0  0
  4  5  1  0  0  0
  4 85  1  0  0  0
  4 86  1  0  0  0
  5  6  1  0  0  0
  5 26  1  0  0  0
  5 87  1  0  0  0
  6 25  1  0  0  0
  6 88  1  0  0  0
  6 89  1  0  0  0
  7  8  2  0  0  0
  7 26  1  0  0  0
  7 29  1  0  0  0
  8  9  1  0  0  0
  8 22  1  0  0  0
  9 10  1  0  0  0
  9 27  2  0  0  0
 10 11  2  0  0  0
 10 15  1  0  0  0
 11 12  1  0  0  0
 11 90  1  0  0  0
 12 13  2  0  0  0
 12 91  1  0  0  0
 13 14  1  0  0  0
 13 31  1  0  0  0
 14 15  2  0  0  0
 14 92  1  0  0  0
 15 93  1  0  0  0
 16 17  2  0  0  0
 16 21  1  0  0  0
 16 31  1  0  0  0
 17 18  1  0  0  0
 17 94  1  0  0  0
 18 19  2  0  0  0
 18 95  1  0  0  0
 19 20  1  0  0  0
 19 24  1  0  0  0
 20 21  2  0  0  0
 20 96  1  0  0  0
 21 23  1  0  0  0
 22 28  1  0  0  0
 22 32  2  0  0  0
 26 27  1  0  0  0
 28 97  1  0  0  0
 28 98  1  0  0  0
 29 99  1  0  0  0
 29100  1  0  0  0
 33 34  1  0  0  0
 33 66  1  0  0  0
 33 70  2  0  0  0
 34 36  1  0  0  0
 34 59  1  0  0  0
 34101  1  0  0  0
 35 44  2  0  0  0
 35 45  1  0  0  0
 35 68  1  0  0  0
 36 56  1  0  0  0
 36102  1  0  0  0
 37 39  1  0  0  0
 37 47  1  0  0  0
 37 66  1  0  0  0
 37103  1  0  0  0
 38 43  2  0  0  0
 38 46  1  0  0  0
 38 47  1  0  0  0
 39 64  1  0  0  0
 39 67  2  0  0  0
 40 52  1  0  0  0
 40 53  2  0  0  0
 40 58  1  0  0  0
 41104  1  0  0  0
 41105  1  0  0  0
 41106  1  0  0  0
 41 48  1  0  0  0
 42 43  1  0  0  0
 42 66  1  0  0  0
 42107  1  0  0  0
 42108  1  0  0  0
 43 44  1  0  0  0
 44109  1  0  0  0
 45 46  2  0  0  0
 45110  1  0  0  0
 46111  1  0  0  0
 47112  1  0  0  0
 47113  1  0  0  0
 48 56  1  0  0  0
 48 65  1  0  0  0
 48114  1  0  0  0
 49 50  1  0  0  0
 49 53  1  0  0  0
 49 64  1  0  0  0
 49115  1  0  0  0
 50 51  1  0  0  0
 50116  1  0  0  0
 50117  1  0  0  0
 51 52  1  0  0  0
 51118  1  0  0  0
 51119  1  0  0  0
 52120  1  0  0  0
 52121  1  0  0  0
 53 54  1  0  0  0
 54 55  2  0  0  0
 54122  1  0  0  0
 55 57  1  0  0  0
 55123  1  0  0  0
 56 69  2  0  0  0
 57 58  2  0  0  0
 57124  1  0  0  0
 58125  1  0  0  0
 59 60  1  0  0  0
 59 61  1  0  0  0
 59 62  1  0  0  0
 60126  1  0  0  0
 60127  1  0  0  0
 60128  1  0  0  0
 61129  1  0  0  0
 61130  1  0  0  0
 61131  1  0  0  0
 62132  1  0  0  0
 62133  1  0  0  0
 62134  1  0  0  0
 63 65  1  0  0  0
 63135  1  0  0  0
 63136  1  0  0  0
 63137  1  0  0  0
 64138  1  0  0  0
 65139  1  0  0  0
 68 78  1  0  0  0
 71 73  2  0  0  0
 71 75  1  0  0  0
 71140  1  0  0  0
 72 74  2  0  0  0
 72 79  1  0  0  0
 72141  1  0  0  0
 73 74  1  0  0  0
 73 76  1  0  0  0
 74 77  1  0  0  0
 75 78  1  0  0  0
 75 79  2  0  0  0
 76142  1  0  0  0
 76143  1  0  0  0
 76144  1  0  0  0
 77 80  1  0  0  0
 77145  1  0  0  0
 77146  1  0  0  0
 78147  1  0  0  0
 78148  1  0  0  0
 80149  1  0  0  0
M  ISO  4   1 100  68 101  78 101  80 100
M  END
> <chiral flag>
0

> <version>
0

> <s_m_source_file>
/data/baiqing/PycharmProjects/Reinvent-master-3.2/result/LINK_invent/BTK/process_docking_weight1_custom_sum_contain_oxygen_bond_distance_aromatic_linkinvent_7_9_3/rearranged_h_0093.sdf

> <i_m_source_file_index>
61

> <r_mmod_Potential_Energy-OPLS-2005>
967.842163085938

> <r_mmod_Stretch_Energy-OPLS-2005>
468.806457519531

> <r_mmod_Bend_Energy-OPLS-2005>
427.048309326172

> <r_mmod_Torsional_Energy-OPLS-2005>
214.475357055664

> <r_mmod_Improper_Torsional_Energy-OPLS-2005>
8.02400970458984

> <r_mmod_Van_der_Waal_Energy-OPLS-2005>
132.247573852539

> <r_mmod_Electrostatic_Energy-OPLS-2005>
-449.111694335938

> <r_mmod_Solvation_Energy-OPLS-2005>
-234.82160949707

> <b_mmod_Minimization_Converged-OPLS-2005>
0

> <r_mmod_RMS_Derivative-OPLS-2005>
1.26085317134857

$$$$
61
                    3D
 Structure written by MMmdl.
166174  0  0  1  0            999 V2000
  -30.6164  -14.7572   20.4550 C   0  0  0  0  0  0
  -30.4335  -12.4727   19.4572 C   0  0  0  0  0  0
  -29.5032  -12.4967   18.2252 C   0  0  0  0  0  0
  -28.0330  -12.3186   18.6512 C   0  0  0  0  0  0
  -27.6376  -13.2299   19.8438 C   0  0  2  0  0  0
  -28.6871  -13.1854   20.9748 C   0  0  0  0  0  0
  -25.2508  -13.8194   20.5712 C   0  0  0  0  0  0
  -24.1802  -13.0435   20.9228 C   0  0  0  0  0  0
  -24.6392  -11.6918   20.8767 C   0  0  0  0  0  0
  -23.9062  -10.4297   21.0410 C   0  0  0  0  0  0
  -24.3619   -9.4209   21.9178 C   0  0  0  0  0  0
  -23.6304   -8.2239   22.0751 C   0  0  0  0  0  0
  -22.4280   -8.0281   21.3543 C   0  0  0  0  0  0
  -21.9918   -9.0249   20.4631 C   0  0  0  0  0  0
  -22.7244  -10.2126   20.3052 C   0  0  0  0  0  0
  -21.6861   -6.0731   22.5272 C   0  0  0  0  0  0
  -21.4005   -6.5642   23.8206 C   0  0  0  0  0  0
  -21.3661   -5.6793   24.9170 C   0  0  0  0  0  0
  -21.6050   -4.3051   24.7220 C   0  0  0  0  0  0
  -21.8825   -3.8143   23.4340 C   0  0  0  0  0  0
  -21.9195   -4.6959   22.3394 C   0  0  0  0  0  0
  -22.7828  -13.5212   21.1898 C   0  0  0  0  0  0
  -22.1667   -4.2142   21.0966 F   0  0  0  0  0  0
  -21.5638   -3.4536   25.7736 F   0  0  0  0  0  0
  -29.9788  -13.5402   20.3753 N   0  0  0  0  0  0
  -26.2924  -12.9391   20.3281 N   0  0  0  0  0  0
  -25.9315  -11.6540   20.5758 N   0  0  0  0  0  0
  -22.0485  -12.8173   22.0438 N   0  0  0  0  0  0
  -25.4204  -15.1921   20.4141 N   0  0  0  0  0  0
  -31.8206  -14.8335   20.1977 O   0  0  0  0  0  0
  -21.6652   -6.8874   21.4231 O   0  0  0  0  0  0
  -22.3508  -14.5519   20.6763 O   0  0  0  0  0  0
  -24.6370  -31.8540   23.1958 C   0  0  0  0  0  0
  -25.9167  -32.4758   23.8308 C   0  0  1  0  0  0
  -27.2019  -27.2375   20.1006 C   0  0  0  0  0  0
  -25.6006  -33.8569   24.2259 N   0  0  0  0  0  0
  -23.4323  -30.4853   21.5373 C   0  0  2  0  0  0
  -24.8696  -28.9319   20.1000 C   0  0  0  0  0  0
  -22.7527  -29.4645   22.4838 C   0  0  0  0  0  0
  -18.0323  -28.1381   22.8483 C   0  0  0  0  0  0
  -24.1510  -36.7274   23.2631 C   0  0  0  0  0  0
  -25.9802  -30.7590   21.3732 C   0  0  0  0  0  0
  -26.0450  -29.3793   20.7164 C   0  0  0  0  0  0
  -27.2080  -28.5412   20.7119 C   0  0  0  0  0  0
  -26.0092  -26.8840   19.4248 C   0  0  0  0  0  0
  -24.8582  -27.6935   19.4476 C   0  0  0  0  0  0
  -23.6496  -29.8318   20.1499 C   0  0  0  0  0  0
  -25.4125  -36.3078   24.0349 C   0  0  1  0  0  0
  -20.5938  -28.3695   23.1243 C   0  0  2  0  0  0
  -20.6822  -26.9409   22.5388 C   0  0  0  0  0  0
  -19.5800  -26.6352   21.5198 C   0  0  0  0  0  0
  -18.1972  -26.7932   22.1597 C   0  0  0  0  0  0
  -19.1580  -28.8843   23.2867 C   0  0  0  0  0  0
  -18.9502  -30.1459   23.8876 C   0  0  0  0  0  0
  -17.6505  -30.6572   24.0583 C   0  0  0  0  0  0
  -25.9071  -34.9458   23.5077 C   0  0  0  0  0  0
  -16.5386  -29.9098   23.6327 C   0  0  0  0  0  0
  -16.7308  -28.6528   23.0315 C   0  0  0  0  0  0
  -26.4543  -31.6549   25.0660 C   0  0  0  0  0  0
  -25.3808  -31.3645   26.1399 C   0  0  0  0  0  0
  -27.0348  -30.3002   24.6035 C   0  0  0  0  0  0
  -27.6122  -32.4263   25.7409 C   0  0  0  0  0  0
  -27.5616  -37.1764   24.8459 C   0  0  0  0  0  0
  -21.4221  -29.3063   22.3603 N   0  0  0  0  0  0
  -26.4284  -37.3795   23.9492 N   0  0  0  0  0  0
  -24.7041  -31.0542   22.0916 N   0  0  0  0  0  0
  -23.4238  -28.8139   23.2883 O   0  0  0  0  0  0
  -28.2903  -26.3274   20.1830 O   0  0  0  0  0  0
  -26.5598  -34.8944   22.4619 O   0  0  0  0  0  0
  -23.5516  -32.1331   23.7270 O   0  0  0  0  0  0
  -27.6260  -18.8825   21.3696 C   0  0  0  0  0  0
  -26.5100  -19.7363   21.4787 C   0  0  0  0  0  0
  -28.6304  -19.5165   20.7003 C   0  0  0  0  0  0
  -26.8731  -20.9469   20.9488 C   0  0  0  0  0  0
  -25.1621  -19.3150   22.0094 C   0  0  0  0  0  0
  -24.2744  -23.1093   19.0436 C   0  0  0  0  0  0
  -29.8526  -18.6970   20.1865 C   0  0  0  0  0  0
  -25.9355  -22.0977   20.7085 C   0  0  0  0  0  0
  -25.4647  -22.1630   19.2470 C   0  0  0  0  0  0
  -28.8252  -23.6325   20.5617 C   0  0  0  0  0  0
  -28.9140  -22.1276   19.9154 C   0  0  0  0  0  0
  -30.3345  -17.3345   20.9471 C   0  0  0  0  0  0
  -28.1880  -24.8818   19.7372 C   0  0  0  0  0  0
  -28.2224  -20.9118   20.5452 N   0  0  0  0  0  0
  -29.8601  -15.9111   20.6313 N   0  0  0  0  0  0
  -31.4686  -12.6131   19.1419 H   0  0  0  0  0  0
  -30.3979  -11.5000   19.9506 H   0  0  0  0  0  0
  -29.7848  -11.7082   17.5254 H   0  0  0  0  0  0
  -29.6196  -13.4397   17.6876 H   0  0  0  0  0  0
  -27.9011  -11.2728   18.9307 H   0  0  0  0  0  0
  -27.3665  -12.4911   17.8057 H   0  0  0  0  0  0
  -27.6241  -14.2471   19.4513 H   0  0  0  0  0  0
  -28.7345  -12.1984   21.4352 H   0  0  0  0  0  0
  -28.4238  -13.8838   21.7707 H   0  0  0  0  0  0
  -25.2767   -9.5696   22.4758 H   0  0  0  0  0  0
  -24.0025   -7.4623   22.7465 H   0  0  0  0  0  0
  -21.0861   -8.8745   19.8925 H   0  0  0  0  0  0
  -22.3697  -10.9663   19.6164 H   0  0  0  0  0  0
  -21.1984   -7.6154   23.9704 H   0  0  0  0  0  0
  -21.1483   -6.0524   25.9072 H   0  0  0  0  0  0
  -22.0603   -2.7604   23.2833 H   0  0  0  0  0  0
  -22.4119  -11.9814   22.4783 H   0  0  0  0  0  0
  -21.1082  -13.1145   22.2633 H   0  0  0  0  0  0
  -24.6526  -15.8445   20.5272 H   0  0  0  0  0  0
  -26.2644  -15.6338   20.0743 H   0  0  0  0  0  0
  -26.7206  -32.5385   23.1014 H   0  0  0  0  0  0
  -25.0358  -33.9727   25.0541 H   0  0  0  0  0  0
  -22.7332  -31.3118   21.3948 H   0  0  0  0  0  0
  -23.3826  -35.9549   23.3187 H   0  0  0  0  0  0
  -24.3661  -36.8975   22.2068 H   0  0  0  0  0  0
  -23.7161  -37.6414   23.6694 H   0  0  0  0  0  0
  -26.1183  -31.5144   20.5990 H   0  0  0  0  0  0
  -26.8653  -30.8111   21.9952 H   0  0  0  0  0  0
  -28.1055  -28.8771   21.2129 H   0  0  0  0  0  0
  -25.9185  -25.9763   18.8572 H   0  0  0  0  0  0
  -23.9635  -27.3594   18.9400 H   0  0  0  0  0  0
  -23.7954  -30.6184   19.4077 H   0  0  0  0  0  0
  -22.7610  -29.2876   19.8242 H   0  0  0  0  0  0
  -25.1274  -36.1895   25.0839 H   0  0  0  0  0  0
  -21.0067  -28.3241   24.1347 H   0  0  0  0  0  0
  -20.5699  -26.2293   23.3579 H   0  0  0  0  0  0
  -21.6687  -26.7404   22.1187 H   0  0  0  0  0  0
  -19.6971  -25.6253   21.1243 H   0  0  0  0  0  0
  -19.6775  -27.3160   20.6735 H   0  0  0  0  0  0
  -17.4257  -26.6704   21.3985 H   0  0  0  0  0  0
  -18.0360  -26.0062   22.8974 H   0  0  0  0  0  0
  -19.7979  -30.7298   24.2185 H   0  0  0  0  0  0
  -17.5059  -31.6248   24.5195 H   0  0  0  0  0  0
  -15.5392  -30.3001   23.7636 H   0  0  0  0  0  0
  -15.8714  -28.0868   22.6959 H   0  0  0  0  0  0
  -24.6104  -30.6835   25.7756 H   0  0  0  0  0  0
  -24.8863  -32.2752   26.4773 H   0  0  0  0  0  0
  -25.8201  -30.8922   27.0184 H   0  0  0  0  0  0
  -26.2824  -29.6752   24.1196 H   0  0  0  0  0  0
  -27.4245  -29.7266   25.4442 H   0  0  0  0  0  0
  -27.8647  -30.4352   23.9096 H   0  0  0  0  0  0
  -27.2814  -33.3674   26.1814 H   0  0  0  0  0  0
  -28.4004  -32.6583   25.0234 H   0  0  0  0  0  0
  -28.0674  -31.8436   26.5421 H   0  0  0  0  0  0
  -28.2481  -38.0205   24.7696 H   0  0  0  0  0  0
  -28.1231  -36.2739   24.5991 H   0  0  0  0  0  0
  -27.2375  -37.1046   25.8856 H   0  0  0  0  0  0
  -20.9327  -29.8874   21.6942 H   0  0  0  0  0  0
  -26.0130  -38.2837   24.1619 H   0  0  0  0  0  0
  -27.6474  -17.8399   21.6588 H   0  0  0  0  0  0
  -24.7786  -20.0276   22.7391 H   0  0  0  0  0  0
  -25.2352  -18.3395   22.4936 H   0  0  0  0  0  0
  -24.4401  -19.2238   21.1968 H   0  0  0  0  0  0
  -23.9325  -23.0725   18.0084 H   0  0  0  0  0  0
  -24.5403  -24.1402   19.2719 H   0  0  0  0  0  0
  -23.4315  -22.8338   19.6815 H   0  0  0  0  0  0
  -30.7064  -19.3759   20.1799 H   0  0  0  0  0  0
  -29.6896  -18.4595   19.1345 H   0  0  0  0  0  0
  -26.3409  -23.0485   21.0354 H   0  0  0  0  0  0
  -25.0574  -21.9664   21.3410 H   0  0  0  0  0  0
  -26.2885  -22.4539   18.5944 H   0  0  0  0  0  0
  -25.1706  -21.1602   18.9294 H   0  0  0  0  0  0
  -29.8519  -23.9253   20.7814 H   0  0  0  0  0  0
  -28.3731  -23.5778   21.5519 H   0  0  0  0  0  0
  -29.9706  -21.8712   19.8364 H   0  0  0  0  0  0
  -28.5794  -22.1839   18.8801 H   0  0  0  0  0  0
  -30.2051  -17.4836   22.0198 H   0  0  0  0  0  0
  -31.4173  -17.3067   20.8173 H   0  0  0  0  0  0
  -27.1579  -24.5868   19.5817 H   0  0  0  0  0  0
  -28.6344  -24.8616   18.7420 H   0  0  0  0  0  0
  -28.8641  -15.7613   20.6986 H   0  0  0  0  0  0
  1 25  1  0  0  0
  1 30  2  0  0  0
  1 85  1  0  0  0
  2  3  1  0  0  0
  2 25  1  0  0  0
  2 86  1  0  0  0
  2 87  1  0  0  0
  3  4  1  0  0  0
  3 88  1  0  0  0
  3 89  1  0  0  0
  4  5  1  0  0  0
  4 90  1  0  0  0
  4 91  1  0  0  0
  5  6  1  0  0  0
  5 26  1  0  0  0
  5 92  1  0  0  0
  6 25  1  0  0  0
  6 93  1  0  0  0
  6 94  1  0  0  0
  7  8  2  0  0  0
  7 26  1  0  0  0
  7 29  1  0  0  0
  8  9  1  0  0  0
  8 22  1  0  0  0
  9 10  1  0  0  0
  9 27  2  0  0  0
 10 11  2  0  0  0
 10 15  1  0  0  0
 11 12  1  0  0  0
 11 95  1  0  0  0
 12 13  2  0  0  0
 12 96  1  0  0  0
 13 14  1  0  0  0
 13 31  1  0  0  0
 14 15  2  0  0  0
 14 97  1  0  0  0
 15 98  1  0  0  0
 16 17  2  0  0  0
 16 21  1  0  0  0
 16 31  1  0  0  0
 17 18  1  0  0  0
 17 99  1  0  0  0
 18 19  2  0  0  0
 18100  1  0  0  0
 19 20  1  0  0  0
 19 24  1  0  0  0
 20 21  2  0  0  0
 20101  1  0  0  0
 21 23  1  0  0  0
 22 28  1  0  0  0
 22 32  2  0  0  0
 26 27  1  0  0  0
 28102  1  0  0  0
 28103  1  0  0  0
 29104  1  0  0  0
 29105  1  0  0  0
 33 34  1  0  0  0
 33 66  1  0  0  0
 33 70  2  0  0  0
 34 36  1  0  0  0
 34 59  1  0  0  0
 34106  1  0  0  0
 35 44  2  0  0  0
 35 45  1  0  0  0
 35 68  1  0  0  0
 36 56  1  0  0  0
 36107  1  0  0  0
 37 39  1  0  0  0
 37 47  1  0  0  0
 37 66  1  0  0  0
 37108  1  0  0  0
 38 43  2  0  0  0
 38 46  1  0  0  0
 38 47  1  0  0  0
 39 64  1  0  0  0
 39 67  2  0  0  0
 40 52  1  0  0  0
 40 53  2  0  0  0
 40 58  1  0  0  0
 41109  1  0  0  0
 41110  1  0  0  0
 41111  1  0  0  0
 41 48  1  0  0  0
 42 43  1  0  0  0
 42 66  1  0  0  0
 42112  1  0  0  0
 42113  1  0  0  0
 43 44  1  0  0  0
 44114  1  0  0  0
 45 46  2  0  0  0
 45115  1  0  0  0
 46116  1  0  0  0
 47117  1  0  0  0
 47118  1  0  0  0
 48 56  1  0  0  0
 48 65  1  0  0  0
 48119  1  0  0  0
 49 50  1  0  0  0
 49 53  1  0  0  0
 49 64  1  0  0  0
 49120  1  0  0  0
 50 51  1  0  0  0
 50121  1  0  0  0
 50122  1  0  0  0
 51 52  1  0  0  0
 51123  1  0  0  0
 51124  1  0  0  0
 52125  1  0  0  0
 52126  1  0  0  0
 53 54  1  0  0  0
 54 55  2  0  0  0
 54127  1  0  0  0
 55 57  1  0  0  0
 55128  1  0  0  0
 56 69  2  0  0  0
 57 58  2  0  0  0
 57129  1  0  0  0
 58130  1  0  0  0
 59 60  1  0  0  0
 59 61  1  0  0  0
 59 62  1  0  0  0
 60131  1  0  0  0
 60132  1  0  0  0
 60133  1  0  0  0
 61134  1  0  0  0
 61135  1  0  0  0
 61136  1  0  0  0
 62137  1  0  0  0
 62138  1  0  0  0
 62139  1  0  0  0
 63 65  1  0  0  0
 63140  1  0  0  0
 63141  1  0  0  0
 63142  1  0  0  0
 64143  1  0  0  0
 65144  1  0  0  0
 68 83  1  0  0  0
 71 72  1  0  0  0
 71 73  2  0  0  0
 71145  1  0  0  0
 72 74  2  0  0  0
 72 75  1  0  0  0
 73 77  1  0  0  0
 73 84  1  0  0  0
 74 78  1  0  0  0
 74 84  1  0  0  0
 75146  1  0  0  0
 75147  1  0  0  0
 75148  1  0  0  0
 76 79  1  0  0  0
 76149  1  0  0  0
 76150  1  0  0  0
 76151  1  0  0  0
 77 82  1  0  0  0
 77152  1  0  0  0
 77153  1  0  0  0
 78 79  1  0  0  0
 78154  1  0  0  0
 78155  1  0  0  0
 79156  1  0  0  0
 79157  1  0  0  0
 80 81  1  0  0  0
 80 83  1  0  0  0
 80158  1  0  0  0
 80159  1  0  0  0
 81 84  1  0  0  0
 81160  1  0  0  0
 81161  1  0  0  0
 82 85  1  0  0  0
 82162  1  0  0  0
 82163  1  0  0  0
 83164  1  0  0  0
 83165  1  0  0  0
 85166  1  0  0  0
M  ISO  4   1 100  68 101  83 101  85 100
M  END
> <chiral flag>
0

> <version>
0

> <s_m_source_file>
/data/baiqing/PycharmProjects/Reinvent-master-3.2/result/LINK_invent/BTK/process_docking_weight1_custom_sum_contain_oxygen_bond_distance_aromatic_linkinvent_7_9_3/rearranged_h_0093.sdf

> <i_m_source_file_index>
62

> <r_mmod_Potential_Energy-OPLS-2005>
212.319793701172

> <r_mmod_Stretch_Energy-OPLS-2005>
144.057601928711

> <r_mmod_Bend_Energy-OPLS-2005>
222.68278503418

> <r_mmod_Torsional_Energy-OPLS-2005>
253.603698730469

> <r_mmod_Improper_Torsional_Energy-OPLS-2005>
6.03933525085449

> <r_mmod_Van_der_Waal_Energy-OPLS-2005>
111.157257080078

> <r_mmod_Electrostatic_Energy-OPLS-2005>
-415.603332519531

> <r_mmod_Solvation_Energy-OPLS-2005>
-208.823059082031

> <b_mmod_Minimization_Converged-OPLS-2005>
0

> <r_mmod_RMS_Derivative-OPLS-2005>
3.70710825920105

$$$$
62
                    3D
 Structure written by MMmdl.
169177  0  0  1  0            999 V2000
  -30.6879  -14.5524   20.5511 C   0  0  0  0  0  0
  -30.4268  -12.3562   19.4329 C   0  0  0  0  0  0
  -29.4965  -12.5008   18.2114 C   0  0  0  0  0  0
  -28.0193  -12.3546   18.6268 C   0  0  0  0  0  0
  -27.6551  -13.2150   19.8653 C   0  0  2  0  0  0
  -28.7005  -13.0512   20.9897 C   0  0  0  0  0  0
  -25.2570  -13.8180   20.5683 C   0  0  0  0  0  0
  -24.1832  -13.0451   20.9202 C   0  0  0  0  0  0
  -24.6389  -11.6919   20.8743 C   0  0  0  0  0  0
  -23.9054  -10.4297   21.0404 C   0  0  0  0  0  0
  -24.3611   -9.4208   21.9170 C   0  0  0  0  0  0
  -23.6295   -8.2236   22.0728 C   0  0  0  0  0  0
  -22.4268   -8.0281   21.3528 C   0  0  0  0  0  0
  -21.9909   -9.0252   20.4625 C   0  0  0  0  0  0
  -22.7233  -10.2136   20.3044 C   0  0  0  0  0  0
  -21.6854   -6.0736   22.5270 C   0  0  0  0  0  0
  -21.4019   -6.5638   23.8206 C   0  0  0  0  0  0
  -21.3662   -5.6783   24.9164 C   0  0  0  0  0  0
  -21.6046   -4.3046   24.7212 C   0  0  0  0  0  0
  -21.8821   -3.8146   23.4330 C   0  0  0  0  0  0
  -21.9199   -4.6966   22.3392 C   0  0  0  0  0  0
  -22.7851  -13.5243   21.1865 C   0  0  0  0  0  0
  -22.1662   -4.2153   21.0967 F   0  0  0  0  0  0
  -21.5633   -3.4532   25.7728 F   0  0  0  0  0  0
  -30.0183  -13.3701   20.4207 N   0  0  0  0  0  0
  -26.3001  -12.9360   20.3338 N   0  0  0  0  0  0
  -25.9321  -11.6517   20.5767 N   0  0  0  0  0  0
  -22.0486  -12.8227   22.0414 N   0  0  0  0  0  0
  -25.4316  -15.1890   20.4082 N   0  0  0  0  0  0
  -31.8394  -14.6999   20.1389 O   0  0  0  0  0  0
  -21.6633   -6.8878   21.4227 O   0  0  0  0  0  0
  -22.3540  -14.5556   20.6723 O   0  0  0  0  0  0
  -24.6216  -31.8624   23.2062 C   0  0  0  0  0  0
  -25.9079  -32.4789   23.8384 C   0  0  1  0  0  0
  -27.2389  -27.3738   20.1007 C   0  0  0  0  0  0
  -25.5904  -33.8591   24.2302 N   0  0  0  0  0  0
  -23.4128  -30.4852   21.5484 C   0  0  2  0  0  0
  -24.8589  -28.9425   20.1121 C   0  0  0  0  0  0
  -22.7449  -29.4631   22.4977 C   0  0  0  0  0  0
  -18.0277  -28.1369   22.8499 C   0  0  0  0  0  0
  -24.1477  -36.7305   23.2640 C   0  0  0  0  0  0
  -25.9479  -30.8075   21.3692 C   0  0  0  0  0  0
  -26.0226  -29.4394   20.7112 C   0  0  0  0  0  0
  -27.2126  -28.6648   20.6970 C   0  0  0  0  0  0
  -26.0525  -26.9106   19.4855 C   0  0  0  0  0  0
  -24.8727  -27.6808   19.4941 C   0  0  0  0  0  0
  -23.6234  -29.8166   20.1640 C   0  0  0  0  0  0
  -25.4099  -36.3089   24.0331 C   0  0  1  0  0  0
  -20.5878  -28.3663   23.1305 C   0  0  2  0  0  0
  -20.6759  -26.9390   22.5417 C   0  0  0  0  0  0
  -19.5731  -26.6378   21.5216 C   0  0  0  0  0  0
  -18.1915  -26.7916   22.1632 C   0  0  0  0  0  0
  -19.1530  -28.8836   23.2894 C   0  0  0  0  0  0
  -18.9451  -30.1445   23.8896 C   0  0  0  0  0  0
  -17.6450  -30.6576   24.0563 C   0  0  0  0  0  0
  -25.9037  -34.9456   23.5118 C   0  0  0  0  0  0
  -16.5345  -29.9073   23.6328 C   0  0  0  0  0  0
  -16.7267  -28.6492   23.0353 C   0  0  0  0  0  0
  -26.4482  -31.6595   25.0746 C   0  0  0  0  0  0
  -25.3749  -31.3715   26.1504 C   0  0  0  0  0  0
  -27.0316  -30.3025   24.6171 C   0  0  0  0  0  0
  -27.6046  -32.4337   25.7507 C   0  0  0  0  0  0
  -27.5569  -37.1803   24.8463 C   0  0  0  0  0  0
  -21.4170  -29.3023   22.3710 N   0  0  0  0  0  0
  -26.4277  -37.3782   23.9413 N   0  0  0  0  0  0
  -24.6794  -31.0678   22.0987 N   0  0  0  0  0  0
  -23.4191  -28.8176   23.3044 O   0  0  0  0  0  0
  -28.4004  -26.6035   20.1431 O   0  0  0  0  0  0
  -26.5610  -34.8918   22.4686 O   0  0  0  0  0  0
  -23.5391  -32.1402   23.7420 O   0  0  0  0  0  0
  -29.6450  -19.4141   21.3739 C   0  0  0  0  0  0
  -30.0316  -18.1982   20.8334 C   0  0  0  0  0  0
  -29.6223  -19.6677   19.1808 C   0  0  0  0  0  0
  -31.9367  -19.6150   17.0556 C   0  0  0  0  0  0
  -30.6725  -21.4886   15.9152 C   0  0  0  0  0  0
  -30.8769  -25.1404   19.9842 C   0  0  0  0  0  0
  -30.5357  -16.9079   21.4815 C   0  0  0  0  0  0
  -29.5351  -20.2080   17.7854 C   0  0  0  0  0  0
  -29.7662  -22.8733   19.8598 C   0  0  0  0  0  0
  -28.8943  -21.7303   20.4864 C   0  0  0  0  0  0
  -28.3456  -25.1749   19.8383 C   0  0  0  0  0  0
  -30.8843  -20.7256   17.2305 C   0  0  0  0  0  0
  -29.5949  -24.3673   20.3527 C   0  0  2  0  0  0
  -29.4000  -20.3114   20.3458 N   0  0  0  0  0  0
  -29.9884  -18.4082   19.4797 N   0  3  0  0  0  0
  -29.9816  -15.6043   21.0338 N   0  0  0  0  0  0
  -31.4688  -12.4660   19.1252 H   0  0  0  0  0  0
  -30.3469  -11.3573   19.8635 H   0  0  0  0  0  0
  -29.7460  -11.7542   17.4560 H   0  0  0  0  0  0
  -29.6517  -13.4731   17.7433 H   0  0  0  0  0  0
  -27.8381  -11.3012   18.8430 H   0  0  0  0  0  0
  -27.3660  -12.6062   17.7908 H   0  0  0  0  0  0
  -27.6825  -14.2548   19.5379 H   0  0  0  0  0  0
  -28.6963  -12.0285   21.3706 H   0  0  0  0  0  0
  -28.4551  -13.6852   21.8428 H   0  0  0  0  0  0
  -25.2751   -9.5696   22.4753 H   0  0  0  0  0  0
  -24.0014   -7.4621   22.7440 H   0  0  0  0  0  0
  -21.0842   -8.8768   19.8927 H   0  0  0  0  0  0
  -22.3681  -10.9675   19.6161 H   0  0  0  0  0  0
  -21.1999   -7.6144   23.9718 H   0  0  0  0  0  0
  -21.1491   -6.0501   25.9068 H   0  0  0  0  0  0
  -22.0603   -2.7613   23.2819 H   0  0  0  0  0  0
  -22.4106  -11.9905   22.4825 H   0  0  0  0  0  0
  -21.1092  -13.1238   22.2595 H   0  0  0  0  0  0
  -24.6686  -15.8478   20.5187 H   0  0  0  0  0  0
  -26.2792  -15.6205   20.0626 H   0  0  0  0  0  0
  -26.7152  -32.5471   23.1139 H   0  0  0  0  0  0
  -25.0035  -33.9745   25.0435 H   0  0  0  0  0  0
  -22.7039  -31.3036   21.4082 H   0  0  0  0  0  0
  -23.3731  -35.9649   23.3311 H   0  0  0  0  0  0
  -24.3562  -36.8920   22.2053 H   0  0  0  0  0  0
  -23.7242  -37.6514   23.6659 H   0  0  0  0  0  0
  -26.0752  -31.5736   20.6035 H   0  0  0  0  0  0
  -26.8299  -30.8543   21.9964 H   0  0  0  0  0  0
  -28.1095  -29.0461   21.1641 H   0  0  0  0  0  0
  -26.0180  -25.9492   18.9945 H   0  0  0  0  0  0
  -23.9796  -27.2944   19.0222 H   0  0  0  0  0  0
  -23.7350  -30.5928   19.4064 H   0  0  0  0  0  0
  -22.7449  -29.2415   19.8661 H   0  0  0  0  0  0
  -25.1273  -36.1945   25.0822 H   0  0  0  0  0  0
  -20.9968  -28.3225   24.1428 H   0  0  0  0  0  0
  -20.5659  -26.2266   23.3611 H   0  0  0  0  0  0
  -21.6626  -26.7418   22.1210 H   0  0  0  0  0  0
  -19.6886  -25.6295   21.1228 H   0  0  0  0  0  0
  -19.6662  -27.3204   20.6761 H   0  0  0  0  0  0
  -17.4186  -26.6679   21.4034 H   0  0  0  0  0  0
  -18.0303  -26.0051   22.9020 H   0  0  0  0  0  0
  -19.7928  -30.7266   24.2257 H   0  0  0  0  0  0
  -17.5004  -31.6256   24.5163 H   0  0  0  0  0  0
  -15.5344  -30.2970   23.7648 H   0  0  0  0  0  0
  -15.8671  -28.0810   22.7059 H   0  0  0  0  0  0
  -24.5907  -30.7066   25.7857 H   0  0  0  0  0  0
  -24.8959  -32.2875   26.4979 H   0  0  0  0  0  0
  -25.8116  -30.8876   27.0251 H   0  0  0  0  0  0
  -26.2872  -29.6790   24.1201 H   0  0  0  0  0  0
  -27.4026  -29.7261   25.4655 H   0  0  0  0  0  0
  -27.8738  -30.4315   23.9369 H   0  0  0  0  0  0
  -27.2641  -33.3619   26.2110 H   0  0  0  0  0  0
  -28.3838  -32.6936   25.0328 H   0  0  0  0  0  0
  -28.0742  -31.8462   26.5408 H   0  0  0  0  0  0
  -28.2591  -38.0094   24.7502 H   0  0  0  0  0  0
  -28.1056  -36.2627   24.6288 H   0  0  0  0  0  0
  -27.2292  -37.1456   25.8866 H   0  0  0  0  0  0
  -20.9341  -29.8740   21.6922 H   0  0  0  0  0  0
  -26.0160  -38.2857   24.1421 H   0  0  0  0  0  0
  -29.5453  -19.7032   22.4115 H   0  0  0  0  0  0
  -32.8531  -20.0072   16.6126 H   0  0  0  0  0  0
  -31.5757  -18.8144   16.4090 H   0  0  0  0  0  0
  -32.2208  -19.1735   18.0107 H   0  0  0  0  0  0
  -31.6164  -21.8637   15.5177 H   0  0  0  0  0  0
  -30.0178  -22.3484   16.0616 H   0  0  0  0  0  0
  -30.2198  -20.8527   15.1545 H   0  0  0  0  0  0
  -31.7735  -24.6293   20.3377 H   0  0  0  0  0  0
  -30.8867  -26.1347   20.4328 H   0  0  0  0  0  0
  -30.9718  -25.2632   18.9048 H   0  0  0  0  0  0
  -30.3418  -16.9802   22.5517 H   0  0  0  0  0  0
  -31.6238  -16.9031   21.3962 H   0  0  0  0  0  0
  -28.7778  -20.9914   17.7939 H   0  0  0  0  0  0
  -29.1369  -19.4093   17.1578 H   0  0  0  0  0  0
  -29.6644  -22.8660   18.7763 H   0  0  0  0  0  0
  -30.8001  -22.5830   20.0529 H   0  0  0  0  0  0
  -27.8887  -21.7637   20.0650 H   0  0  0  0  0  0
  -28.7785  -21.9158   21.5548 H   0  0  0  0  0  0
  -27.4538  -24.7290   20.2822 H   0  0  0  0  0  0
  -28.2576  -25.0587   18.7569 H   0  0  0  0  0  0
  -31.2965  -21.4399   17.9437 H   0  0  0  0  0  0
  -29.5467  -24.3470   21.4422 H   0  0  0  0  0  0
  -30.2384  -17.7129   18.7859 H   0  0  0  0  0  0
  -29.0194  -15.4250   21.2743 H   0  0  0  0  0  0
  1 25  1  0  0  0
  1 30  2  0  0  0
  1 86  1  0  0  0
  2  3  1  0  0  0
  2 25  1  0  0  0
  2 87  1  0  0  0
  2 88  1  0  0  0
  3  4  1  0  0  0
  3 89  1  0  0  0
  3 90  1  0  0  0
  4  5  1  0  0  0
  4 91  1  0  0  0
  4 92  1  0  0  0
  5  6  1  0  0  0
  5 26  1  0  0  0
  5 93  1  0  0  0
  6 25  1  0  0  0
  6 94  1  0  0  0
  6 95  1  0  0  0
  7  8  2  0  0  0
  7 26  1  0  0  0
  7 29  1  0  0  0
  8  9  1  0  0  0
  8 22  1  0  0  0
  9 10  1  0  0  0
  9 27  2  0  0  0
 10 11  2  0  0  0
 10 15  1  0  0  0
 11 12  1  0  0  0
 11 96  1  0  0  0
 12 13  2  0  0  0
 12 97  1  0  0  0
 13 14  1  0  0  0
 13 31  1  0  0  0
 14 15  2  0  0  0
 14 98  1  0  0  0
 15 99  1  0  0  0
 16 17  2  0  0  0
 16 21  1  0  0  0
 16 31  1  0  0  0
 17 18  1  0  0  0
 17100  1  0  0  0
 18 19  2  0  0  0
 18101  1  0  0  0
 19 20  1  0  0  0
 19 24  1  0  0  0
 20 21  2  0  0  0
 20102  1  0  0  0
 21 23  1  0  0  0
 22 28  1  0  0  0
 22 32  2  0  0  0
 26 27  1  0  0  0
 28103  1  0  0  0
 28104  1  0  0  0
 29105  1  0  0  0
 29106  1  0  0  0
 33 34  1  0  0  0
 33 66  1  0  0  0
 33 70  2  0  0  0
 34 36  1  0  0  0
 34 59  1  0  0  0
 34107  1  0  0  0
 35 44  2  0  0  0
 35 45  1  0  0  0
 35 68  1  0  0  0
 36 56  1  0  0  0
 36108  1  0  0  0
 37 39  1  0  0  0
 37 47  1  0  0  0
 37 66  1  0  0  0
 37109  1  0  0  0
 38 43  2  0  0  0
 38 46  1  0  0  0
 38 47  1  0  0  0
 39 64  1  0  0  0
 39 67  2  0  0  0
 40 52  1  0  0  0
 40 53  2  0  0  0
 40 58  1  0  0  0
 41110  1  0  0  0
 41111  1  0  0  0
 41112  1  0  0  0
 41 48  1  0  0  0
 42 43  1  0  0  0
 42 66  1  0  0  0
 42113  1  0  0  0
 42114  1  0  0  0
 43 44  1  0  0  0
 44115  1  0  0  0
 45 46  2  0  0  0
 45116  1  0  0  0
 46117  1  0  0  0
 47118  1  0  0  0
 47119  1  0  0  0
 48 56  1  0  0  0
 48 65  1  0  0  0
 48120  1  0  0  0
 49 50  1  0  0  0
 49 53  1  0  0  0
 49 64  1  0  0  0
 49121  1  0  0  0
 50 51  1  0  0  0
 50122  1  0  0  0
 50123  1  0  0  0
 51 52  1  0  0  0
 51124  1  0  0  0
 51125  1  0  0  0
 52126  1  0  0  0
 52127  1  0  0  0
 53 54  1  0  0  0
 54 55  2  0  0  0
 54128  1  0  0  0
 55 57  1  0  0  0
 55129  1  0  0  0
 56 69  2  0  0  0
 57 58  2  0  0  0
 57130  1  0  0  0
 58131  1  0  0  0
 59 60  1  0  0  0
 59 61  1  0  0  0
 59 62  1  0  0  0
 60132  1  0  0  0
 60133  1  0  0  0
 60134  1  0  0  0
 61135  1  0  0  0
 61136  1  0  0  0
 61137  1  0  0  0
 62138  1  0  0  0
 62139  1  0  0  0
 62140  1  0  0  0
 63 65  1  0  0  0
 63141  1  0  0  0
 63142  1  0  0  0
 63143  1  0  0  0
 64144  1  0  0  0
 65145  1  0  0  0
 68 81  1  0  0  0
 71 72  2  0  0  0
 71 84  1  0  0  0
 71146  1  0  0  0
 72 77  1  0  0  0
 72 85  1  0  0  0
 73 78  1  0  0  0
 73 84  1  0  0  0
 73 85  2  0  0  0
 74147  1  0  0  0
 74148  1  0  0  0
 74149  1  0  0  0
 74 82  1  0  0  0
 75 82  1  0  0  0
 75150  1  0  0  0
 75151  1  0  0  0
 75152  1  0  0  0
 76153  1  0  0  0
 76154  1  0  0  0
 76155  1  0  0  0
 76 83  1  0  0  0
 77 86  1  0  0  0
 77156  1  0  0  0
 77157  1  0  0  0
 78 82  1  0  0  0
 78158  1  0  0  0
 78159  1  0  0  0
 79 80  1  0  0  0
 79 83  1  0  0  0
 79160  1  0  0  0
 79161  1  0  0  0
 80 84  1  0  0  0
 80162  1  0  0  0
 80163  1  0  0  0
 81 83  1  0  0  0
 81164  1  0  0  0
 81165  1  0  0  0
 82166  1  0  0  0
 83167  1  0  0  0
 85168  1  0  0  0
 86169  1  0  0  0
M  CHG  1  85   1
M  ISO  4   1 100  68 101  81 101  86 100
M  END
> <chiral flag>
0

> <version>
0

> <s_m_source_file>
/data/baiqing/PycharmProjects/Reinvent-master-3.2/result/LINK_invent/BTK/process_docking_weight1_custom_sum_contain_oxygen_bond_distance_aromatic_linkinvent_7_9_3/rearranged_h_0093.sdf

> <i_m_source_file_index>
63

> <r_mmod_Potential_Energy-OPLS-2005>
-128.801040649414

> <r_mmod_Stretch_Energy-OPLS-2005>
55.2165985107422

> <r_mmod_Bend_Energy-OPLS-2005>
123.359222412109

> <r_mmod_Torsional_Energy-OPLS-2005>
226.743988037109

> <r_mmod_Improper_Torsional_Energy-OPLS-2005>
3.6753613948822

> <r_mmod_Van_der_Waal_Energy-OPLS-2005>
118.812240600586

> <r_mmod_Electrostatic_Energy-OPLS-2005>
-272.555114746094

> <r_mmod_Solvation_Energy-OPLS-2005>
-410.396514892578

> <b_mmod_Minimization_Converged-OPLS-2005>
0

> <r_mmod_RMS_Derivative-OPLS-2005>
1.59933090209961

$$$$
63
                    3D
 Structure written by MMmdl.
164172  0  0  1  0            999 V2000
  -30.4664  -15.2895   20.4033 C   0  0  0  0  0  0
  -30.4299  -12.8391   19.5145 C   0  0  0  0  0  0
  -29.5282  -12.5804   18.2831 C   0  0  0  0  0  0
  -28.0842  -12.2959   18.7259 C   0  0  0  0  0  0
  -27.6067  -13.2819   19.8205 C   0  0  2  0  0  0
  -28.6427  -13.4853   20.9467 C   0  0  0  0  0  0
  -25.2370  -13.8255   20.5790 C   0  0  0  0  0  0
  -24.1728  -13.0424   20.9267 C   0  0  0  0  0  0
  -24.6395  -11.6930   20.8764 C   0  0  0  0  0  0
  -23.9091  -10.4282   21.0403 C   0  0  0  0  0  0
  -24.3630   -9.4196   21.9185 C   0  0  0  0  0  0
  -23.6293   -8.2236   22.0753 C   0  0  0  0  0  0
  -22.4280   -8.0272   21.3541 C   0  0  0  0  0  0
  -21.9918   -9.0252   20.4649 C   0  0  0  0  0  0
  -22.7256  -10.2125   20.3059 C   0  0  0  0  0  0
  -21.6852   -6.0724   22.5269 C   0  0  0  0  0  0
  -21.4019   -6.5630   23.8201 C   0  0  0  0  0  0
  -21.3664   -5.6786   24.9166 C   0  0  0  0  0  0
  -21.6044   -4.3046   24.7222 C   0  0  0  0  0  0
  -21.8819   -3.8135   23.4347 C   0  0  0  0  0  0
  -21.9192   -4.6948   22.3398 C   0  0  0  0  0  0
  -22.7746  -13.5174   21.1911 C   0  0  0  0  0  0
  -22.1663   -4.2134   21.0978 F   0  0  0  0  0  0
  -21.5626   -3.4532   25.7740 F   0  0  0  0  0  0
  -29.8623  -13.9999   20.3013 N   0  0  0  0  0  0
  -26.2801  -12.9547   20.3254 N   0  0  0  0  0  0
  -25.9337  -11.6640   20.5730 N   0  0  0  0  0  0
  -22.0414  -12.8159   22.0469 N   0  0  0  0  0  0
  -25.4001  -15.1989   20.4279 N   0  0  0  0  0  0
  -31.6942  -15.2132   20.2226 O   0  0  0  0  0  0
  -21.6638   -6.8870   21.4234 O   0  0  0  0  0  0
  -22.3431  -14.5478   20.6747 O   0  0  0  0  0  0
  -24.6628  -31.8228   23.1718 C   0  0  0  0  0  0
  -25.9308  -32.4586   23.8185 C   0  0  1  0  0  0
  -27.2103  -26.9203   20.1954 C   0  0  0  0  0  0
  -25.5977  -33.8400   24.2095 N   0  0  0  0  0  0
  -23.4802  -30.4357   21.5180 C   0  0  2  0  0  0
  -24.9335  -28.8220   20.1095 C   0  0  0  0  0  0
  -22.7672  -29.4429   22.4748 C   0  0  0  0  0  0
  -18.0313  -28.1406   22.8451 C   0  0  0  0  0  0
  -24.1509  -36.7214   23.2651 C   0  0  0  0  0  0
  -26.0489  -30.6250   21.4080 C   0  0  0  0  0  0
  -26.1146  -29.2160   20.7511 C   0  0  0  0  0  0
  -27.2472  -28.2837   20.7707 C   0  0  0  0  0  0
  -26.0041  -26.6790   19.5005 C   0  0  0  0  0  0
  -24.9031  -27.5747   19.4647 C   0  0  0  0  0  0
  -23.7246  -29.7565   20.1422 C   0  0  0  0  0  0
  -25.4149  -36.2972   24.0305 C   0  0  1  0  0  0
  -20.5946  -28.3763   23.1168 C   0  0  2  0  0  0
  -20.6810  -26.9441   22.5398 C   0  0  0  0  0  0
  -19.5784  -26.6374   21.5212 C   0  0  0  0  0  0
  -18.1952  -26.7938   22.1607 C   0  0  0  0  0  0
  -19.1580  -28.8899   23.2800 C   0  0  0  0  0  0
  -18.9497  -30.1482   23.8851 C   0  0  0  0  0  0
  -17.6494  -30.6597   24.0552 C   0  0  0  0  0  0
  -25.9106  -34.9340   23.5030 C   0  0  0  0  0  0
  -16.5378  -29.9093   23.6336 C   0  0  0  0  0  0
  -16.7299  -28.6510   23.0362 C   0  0  0  0  0  0
  -26.4567  -31.6524   25.0708 C   0  0  0  0  0  0
  -25.3691  -31.3733   26.1361 C   0  0  0  0  0  0
  -27.0473  -30.2890   24.6442 C   0  0  0  0  0  0
  -27.6081  -32.4330   25.7468 C   0  0  0  0  0  0
  -27.5591  -37.1757   24.8463 C   0  0  0  0  0  0
  -21.4343  -29.3054   22.3515 N   0  0  0  0  0  0
  -26.4298  -37.3704   23.9409 N   0  0  0  0  0  0
  -24.7511  -30.9876   22.0867 N   0  0  0  0  0  0
  -23.4208  -28.7977   23.2985 O   0  0  0  0  0  0
  -28.2057  -25.8132   20.2999 O   0  0  0  0  0  0
  -26.5729  -34.8865   22.4630 O   0  0  0  0  0  0
  -23.5695  -32.1212   23.6800 O   0  0  0  0  0  0
  -30.5848  -20.4127   21.8550 C   0  0  0  0  0  0
  -31.5957  -19.9301   22.6814 C   0  0  0  0  0  0
  -29.8099  -19.6428   20.9474 C   0  0  0  0  0  0
  -31.8796  -18.5740   22.6099 C   0  0  0  0  0  0
  -30.1816  -18.0792   20.9709 C   0  0  0  0  0  0
  -32.9596  -17.9228   23.4536 C   0  0  0  0  0  0
  -33.0288  -22.9102   22.2269 C   0  0  0  0  0  0
  -34.5762  -21.9930   23.9876 C   0  0  0  0  0  0
  -32.3213  -20.8856   23.6264 C   0  0  0  0  0  0
  -28.8076  -20.8905   20.2473 C   0  0  0  0  0  0
  -28.8731  -22.6961   20.5635 C   0  0  0  0  0  0
  -27.9876  -24.1912   20.0651 C   0  0  0  0  0  0
  -33.4925  -21.6390   22.9584 C   0  0  0  0  0  0
  -31.1967  -17.7524   21.8078 N   0  0  0  0  0  0
  -29.7705  -16.6220   20.4276 N   0  0  0  0  0  0
  -31.4457  -13.0400   19.1724 H   0  0  0  0  0  0
  -30.5052  -11.9453   20.1354 H   0  0  0  0  0  0
  -29.9135  -11.7445   17.6968 H   0  0  0  0  0  0
  -29.5486  -13.4522   17.6276 H   0  0  0  0  0  0
  -28.0619  -11.2811   19.1241 H   0  0  0  0  0  0
  -27.4075  -12.3080   17.8710 H   0  0  0  0  0  0
  -27.5106  -14.2409   19.3103 H   0  0  0  0  0  0
  -28.8245  -12.5625   21.4989 H   0  0  0  0  0  0
  -28.2805  -14.2162   21.6710 H   0  0  0  0  0  0
  -25.2768   -9.5660   22.4773 H   0  0  0  0  0  0
  -23.9979   -7.4630   22.7491 H   0  0  0  0  0  0
  -21.0834   -8.8786   19.8975 H   0  0  0  0  0  0
  -22.3706  -10.9669   19.6175 H   0  0  0  0  0  0
  -21.2021   -7.6142   23.9697 H   0  0  0  0  0  0
  -21.1487   -6.0523   25.9066 H   0  0  0  0  0  0
  -22.0598   -2.7597   23.2852 H   0  0  0  0  0  0
  -22.4037  -11.9819   22.4848 H   0  0  0  0  0  0
  -21.1042  -13.1193   22.2704 H   0  0  0  0  0  0
  -24.6305  -15.8496   20.5476 H   0  0  0  0  0  0
  -26.2494  -15.6458   20.1082 H   0  0  0  0  0  0
  -26.7370  -32.5113   23.0888 H   0  0  0  0  0  0
  -25.0044  -33.9480   25.0194 H   0  0  0  0  0  0
  -22.7964  -31.2692   21.3483 H   0  0  0  0  0  0
  -23.3787  -35.9525   23.3262 H   0  0  0  0  0  0
  -24.3595  -36.8924   22.2076 H   0  0  0  0  0  0
  -23.7235  -37.6375   23.6743 H   0  0  0  0  0  0
  -26.2392  -31.3678   20.6320 H   0  0  0  0  0  0
  -26.9043  -30.6775   22.0682 H   0  0  0  0  0  0
  -28.1370  -28.5742   21.3122 H   0  0  0  0  0  0
  -25.8776  -25.7246   19.0109 H   0  0  0  0  0  0
  -24.0033  -27.2695   18.9477 H   0  0  0  0  0  0
  -23.8974  -30.5320   19.3946 H   0  0  0  0  0  0
  -22.8325  -29.2242   19.8102 H   0  0  0  0  0  0
  -25.1332  -36.1794   25.0798 H   0  0  0  0  0  0
  -21.0029  -28.3393   24.1295 H   0  0  0  0  0  0
  -20.5722  -26.2376   23.3645 H   0  0  0  0  0  0
  -21.6674  -26.7441   22.1187 H   0  0  0  0  0  0
  -19.6962  -25.6273   21.1287 H   0  0  0  0  0  0
  -19.6737  -27.3154   20.6716 H   0  0  0  0  0  0
  -17.4239  -26.6681   21.3998 H   0  0  0  0  0  0
  -18.0327  -26.0091   22.9011 H   0  0  0  0  0  0
  -19.7986  -30.7287   24.2228 H   0  0  0  0  0  0
  -17.5059  -31.6277   24.5163 H   0  0  0  0  0  0
  -15.5383  -30.2985   23.7695 H   0  0  0  0  0  0
  -15.8695  -28.0815   22.7113 H   0  0  0  0  0  0
  -24.5899  -30.7081   25.7632 H   0  0  0  0  0  0
  -24.8845  -32.2905   26.4707 H   0  0  0  0  0  0
  -25.7910  -30.8932   27.0204 H   0  0  0  0  0  0
  -26.3142  -29.6521   24.1481 H   0  0  0  0  0  0
  -27.4047  -29.7283   25.5087 H   0  0  0  0  0  0
  -27.9069  -30.4063   23.9839 H   0  0  0  0  0  0
  -27.2716  -33.3716   26.1873 H   0  0  0  0  0  0
  -28.3949  -32.6749   25.0314 H   0  0  0  0  0  0
  -28.0688  -31.8573   26.5506 H   0  0  0  0  0  0
  -28.2561  -38.0097   24.7552 H   0  0  0  0  0  0
  -28.1138  -36.2620   24.6254 H   0  0  0  0  0  0
  -27.2311  -37.1352   25.8866 H   0  0  0  0  0  0
  -20.9595  -29.8790   21.6687 H   0  0  0  0  0  0
  -26.0158  -38.2771   24.1431 H   0  0  0  0  0  0
  -30.4216  -21.4663   21.9674 H   0  0  0  0  0  0
  -33.8929  -18.4824   23.3900 H   0  0  0  0  0  0
  -33.1626  -16.9021   23.1270 H   0  0  0  0  0  0
  -32.6534  -17.8861   24.4995 H   0  0  0  0  0  0
  -33.8732  -23.4318   21.7742 H   0  0  0  0  0  0
  -32.5415  -23.6063   22.9106 H   0  0  0  0  0  0
  -32.3275  -22.6835   21.4244 H   0  0  0  0  0  0
  -35.4024  -22.5300   23.5205 H   0  0  0  0  0  0
  -34.9922  -21.0967   24.4486 H   0  0  0  0  0  0
  -34.1799  -22.6251   24.7835 H   0  0  0  0  0  0
  -32.6810  -20.3260   24.4901 H   0  0  0  0  0  0
  -31.6069  -21.5976   24.0440 H   0  0  0  0  0  0
  -27.7851  -20.5787   20.4615 H   0  0  0  0  0  0
  -28.9079  -20.7673   19.1690 H   0  0  0  0  0  0
  -29.9105  -22.9579   20.3582 H   0  0  0  0  0  0
  -28.7797  -22.7621   21.6473 H   0  0  0  0  0  0
  -26.9670  -24.0199   20.4110 H   0  0  0  0  0  0
  -27.9128  -24.1125   18.9793 H   0  0  0  0  0  0
  -33.9623  -20.9741   22.2309 H   0  0  0  0  0  0
  -28.7904  -16.5519   20.2038 H   0  0  0  0  0  0
  1 25  1  0  0  0
  1 30  2  0  0  0
  1 85  1  0  0  0
  2  3  1  0  0  0
  2 25  1  0  0  0
  2 86  1  0  0  0
  2 87  1  0  0  0
  3  4  1  0  0  0
  3 88  1  0  0  0
  3 89  1  0  0  0
  4  5  1  0  0  0
  4 90  1  0  0  0
  4 91  1  0  0  0
  5  6  1  0  0  0
  5 26  1  0  0  0
  5 92  1  0  0  0
  6 25  1  0  0  0
  6 93  1  0  0  0
  6 94  1  0  0  0
  7  8  2  0  0  0
  7 26  1  0  0  0
  7 29  1  0  0  0
  8  9  1  0  0  0
  8 22  1  0  0  0
  9 10  1  0  0  0
  9 27  2  0  0  0
 10 11  2  0  0  0
 10 15  1  0  0  0
 11 12  1  0  0  0
 11 95  1  0  0  0
 12 13  2  0  0  0
 12 96  1  0  0  0
 13 14  1  0  0  0
 13 31  1  0  0  0
 14 15  2  0  0  0
 14 97  1  0  0  0
 15 98  1  0  0  0
 16 17  2  0  0  0
 16 21  1  0  0  0
 16 31  1  0  0  0
 17 18  1  0  0  0
 17 99  1  0  0  0
 18 19  2  0  0  0
 18100  1  0  0  0
 19 20  1  0  0  0
 19 24  1  0  0  0
 20 21  2  0  0  0
 20101  1  0  0  0
 21 23  1  0  0  0
 22 28  1  0  0  0
 22 32  2  0  0  0
 26 27  1  0  0  0
 28102  1  0  0  0
 28103  1  0  0  0
 29104  1  0  0  0
 29105  1  0  0  0
 33 34  1  0  0  0
 33 66  1  0  0  0
 33 70  2  0  0  0
 34 36  1  0  0  0
 34 59  1  0  0  0
 34106  1  0  0  0
 35 44  2  0  0  0
 35 45  1  0  0  0
 35 68  1  0  0  0
 36 56  1  0  0  0
 36107  1  0  0  0
 37 39  1  0  0  0
 37 47  1  0  0  0
 37 66  1  0  0  0
 37108  1  0  0  0
 38 43  2  0  0  0
 38 46  1  0  0  0
 38 47  1  0  0  0
 39 64  1  0  0  0
 39 67  2  0  0  0
 40 52  1  0  0  0
 40 53  2  0  0  0
 40 58  1  0  0  0
 41109  1  0  0  0
 41110  1  0  0  0
 41111  1  0  0  0
 41 48  1  0  0  0
 42 43  1  0  0  0
 42 66  1  0  0  0
 42112  1  0  0  0
 42113  1  0  0  0
 43 44  1  0  0  0
 44114  1  0  0  0
 45 46  2  0  0  0
 45115  1  0  0  0
 46116  1  0  0  0
 47117  1  0  0  0
 47118  1  0  0  0
 48 56  1  0  0  0
 48 65  1  0  0  0
 48119  1  0  0  0
 49 50  1  0  0  0
 49 53  1  0  0  0
 49 64  1  0  0  0
 49120  1  0  0  0
 50 51  1  0  0  0
 50121  1  0  0  0
 50122  1  0  0  0
 51 52  1  0  0  0
 51123  1  0  0  0
 51124  1  0  0  0
 52125  1  0  0  0
 52126  1  0  0  0
 53 54  1  0  0  0
 54 55  2  0  0  0
 54127  1  0  0  0
 55 57  1  0  0  0
 55128  1  0  0  0
 56 69  2  0  0  0
 57 58  2  0  0  0
 57129  1  0  0  0
 58130  1  0  0  0
 59 60  1  0  0  0
 59 61  1  0  0  0
 59 62  1  0  0  0
 60131  1  0  0  0
 60132  1  0  0  0
 60133  1  0  0  0
 61134  1  0  0  0
 61135  1  0  0  0
 61136  1  0  0  0
 62137  1  0  0  0
 62138  1  0  0  0
 62139  1  0  0  0
 63 65  1  0  0  0
 63140  1  0  0  0
 63141  1  0  0  0
 63142  1  0  0  0
 64143  1  0  0  0
 65144  1  0  0  0
 68 82  1  0  0  0
 71 72  2  0  0  0
 71 73  1  0  0  0
 71145  1  0  0  0
 72 74  1  0  0  0
 72 79  1  0  0  0
 73 75  2  0  0  0
 73 80  1  0  0  0
 74 76  1  0  0  0
 74 84  2  0  0  0
 75 84  1  0  0  0
 75 85  1  0  0  0
 76146  1  0  0  0
 76147  1  0  0  0
 76148  1  0  0  0
 77149  1  0  0  0
 77150  1  0  0  0
 77151  1  0  0  0
 77 83  1  0  0  0
 78 83  1  0  0  0
 78152  1  0  0  0
 78153  1  0  0  0
 78154  1  0  0  0
 79 83  1  0  0  0
 79155  1  0  0  0
 79156  1  0  0  0
 80 81  1  0  0  0
 80157  1  0  0  0
 80158  1  0  0  0
 81 82  1  0  0  0
 81159  1  0  0  0
 81160  1  0  0  0
 82161  1  0  0  0
 82162  1  0  0  0
 83163  1  0  0  0
 85164  1  0  0  0
M  ISO  4   1 100  68 101  82 101  85 100
M  END
> <chiral flag>
0

> <version>
0

> <s_m_source_file>
/data/baiqing/PycharmProjects/Reinvent-master-3.2/result/LINK_invent/BTK/process_docking_weight1_custom_sum_contain_oxygen_bond_distance_aromatic_linkinvent_7_9_3/rearranged_h_0093.sdf

> <i_m_source_file_index>
64

> <r_mmod_Potential_Energy-OPLS-2005>
1351.2685546875

> <r_mmod_Stretch_Energy-OPLS-2005>
666.201904296875

> <r_mmod_Bend_Energy-OPLS-2005>
576.316833496094

> <r_mmod_Torsional_Energy-OPLS-2005>
219.83268737793

> <r_mmod_Improper_Torsional_Energy-OPLS-2005>
6.93734121322632

> <r_mmod_Van_der_Waal_Energy-OPLS-2005>
140.857086181641

> <r_mmod_Electrostatic_Energy-OPLS-2005>
-504.506774902344

> <r_mmod_Solvation_Energy-OPLS-2005>
-231.392440795898

> <b_mmod_Minimization_Converged-OPLS-2005>
0

> <r_mmod_RMS_Derivative-OPLS-2005>
2.05043721199036

$$$$
64
                    3D
 Structure written by MMmdl.
178186  0  0  1  0            999 V2000
  -30.5163  -14.8833   20.3167 C   0  0  0  0  0  0
  -30.4620  -12.5073   19.4990 C   0  0  0  0  0  0
  -29.5326  -12.4314   18.2619 C   0  0  0  0  0  0
  -28.0472  -12.2886   18.6712 C   0  0  0  0  0  0
  -27.6331  -13.2008   19.8580 C   0  0  2  0  0  0
  -28.6943  -13.2121   20.9764 C   0  0  0  0  0  0
  -25.2540  -13.8066   20.5747 C   0  0  0  0  0  0
  -24.1763  -13.0376   20.9141 C   0  0  0  0  0  0
  -24.6324  -11.6839   20.8760 C   0  0  0  0  0  0
  -23.8999  -10.4253   21.0425 C   0  0  0  0  0  0
  -24.3575   -9.4180   21.9198 C   0  0  0  0  0  0
  -23.6266   -8.2213   22.0751 C   0  0  0  0  0  0
  -22.4251   -8.0253   21.3538 C   0  0  0  0  0  0
  -21.9875   -9.0223   20.4640 C   0  0  0  0  0  0
  -22.7186  -10.2106   20.3060 C   0  0  0  0  0  0
  -21.6838   -6.0721   22.5280 C   0  0  0  0  0  0
  -21.4001   -6.5630   23.8212 C   0  0  0  0  0  0
  -21.3658   -5.6787   24.9177 C   0  0  0  0  0  0
  -21.6049   -4.3051   24.7228 C   0  0  0  0  0  0
  -21.8823   -3.8137   23.4349 C   0  0  0  0  0  0
  -21.9189   -4.6951   22.3405 C   0  0  0  0  0  0
  -22.7813  -13.5222   21.1815 C   0  0  0  0  0  0
  -22.1658   -4.2140   21.0983 F   0  0  0  0  0  0
  -21.5636   -3.4536   25.7742 F   0  0  0  0  0  0
  -29.9826  -13.6013   20.3799 N   0  0  0  0  0  0
  -26.2934  -12.9179   20.3476 N   0  0  0  0  0  0
  -25.9270  -11.6372   20.5899 N   0  0  0  0  0  0
  -22.0433  -12.8244   22.0368 N   0  0  0  0  0  0
  -25.4431  -15.1798   20.4257 N   0  0  0  0  0  0
  -31.7361  -14.9884   20.1477 O   0  0  0  0  0  0
  -21.6618   -6.8855   21.4237 O   0  0  0  0  0  0
  -22.3579  -14.5584   20.6711 O   0  0  0  0  0  0
  -24.6336  -31.8501   23.1928 C   0  0  0  0  0  0
  -25.9148  -32.4724   23.8292 C   0  0  1  0  0  0
  -27.2389  -27.2301   20.1345 C   0  0  0  0  0  0
  -25.5929  -33.8531   24.2215 N   0  0  0  0  0  0
  -23.4333  -30.4674   21.5358 C   0  0  2  0  0  0
  -24.8849  -28.9032   20.1076 C   0  0  0  0  0  0
  -22.7514  -29.4569   22.4896 C   0  0  0  0  0  0
  -18.0291  -28.1396   22.8483 C   0  0  0  0  0  0
  -24.1487  -36.7268   23.2639 C   0  0  0  0  0  0
  -25.9792  -30.7522   21.3770 C   0  0  0  0  0  0
  -26.0531  -29.3702   20.7211 C   0  0  0  0  0  0
  -27.2248  -28.5444   20.7254 C   0  0  0  0  0  0
  -26.0437  -26.8302   19.4966 C   0  0  0  0  0  0
  -24.8871  -27.6426   19.4854 C   0  0  0  0  0  0
  -23.6542  -29.7922   20.1545 C   0  0  0  0  0  0
  -25.4116  -36.3051   24.0320 C   0  0  1  0  0  0
  -20.5897  -28.3708   23.1272 C   0  0  2  0  0  0
  -20.6777  -26.9420   22.5425 C   0  0  0  0  0  0
  -19.5756  -26.6387   21.5224 C   0  0  0  0  0  0
  -18.1931  -26.7940   22.1619 C   0  0  0  0  0  0
  -19.1545  -28.8868   23.2872 C   0  0  0  0  0  0
  -18.9465  -30.1467   23.8896 C   0  0  0  0  0  0
  -17.6463  -30.6594   24.0566 C   0  0  0  0  0  0
  -25.9062  -34.9425   23.5074 C   0  0  0  0  0  0
  -16.5355  -29.9091   23.6336 C   0  0  0  0  0  0
  -16.7277  -28.6508   23.0357 C   0  0  0  0  0  0
  -26.4503  -31.6574   25.0703 C   0  0  0  0  0  0
  -25.3717  -31.3751   26.1421 C   0  0  0  0  0  0
  -27.0350  -30.2980   24.6225 C   0  0  0  0  0  0
  -27.6051  -32.4323   25.7476 C   0  0  0  0  0  0
  -27.5583  -37.1777   24.8453 C   0  0  0  0  0  0
  -21.4216  -29.3041   22.3647 N   0  0  0  0  0  0
  -26.4279  -37.3765   23.9418 N   0  0  0  0  0  0
  -24.7012  -31.0434   22.0916 N   0  0  0  0  0  0
  -23.4193  -28.8131   23.3031 O   0  0  0  0  0  0
  -28.3554  -26.3557   20.2443 O   0  0  0  0  0  0
  -26.5649  -34.8912   22.4655 O   0  0  0  0  0  0
  -23.5481  -32.1341   23.7205 O   0  0  0  0  0  0
  -29.0925  -20.0141   21.3433 C   0  0  0  0  0  0
  -30.4348  -18.6373   19.3670 C   0  0  0  0  0  0
  -29.1751  -18.5681   21.3756 C   0  0  0  0  0  0
  -29.6159  -20.8407   20.3020 C   0  0  0  0  0  0
  -29.8239  -17.7933   20.3496 C   0  0  0  0  0  0
  -30.3141  -20.0776   19.2990 C   0  0  0  0  0  0
  -26.9964  -17.8409   22.4505 C   0  0  0  0  0  0
  -30.8280  -20.0379   16.7643 C   0  0  0  0  0  0
  -32.8523  -22.4119   17.4916 C   0  0  0  0  0  0
  -33.4448  -20.1297   18.4223 C   0  0  0  0  0  0
  -28.5238  -17.8772   22.5640 C   0  0  0  0  0  0
  -29.6324  -22.4691   20.3814 C   0  0  0  0  0  0
  -28.3648  -23.4955   20.2440 C   0  0  0  0  0  0
  -29.0520  -16.1488   18.5890 C   0  0  0  0  0  0
  -28.5087  -25.0003   19.5840 C   0  0  0  0  0  0
  -29.5457  -16.1998   20.0710 C   0  0  1  0  0  0
  -30.9579  -20.7978   18.1032 C   0  0  2  0  0  0
  -32.4060  -21.2659   18.4153 C   0  0  0  0  0  0
  -27.8111  -16.9260   18.3627 N   0  3  0  0  0  0
  -31.4939  -12.6652   19.1809 H   0  0  0  0  0  0
  -30.4597  -11.5593   20.0392 H   0  0  0  0  0  0
  -29.8188  -11.5757   17.6489 H   0  0  0  0  0  0
  -29.6855  -13.2936   17.6170 H   0  0  0  0  0  0
  -27.8994  -11.2461   18.9558 H   0  0  0  0  0  0
  -27.3957  -12.4583   17.8134 H   0  0  0  0  0  0
  -27.5588  -14.1999   19.4611 H   0  0  0  0  0  0
  -28.7700  -12.2295   21.4444 H   0  0  0  0  0  0
  -28.4144  -13.9036   21.7724 H   0  0  0  0  0  0
  -25.2719   -9.5667   22.4773 H   0  0  0  0  0  0
  -23.9976   -7.4603   22.7470 H   0  0  0  0  0  0
  -21.0803   -8.8732   19.8948 H   0  0  0  0  0  0
  -22.3640  -10.9647   19.6170 H   0  0  0  0  0  0
  -21.1983   -7.6137   23.9714 H   0  0  0  0  0  0
  -21.1479   -6.0515   25.9081 H   0  0  0  0  0  0
  -22.0605   -2.7599   23.2851 H   0  0  0  0  0  0
  -22.3990  -11.9859   22.4713 H   0  0  0  0  0  0
  -21.1076  -13.1325   22.2598 H   0  0  0  0  0  0
  -24.6128  -15.7117   20.6670 H   0  0  0  0  0  0
  -26.2250  -15.5070   20.9761 H   0  0  0  0  0  0
  -26.7214  -32.5360   23.1031 H   0  0  0  0  0  0
  -25.0059  -33.9661   25.0348 H   0  0  0  0  0  0
  -22.7321  -31.2905   21.3837 H   0  0  0  0  0  0
  -23.3762  -35.9584   23.3262 H   0  0  0  0  0  0
  -24.3586  -36.8938   22.2063 H   0  0  0  0  0  0
  -23.7218  -37.6444   23.6699 H   0  0  0  0  0  0
  -26.1212  -31.5095   20.6050 H   0  0  0  0  0  0
  -26.8554  -30.8043   22.0118 H   0  0  0  0  0  0
  -28.1155  -28.8965   21.2266 H   0  0  0  0  0  0
  -25.9673  -25.8566   19.0367 H   0  0  0  0  0  0
  -23.9897  -27.2747   19.0068 H   0  0  0  0  0  0
  -23.7783  -30.5647   19.3949 H   0  0  0  0  0  0
  -22.7729  -29.2241   19.8517 H   0  0  0  0  0  0
  -25.1299  -36.1881   25.0812 H   0  0  0  0  0  0
  -20.9989  -28.3297   24.1394 H   0  0  0  0  0  0
  -20.5674  -26.2322   23.3636 H   0  0  0  0  0  0
  -21.6646  -26.7438   22.1222 H   0  0  0  0  0  0
  -19.6918  -25.6296   21.1262 H   0  0  0  0  0  0
  -19.6704  -27.3194   20.6754 H   0  0  0  0  0  0
  -17.4211  -26.6708   21.4010 H   0  0  0  0  0  0
  -18.0306  -26.0077   22.9007 H   0  0  0  0  0  0
  -19.7942  -30.7286   24.2264 H   0  0  0  0  0  0
  -17.5018  -31.6276   24.5166 H   0  0  0  0  0  0
  -15.5357  -30.2994   23.7664 H   0  0  0  0  0  0
  -15.8674  -28.0828   22.7080 H   0  0  0  0  0  0
  -24.5901  -30.7080   25.7762 H   0  0  0  0  0  0
  -24.8893  -32.2928   26.4797 H   0  0  0  0  0  0
  -25.8025  -30.8972   27.0227 H   0  0  0  0  0  0
  -26.2939  -29.6719   24.1239 H   0  0  0  0  0  0
  -27.3996  -29.7258   25.4767 H   0  0  0  0  0  0
  -27.8833  -30.4229   23.9492 H   0  0  0  0  0  0
  -27.2658  -33.3637   26.2022 H   0  0  0  0  0  0
  -28.3879  -32.6862   25.0316 H   0  0  0  0  0  0
  -28.0700  -31.8467   26.5419 H   0  0  0  0  0  0
  -28.2565  -38.0109   24.7550 H   0  0  0  0  0  0
  -28.1113  -36.2644   24.6205 H   0  0  0  0  0  0
  -27.2315  -37.1334   25.8857 H   0  0  0  0  0  0
  -20.9413  -29.8742   21.6825 H   0  0  0  0  0  0
  -26.0146  -38.2823   24.1462 H   0  0  0  0  0  0
  -28.6008  -20.5115   22.1681 H   0  0  0  0  0  0
  -30.9849  -18.1495   18.5789 H   0  0  0  0  0  0
  -26.5560  -17.3032   23.2905 H   0  0  0  0  0  0
  -26.6795  -17.3504   21.5328 H   0  0  0  0  0  0
  -26.5772  -18.8477   22.4474 H   0  0  0  0  0  0
  -29.7918  -19.7570   16.5757 H   0  0  0  0  0  0
  -31.4315  -19.1325   16.7211 H   0  0  0  0  0  0
  -31.1422  -20.6644   15.9298 H   0  0  0  0  0  0
  -33.8267  -22.7987   17.7911 H   0  0  0  0  0  0
  -32.1499  -23.2454   17.5247 H   0  0  0  0  0  0
  -32.9352  -22.0872   16.4544 H   0  0  0  0  0  0
  -34.4219  -20.4983   18.7357 H   0  0  0  0  0  0
  -33.5699  -19.6852   17.4354 H   0  0  0  0  0  0
  -33.1654  -19.3364   19.1152 H   0  0  0  0  0  0
  -28.8032  -18.4143   23.4717 H   0  0  0  0  0  0
  -28.9249  -16.8726   22.6970 H   0  0  0  0  0  0
  -30.3902  -22.8419   19.6985 H   0  0  0  0  0  0
  -30.0792  -22.6887   21.3514 H   0  0  0  0  0  0
  -27.8465  -23.5633   21.2004 H   0  0  0  0  0  0
  -27.6557  -22.9764   19.5983 H   0  0  0  0  0  0
  -28.8822  -15.1454   18.2272 H   0  0  0  0  0  0
  -29.8214  -16.5129   17.9109 H   0  0  0  0  0  0
  -27.9180  -25.0085   18.6688 H   0  0  0  0  0  0
  -29.5255  -25.0353   19.1928 H   0  0  0  0  0  0
  -28.6775  -15.9649   20.6802 H   0  0  0  0  0  0
  -30.3508  -21.6859   17.9319 H   0  0  0  0  0  0
  -32.3983  -21.6853   19.4222 H   0  0  0  0  0  0
  -27.0195  -16.5279   18.8407 H   0  0  0  0  0  0
  -27.5938  -16.9483   17.3809 H   0  0  0  0  0  0
  -27.9356  -17.8746   18.6766 H   0  0  0  0  0  0
  1 25  1  0  0  0
  1 30  2  0  0  0
  1 86  1  0  0  0
  2  3  1  0  0  0
  2 25  1  0  0  0
  2 90  1  0  0  0
  2 91  1  0  0  0
  3  4  1  0  0  0
  3 92  1  0  0  0
  3 93  1  0  0  0
  4  5  1  0  0  0
  4 94  1  0  0  0
  4 95  1  0  0  0
  5  6  1  0  0  0
  5 26  1  0  0  0
  5 96  1  0  0  0
  6 25  1  0  0  0
  6 97  1  0  0  0
  6 98  1  0  0  0
  7  8  2  0  0  0
  7 26  1  0  0  0
  7 29  1  0  0  0
  8  9  1  0  0  0
  8 22  1  0  0  0
  9 10  1  0  0  0
  9 27  2  0  0  0
 10 11  2  0  0  0
 10 15  1  0  0  0
 11 12  1  0  0  0
 11 99  1  0  0  0
 12 13  2  0  0  0
 12100  1  0  0  0
 13 14  1  0  0  0
 13 31  1  0  0  0
 14 15  2  0  0  0
 14101  1  0  0  0
 15102  1  0  0  0
 16 17  2  0  0  0
 16 21  1  0  0  0
 16 31  1  0  0  0
 17 18  1  0  0  0
 17103  1  0  0  0
 18 19  2  0  0  0
 18104  1  0  0  0
 19 20  1  0  0  0
 19 24  1  0  0  0
 20 21  2  0  0  0
 20105  1  0  0  0
 21 23  1  0  0  0
 22 28  1  0  0  0
 22 32  2  0  0  0
 26 27  1  0  0  0
 28106  1  0  0  0
 28107  1  0  0  0
 29108  1  0  0  0
 29109  1  0  0  0
 33 34  1  0  0  0
 33 66  1  0  0  0
 33 70  2  0  0  0
 34 36  1  0  0  0
 34 59  1  0  0  0
 34110  1  0  0  0
 35 44  2  0  0  0
 35 45  1  0  0  0
 35 68  1  0  0  0
 36 56  1  0  0  0
 36111  1  0  0  0
 37 39  1  0  0  0
 37 47  1  0  0  0
 37 66  1  0  0  0
 37112  1  0  0  0
 38 43  2  0  0  0
 38 46  1  0  0  0
 38 47  1  0  0  0
 39 64  1  0  0  0
 39 67  2  0  0  0
 40 52  1  0  0  0
 40 53  2  0  0  0
 40 58  1  0  0  0
 41113  1  0  0  0
 41114  1  0  0  0
 41115  1  0  0  0
 41 48  1  0  0  0
 42 43  1  0  0  0
 42 66  1  0  0  0
 42116  1  0  0  0
 42117  1  0  0  0
 43 44  1  0  0  0
 44118  1  0  0  0
 45 46  2  0  0  0
 45119  1  0  0  0
 46120  1  0  0  0
 47121  1  0  0  0
 47122  1  0  0  0
 48 56  1  0  0  0
 48 65  1  0  0  0
 48123  1  0  0  0
 49 50  1  0  0  0
 49 53  1  0  0  0
 49 64  1  0  0  0
 49124  1  0  0  0
 50 51  1  0  0  0
 50125  1  0  0  0
 50126  1  0  0  0
 51 52  1  0  0  0
 51127  1  0  0  0
 51128  1  0  0  0
 52129  1  0  0  0
 52130  1  0  0  0
 53 54  1  0  0  0
 54 55  2  0  0  0
 54131  1  0  0  0
 55 57  1  0  0  0
 55132  1  0  0  0
 56 69  2  0  0  0
 57 58  2  0  0  0
 57133  1  0  0  0
 58134  1  0  0  0
 59 60  1  0  0  0
 59 61  1  0  0  0
 59 62  1  0  0  0
 60135  1  0  0  0
 60136  1  0  0  0
 60137  1  0  0  0
 61138  1  0  0  0
 61139  1  0  0  0
 61140  1  0  0  0
 62141  1  0  0  0
 62142  1  0  0  0
 62143  1  0  0  0
 63 65  1  0  0  0
 63144  1  0  0  0
 63145  1  0  0  0
 63146  1  0  0  0
 64147  1  0  0  0
 65148  1  0  0  0
 68 85  1  0  0  0
 71 73  2  0  0  0
 71 74  1  0  0  0
 71149  1  0  0  0
 72 75  2  0  0  0
 72 76  1  0  0  0
 72150  1  0  0  0
 73 75  1  0  0  0
 73 81  1  0  0  0
 74 76  2  0  0  0
 74 82  1  0  0  0
 75 86  1  0  0  0
 76 87  1  0  0  0
 77 81  1  0  0  0
 77151  1  0  0  0
 77152  1  0  0  0
 77153  1  0  0  0
 78154  1  0  0  0
 78155  1  0  0  0
 78156  1  0  0  0
 78 87  1  0  0  0
 79157  1  0  0  0
 79158  1  0  0  0
 79159  1  0  0  0
 79 88  1  0  0  0
 80 88  1  0  0  0
 80160  1  0  0  0
 80161  1  0  0  0
 80162  1  0  0  0
 81163  1  0  0  0
 81164  1  0  0  0
 82 83  1  0  0  0
 82165  1  0  0  0
 82166  1  0  0  0
 83 85  1  0  0  0
 83167  1  0  0  0
 83168  1  0  0  0
 84 89  1  0  0  0
 84169  1  0  0  0
 84170  1  0  0  0
 84 86  1  0  0  0
 85171  1  0  0  0
 85172  1  0  0  0
 86173  1  0  0  0
 87 88  1  0  0  0
 87174  1  0  0  0
 88175  1  0  0  0
 89176  1  0  0  0
 89177  1  0  0  0
 89178  1  0  0  0
M  CHG  1  89   1
M  ISO  4   1 100  68 101  85 101  86 100
M  END
> <chiral flag>
0

> <version>
0

> <s_m_source_file>
/data/baiqing/PycharmProjects/Reinvent-master-3.2/result/LINK_invent/BTK/process_docking_weight1_custom_sum_contain_oxygen_bond_distance_aromatic_linkinvent_7_9_3/rearranged_h_0093.sdf

> <i_m_source_file_index>
65

> <r_mmod_Potential_Energy-OPLS-2005>
237.566711425781

> <r_mmod_Stretch_Energy-OPLS-2005>
181.875534057617

> <r_mmod_Bend_Energy-OPLS-2005>
260.249572753906

> <r_mmod_Torsional_Energy-OPLS-2005>
269.921783447266

> <r_mmod_Improper_Torsional_Energy-OPLS-2005>
19.3152656555176

> <r_mmod_Van_der_Waal_Energy-OPLS-2005>
139.392135620117

> <r_mmod_Electrostatic_Energy-OPLS-2005>
-321.576843261719

> <r_mmod_Solvation_Energy-OPLS-2005>
-451.204223632812

> <b_mmod_Minimization_Converged-OPLS-2005>
0

> <r_mmod_RMS_Derivative-OPLS-2005>
0.793857932090759

$$$$
65
                    3D
 Structure written by MMmdl.
169177  0  0  1  0            999 V2000
  -30.6480  -14.5793   20.4733 C   0  0  0  0  0  0
  -30.4245  -12.3372   19.4496 C   0  0  0  0  0  0
  -29.5029  -12.4467   18.2191 C   0  0  0  0  0  0
  -28.0246  -12.2955   18.6295 C   0  0  0  0  0  0
  -27.6385  -13.1981   19.8344 C   0  0  2  0  0  0
  -28.6837  -13.0683   20.9678 C   0  0  0  0  0  0
  -25.2499  -13.8135   20.5604 C   0  0  0  0  0  0
  -24.1757  -13.0424   20.9195 C   0  0  0  0  0  0
  -24.6312  -11.6908   20.8758 C   0  0  0  0  0  0
  -23.8960  -10.4286   21.0407 C   0  0  0  0  0  0
  -24.3516   -9.4201   21.9174 C   0  0  0  0  0  0
  -23.6224   -8.2201   22.0721 C   0  0  0  0  0  0
  -22.4226   -8.0225   21.3493 C   0  0  0  0  0  0
  -21.9839   -9.0195   20.4611 C   0  0  0  0  0  0
  -22.7128  -10.2105   20.3040 C   0  0  0  0  0  0
  -21.6843   -6.0680   22.5265 C   0  0  0  0  0  0
  -21.4016   -6.5591   23.8192 C   0  0  0  0  0  0
  -21.3689   -5.6747   24.9163 C   0  0  0  0  0  0
  -21.6076   -4.3001   24.7235 C   0  0  0  0  0  0
  -21.8821   -3.8094   23.4347 C   0  0  0  0  0  0
  -21.9178   -4.6901   22.3412 C   0  0  0  0  0  0
  -22.7763  -13.5241   21.1838 C   0  0  0  0  0  0
  -22.1621   -4.2093   21.0977 F   0  0  0  0  0  0
  -21.5673   -3.4497   25.7751 F   0  0  0  0  0  0
  -30.0049  -13.3756   20.4033 N   0  0  0  0  0  0
  -26.2867  -12.9262   20.3143 N   0  0  0  0  0  0
  -25.9220  -11.6447   20.5685 N   0  0  0  0  0  0
  -22.0339  -12.8322   22.0433 N   0  0  0  0  0  0
  -25.4311  -15.1842   20.4003 N   0  0  0  0  0  0
  -31.8422  -14.7030   20.2060 O   0  0  0  0  0  0
  -21.6609   -6.8817   21.4205 O   0  0  0  0  0  0
  -22.3480  -14.5510   20.6599 O   0  0  0  0  0  0
  -24.6155  -31.8693   23.2104 C   0  0  0  0  0  0
  -25.9063  -32.4828   23.8378 C   0  0  1  0  0  0
  -27.2377  -27.4361   20.0904 C   0  0  0  0  0  0
  -25.5919  -33.8629   24.2325 N   0  0  0  0  0  0
  -23.4045  -30.4908   21.5500 C   0  0  2  0  0  0
  -24.8534  -28.9604   20.1025 C   0  0  0  0  0  0
  -22.7422  -29.4671   22.5008 C   0  0  0  0  0  0
  -18.0282  -28.1374   22.8515 C   0  0  0  0  0  0
  -24.1474  -36.7334   23.2632 C   0  0  0  0  0  0
  -25.9302  -30.8336   21.3620 C   0  0  0  0  0  0
  -26.0111  -29.4687   20.7057 C   0  0  0  0  0  0
  -27.2108  -28.7180   20.6915 C   0  0  0  0  0  0
  -26.0651  -26.9403   19.4852 C   0  0  0  0  0  0
  -24.8770  -27.6987   19.4820 C   0  0  0  0  0  0
  -23.6119  -29.8249   20.1609 C   0  0  0  0  0  0
  -25.4099  -36.3133   24.0334 C   0  0  1  0  0  0
  -20.5865  -28.3654   23.1332 C   0  0  2  0  0  0
  -20.6770  -26.9390   22.5429 C   0  0  0  0  0  0
  -19.5734  -26.6382   21.5236 C   0  0  0  0  0  0
  -18.1912  -26.7915   22.1634 C   0  0  0  0  0  0
  -19.1535  -28.8841   23.2915 C   0  0  0  0  0  0
  -18.9446  -30.1456   23.8904 C   0  0  0  0  0  0
  -17.6450  -30.6581   24.0577 C   0  0  0  0  0  0
  -25.9030  -34.9496   23.5132 C   0  0  0  0  0  0
  -16.5347  -29.9082   23.6336 C   0  0  0  0  0  0
  -16.7271  -28.6512   23.0326 C   0  0  0  0  0  0
  -26.4514  -31.6587   25.0691 C   0  0  0  0  0  0
  -25.3823  -31.3673   26.1467 C   0  0  0  0  0  0
  -27.0325  -30.3022   24.6063 C   0  0  0  0  0  0
  -27.6102  -32.4282   25.7468 C   0  0  0  0  0  0
  -27.5594  -37.1823   24.8472 C   0  0  0  0  0  0
  -21.4155  -29.3031   22.3747 N   0  0  0  0  0  0
  -26.4305  -37.3816   23.9416 N   0  0  0  0  0  0
  -24.6679  -31.0765   22.1009 N   0  0  0  0  0  0
  -23.4201  -28.8214   23.3048 O   0  0  0  0  0  0
  -28.3889  -26.6779   20.0831 O   0  0  0  0  0  0
  -26.5598  -34.8944   22.4697 O   0  0  0  0  0  0
  -23.5362  -32.1455   23.7510 O   0  0  0  0  0  0
  -30.5445  -19.6521   17.9833 C   0  0  0  0  0  0
  -30.6343  -18.4872   17.1934 C   0  0  0  0  0  0
  -30.1751  -19.3114   19.2516 C   0  0  0  0  0  0
  -30.3375  -17.4356   18.0228 C   0  0  0  0  0  0
  -30.1513  -16.0189   17.5988 C   0  0  0  0  0  0
  -31.1172  -19.8279   15.0563 C   0  0  0  0  0  0
  -27.4707  -22.4323   21.2445 C   0  0  0  0  0  0
  -30.9575  -18.4427   15.7111 C   0  0  0  0  0  0
  -29.7801  -20.3091   20.3257 C   0  0  0  0  0  0
  -29.3776  -21.7023   19.7086 C   0  0  0  0  0  0
  -28.7070  -24.1899   19.8571 C   0  0  0  0  0  0
  -28.2903  -25.3999   20.7375 C   0  0  0  0  0  0
  -30.2067  -17.1125   20.6202 C   0  0  0  0  0  0
  -28.8247  -22.8276   20.6266 C   0  0  1  0  0  0
  -30.2176  -17.8994   19.3439 N   0  0  0  0  0  0
  -29.8407  -15.6672   20.5903 N   0  0  0  0  0  0
  -31.4681  -12.4405   19.1545 H   0  0  0  0  0  0
  -30.3362  -11.3501   19.9053 H   0  0  0  0  0  0
  -29.7652  -11.6892   17.4815 H   0  0  0  0  0  0
  -29.6554  -13.3998   17.7216 H   0  0  0  0  0  0
  -27.8752  -11.2471   18.8975 H   0  0  0  0  0  0
  -27.3745  -12.4757   17.7733 H   0  0  0  0  0  0
  -27.6514  -14.2226   19.4645 H   0  0  0  0  0  0
  -28.6820  -12.0516   21.3637 H   0  0  0  0  0  0
  -28.4250  -13.7204   21.8032 H   0  0  0  0  0  0
  -25.2659   -9.5687   22.4744 H   0  0  0  0  0  0
  -23.9966   -7.4605   22.7438 H   0  0  0  0  0  0
  -21.0793   -8.8665   19.8937 H   0  0  0  0  0  0
  -22.3551  -10.9598   19.6143 H   0  0  0  0  0  0
  -21.1946   -7.6089   23.9686 H   0  0  0  0  0  0
  -21.1542   -6.0471   25.9087 H   0  0  0  0  0  0
  -22.0572   -2.7545   23.2856 H   0  0  0  0  0  0
  -22.3905  -12.0095   22.5030 H   0  0  0  0  0  0
  -21.0915  -13.1360   22.2455 H   0  0  0  0  0  0
  -24.6607  -15.8434   20.4625 H   0  0  0  0  0  0
  -26.2818  -15.6058   20.0477 H   0  0  0  0  0  0
  -26.7132  -32.5549   23.1142 H   0  0  0  0  0  0
  -25.0056  -33.9789   25.0460 H   0  0  0  0  0  0
  -22.6944  -31.3095   21.4163 H   0  0  0  0  0  0
  -23.3752  -35.9655   23.3316 H   0  0  0  0  0  0
  -24.3573  -36.8942   22.2046 H   0  0  0  0  0  0
  -23.7215  -37.6544   23.6630 H   0  0  0  0  0  0
  -26.0370  -31.5957   20.5887 H   0  0  0  0  0  0
  -26.8206  -30.8881   21.9781 H   0  0  0  0  0  0
  -28.1083  -29.1117   21.1483 H   0  0  0  0  0  0
  -26.0717  -25.9675   19.0135 H   0  0  0  0  0  0
  -23.9955  -27.3163   18.9856 H   0  0  0  0  0  0
  -23.7135  -30.6059   19.4059 H   0  0  0  0  0  0
  -22.7361  -29.2432   19.8688 H   0  0  0  0  0  0
  -25.1264  -36.2017   25.0828 H   0  0  0  0  0  0
  -20.9964  -28.3195   24.1442 H   0  0  0  0  0  0
  -20.5667  -26.2252   23.3602 H   0  0  0  0  0  0
  -21.6625  -26.7425   22.1197 H   0  0  0  0  0  0
  -19.6862  -25.6307   21.1221 H   0  0  0  0  0  0
  -19.6645  -27.3237   20.6787 H   0  0  0  0  0  0
  -17.4177  -26.6719   21.4022 H   0  0  0  0  0  0
  -18.0276  -26.0053   22.9011 H   0  0  0  0  0  0
  -19.7930  -30.7294   24.2221 H   0  0  0  0  0  0
  -17.4998  -31.6238   24.5196 H   0  0  0  0  0  0
  -15.5339  -30.2956   23.7657 H   0  0  0  0  0  0
  -15.8684  -28.0846   22.6955 H   0  0  0  0  0  0
  -24.6025  -30.6973   25.7847 H   0  0  0  0  0  0
  -24.8986  -32.2811   26.4906 H   0  0  0  0  0  0
  -25.8230  -30.8888   27.0227 H   0  0  0  0  0  0
  -26.2831  -29.6767   24.1216 H   0  0  0  0  0  0
  -27.4194  -29.7261   25.4483 H   0  0  0  0  0  0
  -27.8629  -30.4300   23.9118 H   0  0  0  0  0  0
  -27.2736  -33.3555   26.2122 H   0  0  0  0  0  0
  -28.3910  -32.6905   25.0314 H   0  0  0  0  0  0
  -28.0814  -31.8377   26.5350 H   0  0  0  0  0  0
  -28.2631  -38.0101   24.7521 H   0  0  0  0  0  0
  -28.1052  -36.2646   24.6265 H   0  0  0  0  0  0
  -27.2312  -37.1453   25.8871 H   0  0  0  0  0  0
  -20.9295  -29.8794   21.7034 H   0  0  0  0  0  0
  -26.0214  -38.2913   24.1384 H   0  0  0  0  0  0
  -30.6732  -20.6649   17.6275 H   0  0  0  0  0  0
  -29.8269  -15.9760   16.5604 H   0  0  0  0  0  0
  -29.3457  -15.5460   18.1605 H   0  0  0  0  0  0
  -31.0697  -15.4364   17.6766 H   0  0  0  0  0  0
  -31.2237  -19.7310   13.9758 H   0  0  0  0  0  0
  -32.0038  -20.3468   15.4234 H   0  0  0  0  0  0
  -30.2510  -20.4660   15.2447 H   0  0  0  0  0  0
  -27.4751  -21.4157   21.6341 H   0  0  0  0  0  0
  -26.6665  -22.4984   20.5095 H   0  0  0  0  0  0
  -27.2180  -23.0890   22.0790 H   0  0  0  0  0  0
  -30.1818  -17.8824   15.1869 H   0  0  0  0  0  0
  -31.8863  -17.8848   15.5806 H   0  0  0  0  0  0
  -30.6013  -20.4355   21.0330 H   0  0  0  0  0  0
  -28.9447  -19.8999   20.8904 H   0  0  0  0  0  0
  -28.6439  -21.5285   18.9185 H   0  0  0  0  0  0
  -30.2563  -22.1136   19.2118 H   0  0  0  0  0  0
  -29.6693  -24.4223   19.3916 H   0  0  0  0  0  0
  -28.0025  -24.0921   19.0279 H   0  0  0  0  0  0
  -28.9469  -25.4434   21.6057 H   0  0  0  0  0  0
  -27.2887  -25.2331   21.1350 H   0  0  0  0  0  0
  -29.5223  -17.6084   21.3095 H   0  0  0  0  0  0
  -31.1964  -17.2072   21.0691 H   0  0  0  0  0  0
  -29.5407  -22.9607   21.4399 H   0  0  0  0  0  0
  -28.8645  -15.4716   20.7318 H   0  0  0  0  0  0
  1 25  1  0  0  0
  1 30  2  0  0  0
  1 86  1  0  0  0
  2  3  1  0  0  0
  2 25  1  0  0  0
  2 87  1  0  0  0
  2 88  1  0  0  0
  3  4  1  0  0  0
  3 89  1  0  0  0
  3 90  1  0  0  0
  4  5  1  0  0  0
  4 91  1  0  0  0
  4 92  1  0  0  0
  5  6  1  0  0  0
  5 26  1  0  0  0
  5 93  1  0  0  0
  6 25  1  0  0  0
  6 94  1  0  0  0
  6 95  1  0  0  0
  7  8  2  0  0  0
  7 26  1  0  0  0
  7 29  1  0  0  0
  8  9  1  0  0  0
  8 22  1  0  0  0
  9 10  1  0  0  0
  9 27  2  0  0  0
 10 11  2  0  0  0
 10 15  1  0  0  0
 11 12  1  0  0  0
 11 96  1  0  0  0
 12 13  2  0  0  0
 12 97  1  0  0  0
 13 14  1  0  0  0
 13 31  1  0  0  0
 14 15  2  0  0  0
 14 98  1  0  0  0
 15 99  1  0  0  0
 16 17  2  0  0  0
 16 21  1  0  0  0
 16 31  1  0  0  0
 17 18  1  0  0  0
 17100  1  0  0  0
 18 19  2  0  0  0
 18101  1  0  0  0
 19 20  1  0  0  0
 19 24  1  0  0  0
 20 21  2  0  0  0
 20102  1  0  0  0
 21 23  1  0  0  0
 22 28  1  0  0  0
 22 32  2  0  0  0
 26 27  1  0  0  0
 28103  1  0  0  0
 28104  1  0  0  0
 29105  1  0  0  0
 29106  1  0  0  0
 33 34  1  0  0  0
 33 66  1  0  0  0
 33 70  2  0  0  0
 34 36  1  0  0  0
 34 59  1  0  0  0
 34107  1  0  0  0
 35 44  2  0  0  0
 35 45  1  0  0  0
 35 68  1  0  0  0
 36 56  1  0  0  0
 36108  1  0  0  0
 37 39  1  0  0  0
 37 47  1  0  0  0
 37 66  1  0  0  0
 37109  1  0  0  0
 38 43  2  0  0  0
 38 46  1  0  0  0
 38 47  1  0  0  0
 39 64  1  0  0  0
 39 67  2  0  0  0
 40 52  1  0  0  0
 40 53  2  0  0  0
 40 58  1  0  0  0
 41110  1  0  0  0
 41111  1  0  0  0
 41112  1  0  0  0
 41 48  1  0  0  0
 42 43  1  0  0  0
 42 66  1  0  0  0
 42113  1  0  0  0
 42114  1  0  0  0
 43 44  1  0  0  0
 44115  1  0  0  0
 45 46  2  0  0  0
 45116  1  0  0  0
 46117  1  0  0  0
 47118  1  0  0  0
 47119  1  0  0  0
 48 56  1  0  0  0
 48 65  1  0  0  0
 48120  1  0  0  0
 49 50  1  0  0  0
 49 53  1  0  0  0
 49 64  1  0  0  0
 49121  1  0  0  0
 50 51  1  0  0  0
 50122  1  0  0  0
 50123  1  0  0  0
 51 52  1  0  0  0
 51124  1  0  0  0
 51125  1  0  0  0
 52126  1  0  0  0
 52127  1  0  0  0
 53 54  1  0  0  0
 54 55  2  0  0  0
 54128  1  0  0  0
 55 57  1  0  0  0
 55129  1  0  0  0
 56 69  2  0  0  0
 57 58  2  0  0  0
 57130  1  0  0  0
 58131  1  0  0  0
 59 60  1  0  0  0
 59 61  1  0  0  0
 59 62  1  0  0  0
 60132  1  0  0  0
 60133  1  0  0  0
 60134  1  0  0  0
 61135  1  0  0  0
 61136  1  0  0  0
 61137  1  0  0  0
 62138  1  0  0  0
 62139  1  0  0  0
 62140  1  0  0  0
 63 65  1  0  0  0
 63141  1  0  0  0
 63142  1  0  0  0
 63143  1  0  0  0
 64144  1  0  0  0
 65145  1  0  0  0
 68 82  1  0  0  0
 71 72  1  0  0  0
 71 73  2  0  0  0
 71146  1  0  0  0
 72 74  2  0  0  0
 72 78  1  0  0  0
 73 79  1  0  0  0
 73 85  1  0  0  0
 74 75  1  0  0  0
 74 85  1  0  0  0
 75147  1  0  0  0
 75148  1  0  0  0
 75149  1  0  0  0
 76 78  1  0  0  0
 76150  1  0  0  0
 76151  1  0  0  0
 76152  1  0  0  0
 77153  1  0  0  0
 77154  1  0  0  0
 77155  1  0  0  0
 77 84  1  0  0  0
 78156  1  0  0  0
 78157  1  0  0  0
 79 80  1  0  0  0
 79158  1  0  0  0
 79159  1  0  0  0
 80 84  1  0  0  0
 80160  1  0  0  0
 80161  1  0  0  0
 81 82  1  0  0  0
 81 84  1  0  0  0
 81162  1  0  0  0
 81163  1  0  0  0
 82164  1  0  0  0
 82165  1  0  0  0
 83 85  1  0  0  0
 83 86  1  0  0  0
 83166  1  0  0  0
 83167  1  0  0  0
 84168  1  0  0  0
 86169  1  0  0  0
M  ISO  4   1 100  68 101  82 101  86 100
M  END
> <chiral flag>
0

> <version>
0

> <s_m_source_file>
/data/baiqing/PycharmProjects/Reinvent-master-3.2/result/LINK_invent/BTK/process_docking_weight1_custom_sum_contain_oxygen_bond_distance_aromatic_linkinvent_7_9_3/rearranged_h_0093.sdf

> <i_m_source_file_index>
66

> <r_mmod_Potential_Energy-OPLS-2005>
-46.0534782409668

> <r_mmod_Stretch_Energy-OPLS-2005>
50.8524055480957

> <r_mmod_Bend_Energy-OPLS-2005>
127.612411499023

> <r_mmod_Torsional_Energy-OPLS-2005>
255.137176513672

> <r_mmod_Improper_Torsional_Energy-OPLS-2005>
6.64181232452393

> <r_mmod_Van_der_Waal_Energy-OPLS-2005>
128.915542602539

> <r_mmod_Electrostatic_Energy-OPLS-2005>
-436.008239746094

> <r_mmod_Solvation_Energy-OPLS-2005>
-208.599365234375

> <b_mmod_Minimization_Converged-OPLS-2005>
0

> <r_mmod_RMS_Derivative-OPLS-2005>
6.06131362915039

$$$$
66
                    3D
 Structure written by MMmdl.
169177  0  0  1  0            999 V2000
  -30.6532  -14.5105   20.5631 C   0  0  0  0  0  0
  -30.4329  -12.3220   19.4191 C   0  0  0  0  0  0
  -29.4982  -12.4951   18.2042 C   0  0  0  0  0  0
  -28.0201  -12.3423   18.6211 C   0  0  0  0  0  0
  -27.6579  -13.1954   19.8644 C   0  0  2  0  0  0
  -28.6994  -12.9846   20.9860 C   0  0  0  0  0  0
  -25.2606  -13.8134   20.5689 C   0  0  0  0  0  0
  -24.1847  -13.0410   20.9196 C   0  0  0  0  0  0
  -24.6394  -11.6885   20.8742 C   0  0  0  0  0  0
  -23.9048  -10.4274   21.0414 C   0  0  0  0  0  0
  -24.3614   -9.4197   21.9186 C   0  0  0  0  0  0
  -23.6295   -8.2227   22.0754 C   0  0  0  0  0  0
  -22.4263   -8.0273   21.3546 C   0  0  0  0  0  0
  -21.9912   -9.0249   20.4636 C   0  0  0  0  0  0
  -22.7240  -10.2123   20.3054 C   0  0  0  0  0  0
  -21.6843   -6.0741   22.5288 C   0  0  0  0  0  0
  -21.4007   -6.5644   23.8224 C   0  0  0  0  0  0
  -21.3656   -5.6790   24.9185 C   0  0  0  0  0  0
  -21.6050   -4.3058   24.7231 C   0  0  0  0  0  0
  -21.8817   -3.8154   23.4348 C   0  0  0  0  0  0
  -21.9196   -4.6967   22.3410 C   0  0  0  0  0  0
  -22.7881  -13.5230   21.1869 C   0  0  0  0  0  0
  -22.1666   -4.2155   21.0982 F   0  0  0  0  0  0
  -21.5628   -3.4537   25.7743 F   0  0  0  0  0  0
  -30.0214  -13.3123   20.4261 N   0  0  0  0  0  0
  -26.3003  -12.9271   20.3302 N   0  0  0  0  0  0
  -25.9296  -11.6445   20.5737 N   0  0  0  0  0  0
  -22.0533  -12.8196   22.0416 N   0  0  0  0  0  0
  -25.4342  -15.1858   20.4141 N   0  0  0  0  0  0
  -31.8184  -14.6911   20.2113 O   0  0  0  0  0  0
  -21.6630   -6.8875   21.4244 O   0  0  0  0  0  0
  -22.3562  -14.5537   20.6729 O   0  0  0  0  0  0
  -24.6173  -31.8664   23.2156 C   0  0  0  0  0  0
  -25.9033  -32.4818   23.8475 C   0  0  1  0  0  0
  -27.2406  -27.4122   20.1109 C   0  0  0  0  0  0
  -25.5898  -33.8633   24.2386 N   0  0  0  0  0  0
  -23.4128  -30.4843   21.5574 C   0  0  2  0  0  0
  -24.8614  -28.9505   20.1208 C   0  0  0  0  0  0
  -22.7436  -29.4605   22.5032 C   0  0  0  0  0  0
  -18.0258  -28.1315   22.8462 C   0  0  0  0  0  0
  -24.1503  -36.7327   23.2644 C   0  0  0  0  0  0
  -25.9439  -30.8226   21.3774 C   0  0  0  0  0  0
  -26.0223  -29.4573   20.7187 C   0  0  0  0  0  0
  -27.2173  -28.6995   20.7007 C   0  0  0  0  0  0
  -26.0653  -26.9307   19.4930 C   0  0  0  0  0  0
  -24.8774  -27.6871   19.5032 C   0  0  0  0  0  0
  -23.6235  -29.8181   20.1735 C   0  0  0  0  0  0
  -25.4124  -36.3120   24.0331 C   0  0  1  0  0  0
  -20.5842  -28.3621   23.1287 C   0  0  2  0  0  0
  -20.6769  -26.9359   22.5383 C   0  0  0  0  0  0
  -19.5763  -26.6328   21.5166 C   0  0  0  0  0  0
  -18.1930  -26.7877   22.1561 C   0  0  0  0  0  0
  -19.1502  -28.8786   23.2875 C   0  0  0  0  0  0
  -18.9434  -30.1398   23.8867 C   0  0  0  0  0  0
  -17.6432  -30.6535   24.0513 C   0  0  0  0  0  0
  -25.9013  -34.9466   23.5139 C   0  0  0  0  0  0
  -16.5318  -29.9013   23.6336 C   0  0  0  0  0  0
  -16.7248  -28.6422   23.0365 C   0  0  0  0  0  0
  -26.4444  -31.6615   25.0821 C   0  0  0  0  0  0
  -25.3699  -31.3646   26.1550 C   0  0  0  0  0  0
  -27.0318  -30.3077   24.6207 C   0  0  0  0  0  0
  -27.6031  -32.4359   25.7514 C   0  0  0  0  0  0
  -27.5610  -37.1810   24.8455 C   0  0  0  0  0  0
  -21.4151  -29.3027   22.3754 N   0  0  0  0  0  0
  -26.4322  -37.3788   23.9394 N   0  0  0  0  0  0
  -24.6764  -31.0718   22.1083 N   0  0  0  0  0  0
  -23.4175  -28.8137   23.3097 O   0  0  0  0  0  0
  -28.3880  -26.6402   20.1269 O   0  0  0  0  0  0
  -26.5551  -34.8884   22.4691 O   0  0  0  0  0  0
  -23.5333  -32.1410   23.7495 O   0  0  0  0  0  0
  -29.4809  -20.4036   20.3006 C   0  0  0  0  0  0
  -29.7949  -21.9192   22.1432 C   0  0  0  0  0  0
  -29.2589  -21.6938   20.8589 C   0  0  0  0  0  0
  -30.1974  -19.4404   21.0645 C   0  0  0  0  0  0
  -34.3540  -19.7099   21.5714 C   0  0  0  0  0  0
  -35.1504  -20.0529   19.2098 C   0  0  0  0  0  0
  -28.3853  -22.7536   20.1616 C   0  0  0  0  0  0
  -28.9614  -24.1915   19.9355 C   0  0  0  0  0  0
  -32.0648  -17.8898   20.2315 C   0  0  0  0  0  0
  -32.8205  -19.0973   19.6214 C   0  0  0  0  0  0
  -30.0835  -16.8788   21.4912 C   0  0  0  0  0  0
  -28.2411  -25.3251   20.7187 C   0  0  0  0  0  0
  -30.5453  -18.0271   20.5207 C   0  0  1  0  0  0
  -34.2794  -19.1828   20.1255 C   0  0  0  0  0  0
  -30.4837  -20.9686   22.8237 N   0  0  0  0  0  0
  -30.6779  -19.7517   22.2971 N   0  0  0  0  0  0
  -29.8399  -15.5111   20.9703 N   0  0  0  0  0  0
  -31.4760  -12.4419   19.1226 H   0  0  0  0  0  0
  -30.3509  -11.3113   19.8249 H   0  0  0  0  0  0
  -29.7444  -11.7663   17.4315 H   0  0  0  0  0  0
  -29.6559  -13.4787   17.7603 H   0  0  0  0  0  0
  -27.8459  -11.2877   18.8399 H   0  0  0  0  0  0
  -27.3625  -12.5905   17.7886 H   0  0  0  0  0  0
  -27.6970  -14.2381   19.5476 H   0  0  0  0  0  0
  -28.6882  -11.9488   21.3297 H   0  0  0  0  0  0
  -28.4566  -13.5828   21.8667 H   0  0  0  0  0  0
  -25.2759   -9.5676   22.4760 H   0  0  0  0  0  0
  -24.0009   -7.4617   22.7468 H   0  0  0  0  0  0
  -21.0843   -8.8769   19.8934 H   0  0  0  0  0  0
  -22.3708  -10.9672   19.6160 H   0  0  0  0  0  0
  -21.1985   -7.6147   23.9734 H   0  0  0  0  0  0
  -21.1481   -6.0515   25.9090 H   0  0  0  0  0  0
  -22.0599   -2.7611   23.2851 H   0  0  0  0  0  0
  -22.4140  -11.9824   22.4750 H   0  0  0  0  0  0
  -21.1158  -13.1220   22.2660 H   0  0  0  0  0  0
  -24.6681  -15.8396   20.5320 H   0  0  0  0  0  0
  -26.2820  -15.6295   20.0851 H   0  0  0  0  0  0
  -26.7130  -32.5487   23.1261 H   0  0  0  0  0  0
  -25.0185  -33.9842   25.0622 H   0  0  0  0  0  0
  -22.7018  -31.3017   21.4186 H   0  0  0  0  0  0
  -23.3755  -35.9661   23.3286 H   0  0  0  0  0  0
  -24.3600  -36.8983   22.2058 H   0  0  0  0  0  0
  -23.7276  -37.6535   23.6668 H   0  0  0  0  0  0
  -26.0721  -31.5934   20.6167 H   0  0  0  0  0  0
  -26.8270  -30.8666   22.0037 H   0  0  0  0  0  0
  -28.1162  -29.0864   21.1600 H   0  0  0  0  0  0
  -26.0655  -25.9656   19.0071 H   0  0  0  0  0  0
  -23.9852  -27.2922   19.0373 H   0  0  0  0  0  0
  -23.7275  -30.5918   19.4140 H   0  0  0  0  0  0
  -22.7489  -29.2352   19.8819 H   0  0  0  0  0  0
  -25.1306  -36.1991   25.0817 H   0  0  0  0  0  0
  -20.9904  -28.3164   24.1420 H   0  0  0  0  0  0
  -20.5646  -26.2239   23.3567 H   0  0  0  0  0  0
  -21.6652  -26.7410   22.1198 H   0  0  0  0  0  0
  -19.6934  -25.6227   21.1256 H   0  0  0  0  0  0
  -19.6720  -27.3073   20.6642 H   0  0  0  0  0  0
  -17.4239  -26.6601   21.3949 H   0  0  0  0  0  0
  -18.0313  -25.9993   22.8918 H   0  0  0  0  0  0
  -19.7900  -30.7207   24.2262 H   0  0  0  0  0  0
  -17.4977  -31.6225   24.5094 H   0  0  0  0  0  0
  -15.5310  -30.2876   23.7721 H   0  0  0  0  0  0
  -15.8638  -28.0705   22.7145 H   0  0  0  0  0  0
  -24.5884  -30.6995   25.7850 H   0  0  0  0  0  0
  -24.8819  -32.2733   26.5056 H   0  0  0  0  0  0
  -25.8035  -30.8762   27.0284 H   0  0  0  0  0  0
  -26.2852  -29.6758   24.1379 H   0  0  0  0  0  0
  -27.4245  -29.7402   25.4650 H   0  0  0  0  0  0
  -27.8614  -30.4462   23.9294 H   0  0  0  0  0  0
  -27.2709  -33.3700   26.2060 H   0  0  0  0  0  0
  -28.3796  -32.6875   25.0284 H   0  0  0  0  0  0
  -28.0754  -31.8530   26.5427 H   0  0  0  0  0  0
  -28.2597  -38.0140   24.7556 H   0  0  0  0  0  0
  -28.1157  -36.2671   24.6241 H   0  0  0  0  0  0
  -27.2321  -37.1431   25.8859 H   0  0  0  0  0  0
  -20.9322  -29.8780   21.6985 H   0  0  0  0  0  0
  -26.0209  -38.2872   24.1346 H   0  0  0  0  0  0
  -29.1085  -20.1538   19.3184 H   0  0  0  0  0  0
  -29.6561  -22.8630   22.6501 H   0  0  0  0  0  0
  -35.3871  -19.8111   21.9043 H   0  0  0  0  0  0
  -33.8598  -19.0427   22.2777 H   0  0  0  0  0  0
  -33.8822  -20.6892   21.6661 H   0  0  0  0  0  0
  -36.1696  -20.1175   19.5919 H   0  0  0  0  0  0
  -34.7627  -21.0690   19.1312 H   0  0  0  0  0  0
  -35.2097  -19.6332   18.2058 H   0  0  0  0  0  0
  -27.4512  -22.8113   20.7231 H   0  0  0  0  0  0
  -28.0943  -22.3559   19.1878 H   0  0  0  0  0  0
  -28.8219  -24.4142   18.8766 H   0  0  0  0  0  0
  -30.0409  -24.2337   20.0908 H   0  0  0  0  0  0
  -32.5380  -17.6371   21.1792 H   0  0  0  0  0  0
  -32.2458  -17.0281   19.5924 H   0  0  0  0  0  0
  -32.3326  -20.0502   19.8262 H   0  0  0  0  0  0
  -32.7984  -18.9899   18.5345 H   0  0  0  0  0  0
  -29.1238  -17.1756   21.9149 H   0  0  0  0  0  0
  -30.7515  -16.8058   22.3502 H   0  0  0  0  0  0
  -28.6445  -25.3696   21.7323 H   0  0  0  0  0  0
  -27.1888  -25.0646   20.8464 H   0  0  0  0  0  0
  -30.0039  -17.9220   19.5793 H   0  0  0  0  0  0
  -34.7066  -18.1783   20.1091 H   0  0  0  0  0  0
  -28.8906  -15.1948   21.1023 H   0  0  0  0  0  0
  1 25  1  0  0  0
  1 30  2  0  0  0
  1 87  1  0  0  0
  2  3  1  0  0  0
  2 25  1  0  0  0
  2 88  1  0  0  0
  2 89  1  0  0  0
  3  4  1  0  0  0
  3 90  1  0  0  0
  3 91  1  0  0  0
  4  5  1  0  0  0
  4 92  1  0  0  0
  4 93  1  0  0  0
  5  6  1  0  0  0
  5 26  1  0  0  0
  5 94  1  0  0  0
  6 25  1  0  0  0
  6 95  1  0  0  0
  6 96  1  0  0  0
  7  8  2  0  0  0
  7 26  1  0  0  0
  7 29  1  0  0  0
  8  9  1  0  0  0
  8 22  1  0  0  0
  9 10  1  0  0  0
  9 27  2  0  0  0
 10 11  2  0  0  0
 10 15  1  0  0  0
 11 12  1  0  0  0
 11 97  1  0  0  0
 12 13  2  0  0  0
 12 98  1  0  0  0
 13 14  1  0  0  0
 13 31  1  0  0  0
 14 15  2  0  0  0
 14 99  1  0  0  0
 15100  1  0  0  0
 16 17  2  0  0  0
 16 21  1  0  0  0
 16 31  1  0  0  0
 17 18  1  0  0  0
 17101  1  0  0  0
 18 19  2  0  0  0
 18102  1  0  0  0
 19 20  1  0  0  0
 19 24  1  0  0  0
 20 21  2  0  0  0
 20103  1  0  0  0
 21 23  1  0  0  0
 22 28  1  0  0  0
 22 32  2  0  0  0
 26 27  1  0  0  0
 28104  1  0  0  0
 28105  1  0  0  0
 29106  1  0  0  0
 29107  1  0  0  0
 33 34  1  0  0  0
 33 66  1  0  0  0
 33 70  2  0  0  0
 34 36  1  0  0  0
 34 59  1  0  0  0
 34108  1  0  0  0
 35 44  2  0  0  0
 35 45  1  0  0  0
 35 68  1  0  0  0
 36 56  1  0  0  0
 36109  1  0  0  0
 37 39  1  0  0  0
 37 47  1  0  0  0
 37 66  1  0  0  0
 37110  1  0  0  0
 38 43  2  0  0  0
 38 46  1  0  0  0
 38 47  1  0  0  0
 39 64  1  0  0  0
 39 67  2  0  0  0
 40 52  1  0  0  0
 40 53  2  0  0  0
 40 58  1  0  0  0
 41111  1  0  0  0
 41112  1  0  0  0
 41113  1  0  0  0
 41 48  1  0  0  0
 42 43  1  0  0  0
 42 66  1  0  0  0
 42114  1  0  0  0
 42115  1  0  0  0
 43 44  1  0  0  0
 44116  1  0  0  0
 45 46  2  0  0  0
 45117  1  0  0  0
 46118  1  0  0  0
 47119  1  0  0  0
 47120  1  0  0  0
 48 56  1  0  0  0
 48 65  1  0  0  0
 48121  1  0  0  0
 49 50  1  0  0  0
 49 53  1  0  0  0
 49 64  1  0  0  0
 49122  1  0  0  0
 50 51  1  0  0  0
 50123  1  0  0  0
 50124  1  0  0  0
 51 52  1  0  0  0
 51125  1  0  0  0
 51126  1  0  0  0
 52127  1  0  0  0
 52128  1  0  0  0
 53 54  1  0  0  0
 54 55  2  0  0  0
 54129  1  0  0  0
 55 57  1  0  0  0
 55130  1  0  0  0
 56 69  2  0  0  0
 57 58  2  0  0  0
 57131  1  0  0  0
 58132  1  0  0  0
 59 60  1  0  0  0
 59 61  1  0  0  0
 59 62  1  0  0  0
 60133  1  0  0  0
 60134  1  0  0  0
 60135  1  0  0  0
 61136  1  0  0  0
 61137  1  0  0  0
 61138  1  0  0  0
 62139  1  0  0  0
 62140  1  0  0  0
 62141  1  0  0  0
 63 65  1  0  0  0
 63142  1  0  0  0
 63143  1  0  0  0
 63144  1  0  0  0
 64145  1  0  0  0
 65146  1  0  0  0
 68 82  1  0  0  0
 71 73  2  0  0  0
 71 74  1  0  0  0
 71147  1  0  0  0
 72 73  1  0  0  0
 72 85  2  0  0  0
 72148  1  0  0  0
 73 77  1  0  0  0
 74 83  1  0  0  0
 74 86  2  0  0  0
 75149  1  0  0  0
 75150  1  0  0  0
 75151  1  0  0  0
 75 84  1  0  0  0
 76 84  1  0  0  0
 76152  1  0  0  0
 76153  1  0  0  0
 76154  1  0  0  0
 77 78  1  0  0  0
 77155  1  0  0  0
 77156  1  0  0  0
 78 82  1  0  0  0
 78157  1  0  0  0
 78158  1  0  0  0
 79 80  1  0  0  0
 79159  1  0  0  0
 79160  1  0  0  0
 79 83  1  0  0  0
 80 84  1  0  0  0
 80161  1  0  0  0
 80162  1  0  0  0
 81 83  1  0  0  0
 81 87  1  0  0  0
 81163  1  0  0  0
 81164  1  0  0  0
 82165  1  0  0  0
 82166  1  0  0  0
 83167  1  0  0  0
 84168  1  0  0  0
 85 86  1  0  0  0
 87169  1  0  0  0
M  ISO  4   1 100  68 101  82 101  87 100
M  END
> <chiral flag>
0

> <version>
0

> <s_m_source_file>
/data/baiqing/PycharmProjects/Reinvent-master-3.2/result/LINK_invent/BTK/process_docking_weight1_custom_sum_contain_oxygen_bond_distance_aromatic_linkinvent_7_9_3/rearranged_h_0093.sdf

> <i_m_source_file_index>
67

> <r_mmod_Potential_Energy-OPLS-2005>
57.4635009765625

> <r_mmod_Stretch_Energy-OPLS-2005>
48.8027381896973

> <r_mmod_Bend_Energy-OPLS-2005>
127.735916137695

> <r_mmod_Torsional_Energy-OPLS-2005>
244.833160400391

> <r_mmod_Improper_Torsional_Energy-OPLS-2005>
4.05240106582642

> <r_mmod_Van_der_Waal_Energy-OPLS-2005>
149.922256469727

> <r_mmod_Electrostatic_Energy-OPLS-2005>
-315.815338134766

> <r_mmod_Solvation_Energy-OPLS-2005>
-222.091583251953

> <b_mmod_Minimization_Converged-OPLS-2005>
0

> <r_mmod_RMS_Derivative-OPLS-2005>
3.60100984573364

$$$$
67
                    3D
 Structure written by MMmdl.
152160  0  0  1  0            999 V2000
  -30.6630  -14.6687   20.4547 C   0  0  0  0  0  0
  -30.4216  -12.3990   19.4722 C   0  0  0  0  0  0
  -29.5094  -12.4859   18.2305 C   0  0  0  0  0  0
  -28.0319  -12.3305   18.6364 C   0  0  0  0  0  0
  -27.6439  -13.2287   19.8423 C   0  0  2  0  0  0
  -28.6873  -13.1559   20.9799 C   0  0  0  0  0  0
  -25.2524  -13.8202   20.5649 C   0  0  0  0  0  0
  -24.1810  -13.0450   20.9176 C   0  0  0  0  0  0
  -24.6410  -11.6925   20.8736 C   0  0  0  0  0  0
  -23.9082  -10.4296   21.0391 C   0  0  0  0  0  0
  -24.3635   -9.4207   21.9165 C   0  0  0  0  0  0
  -23.6299   -8.2244   22.0746 C   0  0  0  0  0  0
  -22.4280   -8.0288   21.3543 C   0  0  0  0  0  0
  -21.9907   -9.0258   20.4643 C   0  0  0  0  0  0
  -22.7251  -10.2137   20.3043 C   0  0  0  0  0  0
  -21.6861   -6.0732   22.5272 C   0  0  0  0  0  0
  -21.4023   -6.5629   23.8215 C   0  0  0  0  0  0
  -21.3661   -5.6786   24.9175 C   0  0  0  0  0  0
  -21.6047   -4.3047   24.7223 C   0  0  0  0  0  0
  -21.8822   -3.8143   23.4342 C   0  0  0  0  0  0
  -21.9199   -4.6951   22.3402 C   0  0  0  0  0  0
  -22.7829  -13.5219   21.1828 C   0  0  0  0  0  0
  -22.1656   -4.2139   21.0972 F   0  0  0  0  0  0
  -21.5635   -3.4533   25.7734 F   0  0  0  0  0  0
  -29.9964  -13.4708   20.3984 N   0  0  0  0  0  0
  -26.2947  -12.9408   20.3222 N   0  0  0  0  0  0
  -25.9335  -11.6559   20.5726 N   0  0  0  0  0  0
  -22.0481  -12.8238   22.0412 N   0  0  0  0  0  0
  -25.4207  -15.1927   20.4056 N   0  0  0  0  0  0
  -31.8522  -14.7339   20.1405 O   0  0  0  0  0  0
  -21.6652   -6.8875   21.4239 O   0  0  0  0  0  0
  -22.3500  -14.5513   20.6653 O   0  0  0  0  0  0
  -24.6277  -31.8570   23.1992 C   0  0  0  0  0  0
  -25.9104  -32.4770   23.8346 C   0  0  1  0  0  0
  -27.2209  -27.2779   20.1197 C   0  0  0  0  0  0
  -25.5890  -33.8574   24.2244 N   0  0  0  0  0  0
  -23.4246  -30.4778   21.5437 C   0  0  2  0  0  0
  -24.8694  -28.9263   20.1166 C   0  0  0  0  0  0
  -22.7491  -29.4597   22.4937 C   0  0  0  0  0  0
  -18.0277  -28.1374   22.8464 C   0  0  0  0  0  0
  -24.1480  -36.7286   23.2646 C   0  0  0  0  0  0
  -25.9717  -30.7708   21.3821 C   0  0  0  0  0  0
  -26.0435  -29.3979   20.7177 C   0  0  0  0  0  0
  -27.2231  -28.5876   20.7040 C   0  0  0  0  0  0
  -26.0158  -26.8665   19.5031 C   0  0  0  0  0  0
  -24.8586  -27.6653   19.5047 C   0  0  0  0  0  0
  -23.6403  -29.8094   20.1621 C   0  0  0  0  0  0
  -25.4113  -36.3083   24.0326 C   0  0  1  0  0  0
  -20.5875  -28.3678   23.1254 C   0  0  2  0  0  0
  -20.6750  -26.9400   22.5384 C   0  0  0  0  0  0
  -19.5734  -26.6366   21.5177 C   0  0  0  0  0  0
  -18.1918  -26.7905   22.1608 C   0  0  0  0  0  0
  -19.1536  -28.8845   23.2845 C   0  0  0  0  0  0
  -18.9469  -30.1446   23.8866 C   0  0  0  0  0  0
  -17.6478  -30.6579   24.0550 C   0  0  0  0  0  0
  -25.9053  -34.9454   23.5097 C   0  0  0  0  0  0
  -16.5359  -29.9072   23.6339 C   0  0  0  0  0  0
  -16.7271  -28.6484   23.0359 C   0  0  0  0  0  0
  -26.4451  -31.6622   25.0767 C   0  0  0  0  0  0
  -25.3646  -31.3825   26.1483 C   0  0  0  0  0  0
  -27.0319  -30.3030   24.6313 C   0  0  0  0  0  0
  -27.5989  -32.4395   25.7529 C   0  0  0  0  0  0
  -27.5583  -37.1794   24.8463 C   0  0  0  0  0  0
  -21.4203  -29.3033   22.3673 N   0  0  0  0  0  0
  -26.4291  -37.3780   23.9410 N   0  0  0  0  0  0
  -24.6932  -31.0531   22.0969 N   0  0  0  0  0  0
  -23.4190  -28.8145   23.3046 O   0  0  0  0  0  0
  -28.3307  -26.4050   20.1582 O   0  0  0  0  0  0
  -26.5656  -34.8930   22.4691 O   0  0  0  0  0  0
  -23.5426  -32.1401   23.7275 O   0  0  0  0  0  0
  -31.5400  -21.9778   19.8338 C   0  0  0  0  0  0
  -30.2852  -21.3319   20.1290 C   0  0  0  0  0  0
  -30.4891  -19.9193   20.1636 C   0  0  0  0  0  0
  -29.0494  -22.2816   20.3304 C   0  0  0  0  0  0
  -29.6805  -18.5984   20.4346 C   0  0  0  0  0  0
  -29.3008  -23.8860   20.2321 C   0  0  0  0  0  0
  -30.5387  -17.2203   20.4231 C   0  0  0  0  0  0
  -28.0841  -24.9262   20.1657 C   0  0  0  0  0  0
  -32.6021  -21.2453   19.6113 N   0  0  0  0  0  0
  -29.9494  -15.8365   20.6282 N   0  0  0  0  0  0
  -32.1719  -19.6524   19.7644 S   0  0  0  0  0  0
  -31.4683  -12.4869   19.1758 H   0  0  0  0  0  0
  -30.3302  -11.4234   19.9517 H   0  0  0  0  0  0
  -29.7829  -11.7147   17.5076 H   0  0  0  0  0  0
  -29.6572  -13.4433   17.7286 H   0  0  0  0  0  0
  -27.8756  -11.2819   18.8916 H   0  0  0  0  0  0
  -27.3825  -12.5353   17.7842 H   0  0  0  0  0  0
  -27.6432  -14.2505   19.4631 H   0  0  0  0  0  0
  -28.7034  -12.1631   21.4313 H   0  0  0  0  0  0
  -28.4356  -13.8553   21.7781 H   0  0  0  0  0  0
  -25.2790   -9.5685   22.4727 H   0  0  0  0  0  0
  -24.0019   -7.4643   22.7461 H   0  0  0  0  0  0
  -21.0840   -8.8778   19.8955 H   0  0  0  0  0  0
  -22.3709  -10.9663   19.6143 H   0  0  0  0  0  0
  -21.2023   -7.6141   23.9713 H   0  0  0  0  0  0
  -21.1471   -6.0512   25.9080 H   0  0  0  0  0  0
  -22.0603   -2.7594   23.2847 H   0  0  0  0  0  0
  -22.4116  -11.9945   22.4865 H   0  0  0  0  0  0
  -21.1073  -13.1231   22.2569 H   0  0  0  0  0  0
  -24.6517  -15.8444   20.5175 H   0  0  0  0  0  0
  -26.2691  -15.6359   20.0765 H   0  0  0  0  0  0
  -26.7183  -32.5394   23.1097 H   0  0  0  0  0  0
  -24.9960  -33.9704   25.0333 H   0  0  0  0  0  0
  -22.7195  -31.2979   21.3958 H   0  0  0  0  0  0
  -23.3753  -35.9608   23.3309 H   0  0  0  0  0  0
  -24.3565  -36.8915   22.2062 H   0  0  0  0  0  0
  -23.7218  -37.6480   23.6676 H   0  0  0  0  0  0
  -26.1216  -31.5365   20.6201 H   0  0  0  0  0  0
  -26.8441  -30.8053   22.0240 H   0  0  0  0  0  0
  -28.1271  -28.9425   21.1791 H   0  0  0  0  0  0
  -25.9265  -25.9064   19.0199 H   0  0  0  0  0  0
  -23.9545  -27.2912   19.0426 H   0  0  0  0  0  0
  -23.7630  -30.5817   19.4015 H   0  0  0  0  0  0
  -22.7583  -29.2384   19.8646 H   0  0  0  0  0  0
  -25.1291  -36.1941   25.0815 H   0  0  0  0  0  0
  -20.9941  -28.3235   24.1385 H   0  0  0  0  0  0
  -20.5579  -26.2303   23.3590 H   0  0  0  0  0  0
  -21.6622  -26.7374   22.1223 H   0  0  0  0  0  0
  -19.6894  -25.6266   21.1223 H   0  0  0  0  0  0
  -19.6669  -27.3149   20.6685 H   0  0  0  0  0  0
  -17.4168  -26.6616   21.4035 H   0  0  0  0  0  0
  -18.0369  -26.0055   22.9023 H   0  0  0  0  0  0
  -19.7961  -30.7255   24.2210 H   0  0  0  0  0  0
  -17.5049  -31.6262   24.5157 H   0  0  0  0  0  0
  -15.5361  -30.2980   23.7690 H   0  0  0  0  0  0
  -15.8660  -28.0801   22.7108 H   0  0  0  0  0  0
  -24.5748  -30.7262   25.7814 H   0  0  0  0  0  0
  -24.8908  -32.3027   26.4923 H   0  0  0  0  0  0
  -25.7901  -30.8967   27.0270 H   0  0  0  0  0  0
  -26.2960  -29.6796   24.1225 H   0  0  0  0  0  0
  -27.3856  -29.7293   25.4890 H   0  0  0  0  0  0
  -27.8884  -30.4307   23.9690 H   0  0  0  0  0  0
  -27.2560  -33.3673   26.2129 H   0  0  0  0  0  0
  -28.3764  -32.7019   25.0341 H   0  0  0  0  0  0
  -28.0711  -31.8539   26.5429 H   0  0  0  0  0  0
  -28.2597  -38.0098   24.7526 H   0  0  0  0  0  0
  -28.1081  -36.2629   24.6262 H   0  0  0  0  0  0
  -27.2306  -37.1414   25.8869 H   0  0  0  0  0  0
  -20.9408  -29.8784   21.6896 H   0  0  0  0  0  0
  -26.0178  -38.2856   24.1415 H   0  0  0  0  0  0
  -31.6990  -23.0434   19.7695 H   0  0  0  0  0  0
  -28.5969  -22.0689   21.2999 H   0  0  0  0  0  0
  -28.2851  -22.0123   19.6019 H   0  0  0  0  0  0
  -28.8853  -18.5199   19.6918 H   0  0  0  0  0  0
  -29.1742  -18.6905   21.3951 H   0  0  0  0  0  0
  -29.8726  -24.0808   19.3250 H   0  0  0  0  0  0
  -29.9483  -24.1749   21.0620 H   0  0  0  0  0  0
  -31.3384  -17.3088   21.1607 H   0  0  0  0  0  0
  -31.0400  -17.1681   19.4554 H   0  0  0  0  0  0
  -27.4078  -24.7094   20.9935 H   0  0  0  0  0  0
  -27.5537  -24.6537   19.2555 H   0  0  0  0  0  0
  -28.9639  -15.7603   20.8307 H   0  0  0  0  0  0
  1 25  1  0  0  0
  1 30  2  0  0  0
  1 80  1  0  0  0
  2  3  1  0  0  0
  2 25  1  0  0  0
  2 82  1  0  0  0
  2 83  1  0  0  0
  3  4  1  0  0  0
  3 84  1  0  0  0
  3 85  1  0  0  0
  4  5  1  0  0  0
  4 86  1  0  0  0
  4 87  1  0  0  0
  5  6  1  0  0  0
  5 26  1  0  0  0
  5 88  1  0  0  0
  6 25  1  0  0  0
  6 89  1  0  0  0
  6 90  1  0  0  0
  7  8  2  0  0  0
  7 26  1  0  0  0
  7 29  1  0  0  0
  8  9  1  0  0  0
  8 22  1  0  0  0
  9 10  1  0  0  0
  9 27  2  0  0  0
 10 11  2  0  0  0
 10 15  1  0  0  0
 11 12  1  0  0  0
 11 91  1  0  0  0
 12 13  2  0  0  0
 12 92  1  0  0  0
 13 14  1  0  0  0
 13 31  1  0  0  0
 14 15  2  0  0  0
 14 93  1  0  0  0
 15 94  1  0  0  0
 16 17  2  0  0  0
 16 21  1  0  0  0
 16 31  1  0  0  0
 17 18  1  0  0  0
 17 95  1  0  0  0
 18 19  2  0  0  0
 18 96  1  0  0  0
 19 20  1  0  0  0
 19 24  1  0  0  0
 20 21  2  0  0  0
 20 97  1  0  0  0
 21 23  1  0  0  0
 22 28  1  0  0  0
 22 32  2  0  0  0
 26 27  1  0  0  0
 28 98  1  0  0  0
 28 99  1  0  0  0
 29100  1  0  0  0
 29101  1  0  0  0
 33 34  1  0  0  0
 33 66  1  0  0  0
 33 70  2  0  0  0
 34 36  1  0  0  0
 34 59  1  0  0  0
 34102  1  0  0  0
 35 44  2  0  0  0
 35 45  1  0  0  0
 35 68  1  0  0  0
 36 56  1  0  0  0
 36103  1  0  0  0
 37 39  1  0  0  0
 37 47  1  0  0  0
 37 66  1  0  0  0
 37104  1  0  0  0
 38 43  2  0  0  0
 38 46  1  0  0  0
 38 47  1  0  0  0
 39 64  1  0  0  0
 39 67  2  0  0  0
 40 52  1  0  0  0
 40 53  2  0  0  0
 40 58  1  0  0  0
 41105  1  0  0  0
 41106  1  0  0  0
 41107  1  0  0  0
 41 48  1  0  0  0
 42 43  1  0  0  0
 42 66  1  0  0  0
 42108  1  0  0  0
 42109  1  0  0  0
 43 44  1  0  0  0
 44110  1  0  0  0
 45 46  2  0  0  0
 45111  1  0  0  0
 46112  1  0  0  0
 47113  1  0  0  0
 47114  1  0  0  0
 48 56  1  0  0  0
 48 65  1  0  0  0
 48115  1  0  0  0
 49 50  1  0  0  0
 49 53  1  0  0  0
 49 64  1  0  0  0
 49116  1  0  0  0
 50 51  1  0  0  0
 50117  1  0  0  0
 50118  1  0  0  0
 51 52  1  0  0  0
 51119  1  0  0  0
 51120  1  0  0  0
 52121  1  0  0  0
 52122  1  0  0  0
 53 54  1  0  0  0
 54 55  2  0  0  0
 54123  1  0  0  0
 55 57  1  0  0  0
 55124  1  0  0  0
 56 69  2  0  0  0
 57 58  2  0  0  0
 57125  1  0  0  0
 58126  1  0  0  0
 59 60  1  0  0  0
 59 61  1  0  0  0
 59 62  1  0  0  0
 60127  1  0  0  0
 60128  1  0  0  0
 60129  1  0  0  0
 61130  1  0  0  0
 61131  1  0  0  0
 61132  1  0  0  0
 62133  1  0  0  0
 62134  1  0  0  0
 62135  1  0  0  0
 63 65  1  0  0  0
 63136  1  0  0  0
 63137  1  0  0  0
 63138  1  0  0  0
 64139  1  0  0  0
 65140  1  0  0  0
 68 78  1  0  0  0
 71 72  1  0  0  0
 71 79  2  0  0  0
 71141  1  0  0  0
 72 73  2  0  0  0
 72 74  1  0  0  0
 73 75  1  0  0  0
 73 81  1  0  0  0
 74 76  1  0  0  0
 74142  1  0  0  0
 74143  1  0  0  0
 75 77  1  0  0  0
 75144  1  0  0  0
 75145  1  0  0  0
 76 78  1  0  0  0
 76146  1  0  0  0
 76147  1  0  0  0
 77 80  1  0  0  0
 77148  1  0  0  0
 77149  1  0  0  0
 78150  1  0  0  0
 78151  1  0  0  0
 79 81  1  0  0  0
 80152  1  0  0  0
M  ISO  4   1 100  68 101  78 101  80 100
M  END
> <chiral flag>
0

> <version>
0

> <s_m_source_file>
/data/baiqing/PycharmProjects/Reinvent-master-3.2/result/LINK_invent/BTK/process_docking_weight1_custom_sum_contain_oxygen_bond_distance_aromatic_linkinvent_7_9_3/rearranged_h_0093.sdf

> <i_m_source_file_index>
68

> <r_mmod_Potential_Energy-OPLS-2005>
100.582122802734

> <r_mmod_Stretch_Energy-OPLS-2005>
113.038040161133

> <r_mmod_Bend_Energy-OPLS-2005>
175.979476928711

> <r_mmod_Torsional_Energy-OPLS-2005>
193.491348266602

> <r_mmod_Improper_Torsional_Energy-OPLS-2005>
5.2890305519104

> <r_mmod_Van_der_Waal_Energy-OPLS-2005>
133.629379272461

> <r_mmod_Electrostatic_Energy-OPLS-2005>
-360.61279296875

> <r_mmod_Solvation_Energy-OPLS-2005>
-226.745086669922

> <b_mmod_Minimization_Converged-OPLS-2005>
0

> <r_mmod_RMS_Derivative-OPLS-2005>
2.34320688247681

$$$$
68
                    3D
 Structure written by MMmdl.
170178  0  0  1  0            999 V2000
  -30.6756  -14.2087   20.7085 C   0  0  0  0  0  0
  -30.4428  -12.2285   19.2567 C   0  0  0  0  0  0
  -29.4728  -12.4402   18.0690 C   0  0  0  0  0  0
  -27.9724  -12.3296   18.4640 C   0  0  0  0  0  0
  -27.7102  -13.2001   19.7013 C   0  0  2  0  0  0
  -28.6841  -12.7021   20.8133 C   0  0  0  0  0  0
  -25.4529  -14.5355   20.6573 C   0  0  0  0  0  0
  -24.3237  -13.4863   20.7719 C   0  0  0  0  0  0
  -24.6790  -12.0488   20.7529 C   0  0  0  0  0  0
  -23.9520  -10.6730   20.9690 C   0  0  0  0  0  0
  -24.4030   -9.6359   21.8512 C   0  0  0  0  0  0
  -23.6979   -8.4020   22.0464 C   0  0  0  0  0  0
  -22.4895   -8.1376   21.3505 C   0  0  0  0  0  0
  -22.0486   -9.1313   20.4520 C   0  0  0  0  0  0
  -22.7567  -10.3507   20.2703 C   0  0  0  0  0  0
  -21.7410   -6.1245   22.5174 C   0  0  0  0  0  0
  -21.4487   -6.5972   23.8162 C   0  0  0  0  0  0
  -21.3847   -5.7042   24.9049 C   0  0  0  0  0  0
  -21.6043   -4.3280   24.7066 C   0  0  0  0  0  0
  -21.8726   -3.8428   23.4138 C   0  0  0  0  0  0
  -21.9315   -4.7339   22.3249 C   0  0  0  0  0  0
  -22.8298  -13.6629   21.0592 C   0  0  0  0  0  0
  -22.1692   -4.2449   21.0836 F   0  0  0  0  0  0
  -21.5530   -3.4698   25.7531 F   0  0  0  0  0  0
  -30.0335  -13.0733   20.3765 N   0  0  0  0  0  0
  -26.3057  -13.3412   20.1812 N   0  0  0  0  0  0
  -25.9086  -12.0331   20.4072 N   0  0  0  0  0  0
  -22.2493  -12.9522   22.0285 N   0  0  0  0  0  0
  -26.0788  -16.7966   21.8871 N   0  0  0  0  0  0
  -31.7145  -14.6135   20.1713 O   0  0  0  0  0  0
  -21.7534   -6.9630   21.4209 O   0  0  0  0  0  0
  -22.1564  -14.4674   20.4261 O   0  0  0  0  0  0
  -24.6777  -31.8167   23.1595 C   0  0  0  0  0  0
  -25.9417  -32.4547   23.8036 C   0  0  1  0  0  0
  -26.8534  -26.6958   20.1394 C   0  0  0  0  0  0
  -25.6003  -33.8391   24.1912 N   0  0  0  0  0  0
  -23.4698  -30.4510   21.5369 C   0  0  2  0  0  0
  -24.8465  -28.8419   20.0714 C   0  0  0  0  0  0
  -22.7647  -29.4444   22.4838 C   0  0  0  0  0  0
  -18.0328  -28.1430   22.8479 C   0  0  0  0  0  0
  -24.1545  -36.7284   23.2598 C   0  0  0  0  0  0
  -26.0478  -30.5358   21.4147 C   0  0  0  0  0  0
  -26.0482  -29.1176   20.7362 C   0  0  0  0  0  0
  -27.0816  -28.0556   20.7478 C   0  0  0  0  0  0
  -25.6991  -26.6524   19.3717 C   0  0  0  0  0  0
  -24.7195  -27.6517   19.3520 C   0  0  0  0  0  0
  -23.6791  -29.8210   20.1410 C   0  0  0  0  0  0
  -25.4181  -36.2950   24.0203 C   0  0  1  0  0  0
  -20.5949  -28.3773   23.1216 C   0  0  2  0  0  0
  -20.6856  -26.9465   22.5435 C   0  0  0  0  0  0
  -19.5812  -26.6412   21.5256 C   0  0  0  0  0  0
  -18.1982  -26.7967   22.1650 C   0  0  0  0  0  0
  -19.1584  -28.8930   23.2829 C   0  0  0  0  0  0
  -18.9466  -30.1527   23.8853 C   0  0  0  0  0  0
  -17.6446  -30.6606   24.0567 C   0  0  0  0  0  0
  -25.9124  -34.9342   23.4876 C   0  0  0  0  0  0
  -16.5344  -29.9084   23.6349 C   0  0  0  0  0  0
  -16.7303  -28.6518   23.0349 C   0  0  0  0  0  0
  -26.4575  -31.6528   25.0621 C   0  0  0  0  0  0
  -25.3556  -31.3933   26.1166 C   0  0  0  0  0  0
  -27.0442  -30.2839   24.6457 C   0  0  0  0  0  0
  -27.6069  -32.4344   25.7390 C   0  0  0  0  0  0
  -27.5600  -37.1788   24.8394 C   0  0  0  0  0  0
  -21.4326  -29.3064   22.3589 N   0  0  0  0  0  0
  -26.4317  -37.3693   23.9330 N   0  0  0  0  0  0
  -24.7599  -30.9621   22.0897 N   0  0  0  0  0  0
  -23.4190  -28.7989   23.3072 O   0  0  0  0  0  0
  -27.5419  -25.3588   20.1126 O   0  0  0  0  0  0
  -26.5776  -34.8891   22.4499 O   0  0  0  0  0  0
  -23.5836  -32.1407   23.6534 O   0  0  0  0  0  0
  -24.6204  -15.2910   22.6625 C   0  0  0  0  0  0
  -24.0337  -16.3237   21.1242 C   0  0  0  0  0  0
  -26.4634  -14.7286   22.7161 C   0  0  0  0  0  0
  -25.2708  -16.8771   19.8004 C   0  0  0  0  0  0
  -27.6123  -15.2946   21.2893 C   0  0  0  0  0  0
  -27.0156  -14.9740   25.1627 C   0  0  0  0  0  0
  -26.7916  -22.0215   18.1049 C   0  0  0  0  0  0
  -27.0342  -14.0554   23.9437 C   0  0  0  0  0  0
  -25.3586  -18.6665   19.3905 C   0  0  0  0  0  0
  -26.1477  -20.2782   20.0303 C   0  0  0  0  0  0
  -29.6447  -16.9424   20.6039 C   0  0  0  0  0  0
  -26.9694  -23.7228   20.3398 C   0  0  0  0  0  0
  -29.0698  -15.8246   21.5719 C   0  0  1  0  0  0
  -26.2892  -22.1179   19.5588 C   0  0  1  0  0  0
  -26.9198  -16.2091   19.8812 N   0  0  0  0  0  0
  -30.1293  -14.8313   21.7513 N   0  0  0  0  0  0
  -28.8610  -18.1859   20.5106 N   0  3  0  0  0  0
  -31.4643  -12.4397   18.9391 H   0  0  0  0  0  0
  -30.4385  -11.1840   19.5668 H   0  0  0  0  0  0
  -29.7029  -11.7162   17.2833 H   0  0  0  0  0  0
  -29.6605  -13.4167   17.6274 H   0  0  0  0  0  0
  -27.7152  -11.2855   18.6431 H   0  0  0  0  0  0
  -27.3481  -12.6662   17.6352 H   0  0  0  0  0  0
  -28.0141  -14.1447   19.2697 H   0  0  0  0  0  0
  -28.6147  -11.6176   20.8930 H   0  0  0  0  0  0
  -28.4465  -13.0203   21.8198 H   0  0  0  0  0  0
  -25.3201   -9.7965   22.4056 H   0  0  0  0  0  0
  -24.0994   -7.6633   22.7209 H   0  0  0  0  0  0
  -21.1508   -8.9569   19.8781 H   0  0  0  0  0  0
  -22.3570  -11.0699   19.5688 H   0  0  0  0  0  0
  -21.2773   -7.6526   23.9743 H   0  0  0  0  0  0
  -21.1724   -6.0785   25.8967 H   0  0  0  0  0  0
  -22.0286   -2.7884   23.2549 H   0  0  0  0  0  0
  -22.7756  -12.2990   22.5890 H   0  0  0  0  0  0
  -21.2686  -13.0914   22.2413 H   0  0  0  0  0  0
  -25.1500  -17.2003   21.8282 H   0  0  0  0  0  0
  -26.5896  -16.8967   20.9913 H   0  0  0  0  0  0
  -26.7440  -32.4956   23.0678 H   0  0  0  0  0  0
  -25.0015  -33.9536   24.9953 H   0  0  0  0  0  0
  -22.7904  -31.2948   21.4042 H   0  0  0  0  0  0
  -23.3778  -35.9638   23.3141 H   0  0  0  0  0  0
  -24.3620  -36.9105   22.2037 H   0  0  0  0  0  0
  -23.7378  -37.6433   23.6815 H   0  0  0  0  0  0
  -26.2707  -31.2817   20.6484 H   0  0  0  0  0  0
  -26.8852  -30.5465   22.0953 H   0  0  0  0  0  0
  -27.9844  -28.2239   21.3208 H   0  0  0  0  0  0
  -25.5002  -25.7530   18.8028 H   0  0  0  0  0  0
  -23.8282  -27.4807   18.7622 H   0  0  0  0  0  0
  -23.8297  -30.6189   19.4088 H   0  0  0  0  0  0
  -22.7676  -29.3122   19.8249 H   0  0  0  0  0  0
  -25.1421  -36.1677   25.0696 H   0  0  0  0  0  0
  -21.0031  -28.3335   24.1321 H   0  0  0  0  0  0
  -20.5862  -26.2354   23.3662 H   0  0  0  0  0  0
  -21.6704  -26.7546   22.1141 H   0  0  0  0  0  0
  -19.6986  -25.6309   21.1311 H   0  0  0  0  0  0
  -19.6739  -27.3219   20.6761 H   0  0  0  0  0  0
  -17.4289  -26.6722   21.4019 H   0  0  0  0  0  0
  -18.0286  -26.0140   22.9053 H   0  0  0  0  0  0
  -19.7930  -30.7401   24.2165 H   0  0  0  0  0  0
  -17.4967  -31.6260   24.5210 H   0  0  0  0  0  0
  -15.5328  -30.2941   23.7735 H   0  0  0  0  0  0
  -15.8707  -28.0838   22.7050 H   0  0  0  0  0  0
  -24.5800  -30.7244   25.7402 H   0  0  0  0  0  0
  -24.8698  -32.3229   26.4148 H   0  0  0  0  0  0
  -25.7602  -30.9353   27.0188 H   0  0  0  0  0  0
  -26.3147  -29.6550   24.1360 H   0  0  0  0  0  0
  -27.3774  -29.7165   25.5141 H   0  0  0  0  0  0
  -27.9147  -30.3937   23.9990 H   0  0  0  0  0  0
  -27.2676  -33.3800   26.1615 H   0  0  0  0  0  0
  -28.3989  -32.6624   25.0242 H   0  0  0  0  0  0
  -28.0555  -31.8664   26.5542 H   0  0  0  0  0  0
  -28.2486  -38.0199   24.7486 H   0  0  0  0  0  0
  -28.1233  -36.2719   24.6156 H   0  0  0  0  0  0
  -27.2301  -37.1286   25.8783 H   0  0  0  0  0  0
  -20.9571  -29.8748   21.6722 H   0  0  0  0  0  0
  -26.0134  -38.2732   24.1330 H   0  0  0  0  0  0
  -23.9520  -15.0817   23.4857 H   0  0  0  0  0  0
  -23.0545  -16.7906   21.1557 H   0  0  0  0  0  0
  -27.3908  -14.4561   26.0463 H   0  0  0  0  0  0
  -26.0021  -15.3158   25.3767 H   0  0  0  0  0  0
  -27.6444  -15.8524   24.9974 H   0  0  0  0  0  0
  -26.1314  -21.3735   17.5223 H   0  0  0  0  0  0
  -27.7939  -21.5930   18.0329 H   0  0  0  0  0  0
  -26.7968  -22.9840   17.5962 H   0  0  0  0  0  0
  -28.0702  -13.7602   23.7660 H   0  0  0  0  0  0
  -26.4716  -13.1407   24.1436 H   0  0  0  0  0  0
  -24.2989  -18.9177   19.3605 H   0  0  0  0  0  0
  -25.6260  -18.6477   18.3330 H   0  0  0  0  0  0
  -27.2001  -20.0250   20.0390 H   0  0  0  0  0  0
  -25.8753  -20.3025   21.0843 H   0  0  0  0  0  0
  -29.7530  -16.5815   19.5781 H   0  0  0  0  0  0
  -30.6474  -17.2460   20.9109 H   0  0  0  0  0  0
  -27.8824  -23.3300   20.7978 H   0  0  0  0  0  0
  -26.3086  -23.8499   21.1992 H   0  0  0  0  0  0
  -28.9829  -16.2936   22.5508 H   0  0  0  0  0  0
  -25.2403  -22.4017   19.4741 H   0  0  0  0  0  0
  -30.8573  -15.2224   22.3326 H   0  0  0  0  0  0
  -28.0600  -17.9546   19.9433 H   0  0  0  0  0  0
  -29.3832  -18.9027   20.0246 H   0  0  0  0  0  0
  -28.5939  -18.5299   21.4176 H   0  0  0  0  0  0
  1 25  1  0  0  0
  1 30  2  0  0  0
  1 86  1  0  0  0
  2  3  1  0  0  0
  2 25  1  0  0  0
  2 88  1  0  0  0
  2 89  1  0  0  0
  3  4  1  0  0  0
  3 90  1  0  0  0
  3 91  1  0  0  0
  4  5  1  0  0  0
  4 92  1  0  0  0
  4 93  1  0  0  0
  5  6  1  0  0  0
  5 26  1  0  0  0
  5 94  1  0  0  0
  6 25  1  0  0  0
  6 95  1  0  0  0
  6 96  1  0  0  0
  7  8  2  0  0  0
  7 26  1  0  0  0
  7 29  1  0  0  0
  8  9  1  0  0  0
  8 22  1  0  0  0
  9 10  1  0  0  0
  9 27  2  0  0  0
 10 11  2  0  0  0
 10 15  1  0  0  0
 11 12  1  0  0  0
 11 97  1  0  0  0
 12 13  2  0  0  0
 12 98  1  0  0  0
 13 14  1  0  0  0
 13 31  1  0  0  0
 14 15  2  0  0  0
 14 99  1  0  0  0
 15100  1  0  0  0
 16 17  2  0  0  0
 16 21  1  0  0  0
 16 31  1  0  0  0
 17 18  1  0  0  0
 17101  1  0  0  0
 18 19  2  0  0  0
 18102  1  0  0  0
 19 20  1  0  0  0
 19 24  1  0  0  0
 20 21  2  0  0  0
 20103  1  0  0  0
 21 23  1  0  0  0
 22 28  1  0  0  0
 22 32  2  0  0  0
 26 27  1  0  0  0
 28104  1  0  0  0
 28105  1  0  0  0
 29106  1  0  0  0
 29107  1  0  0  0
 33 34  1  0  0  0
 33 66  1  0  0  0
 33 70  2  0  0  0
 34 36  1  0  0  0
 34 59  1  0  0  0
 34108  1  0  0  0
 35 44  2  0  0  0
 35 45  1  0  0  0
 35 68  1  0  0  0
 36 56  1  0  0  0
 36109  1  0  0  0
 37 39  1  0  0  0
 37 47  1  0  0  0
 37 66  1  0  0  0
 37110  1  0  0  0
 38 43  2  0  0  0
 38 46  1  0  0  0
 38 47  1  0  0  0
 39 64  1  0  0  0
 39 67  2  0  0  0
 40 52  1  0  0  0
 40 53  2  0  0  0
 40 58  1  0  0  0
 41111  1  0  0  0
 41112  1  0  0  0
 41113  1  0  0  0
 41 48  1  0  0  0
 42 43  1  0  0  0
 42 66  1  0  0  0
 42114  1  0  0  0
 42115  1  0  0  0
 43 44  1  0  0  0
 44116  1  0  0  0
 45 46  2  0  0  0
 45117  1  0  0  0
 46118  1  0  0  0
 47119  1  0  0  0
 47120  1  0  0  0
 48 56  1  0  0  0
 48 65  1  0  0  0
 48121  1  0  0  0
 49 50  1  0  0  0
 49 53  1  0  0  0
 49 64  1  0  0  0
 49122  1  0  0  0
 50 51  1  0  0  0
 50123  1  0  0  0
 50124  1  0  0  0
 51 52  1  0  0  0
 51125  1  0  0  0
 51126  1  0  0  0
 52127  1  0  0  0
 52128  1  0  0  0
 53 54  1  0  0  0
 54 55  2  0  0  0
 54129  1  0  0  0
 55 57  1  0  0  0
 55130  1  0  0  0
 56 69  2  0  0  0
 57 58  2  0  0  0
 57131  1  0  0  0
 58132  1  0  0  0
 59 60  1  0  0  0
 59 61  1  0  0  0
 59 62  1  0  0  0
 60133  1  0  0  0
 60134  1  0  0  0
 60135  1  0  0  0
 61136  1  0  0  0
 61137  1  0  0  0
 61138  1  0  0  0
 62139  1  0  0  0
 62140  1  0  0  0
 62141  1  0  0  0
 63 65  1  0  0  0
 63142  1  0  0  0
 63143  1  0  0  0
 63144  1  0  0  0
 64145  1  0  0  0
 65146  1  0  0  0
 68 82  1  0  0  0
 71 72  2  0  0  0
 71 73  1  0  0  0
 71147  1  0  0  0
 72 74  1  0  0  0
 72148  1  0  0  0
 73 75  2  0  0  0
 73 78  1  0  0  0
 74 79  1  0  0  0
 74 85  2  0  0  0
 75 83  1  0  0  0
 75 85  1  0  0  0
 76 78  1  0  0  0
 76149  1  0  0  0
 76150  1  0  0  0
 76151  1  0  0  0
 77152  1  0  0  0
 77153  1  0  0  0
 77154  1  0  0  0
 77 84  1  0  0  0
 78155  1  0  0  0
 78156  1  0  0  0
 79 80  1  0  0  0
 79157  1  0  0  0
 79158  1  0  0  0
 80 84  1  0  0  0
 80159  1  0  0  0
 80160  1  0  0  0
 81 87  1  0  0  0
 81161  1  0  0  0
 81162  1  0  0  0
 81 83  1  0  0  0
 82 84  1  0  0  0
 82163  1  0  0  0
 82164  1  0  0  0
 83 86  1  0  0  0
 83165  1  0  0  0
 84166  1  0  0  0
 86167  1  0  0  0
 87168  1  0  0  0
 87169  1  0  0  0
 87170  1  0  0  0
M  CHG  1  87   1
M  ISO  4   1 100  68 101  82 101  86 100
M  END
> <chiral flag>
0

> <version>
0

> <s_m_source_file>
/data/baiqing/PycharmProjects/Reinvent-master-3.2/result/LINK_invent/BTK/process_docking_weight1_custom_sum_contain_oxygen_bond_distance_aromatic_linkinvent_7_9_3/rearranged_h_0093.sdf

> <i_m_source_file_index>
69

> <r_mmod_Potential_Energy-OPLS-2005>
10958.3427734375

> <r_mmod_Stretch_Energy-OPLS-2005>
6817.6708984375

> <r_mmod_Bend_Energy-OPLS-2005>
779.039916992188

> <r_mmod_Torsional_Energy-OPLS-2005>
476.232574462891

> <r_mmod_Improper_Torsional_Energy-OPLS-2005>
57.9707260131836

> <r_mmod_Van_der_Waal_Energy-OPLS-2005>
2798.4296875

> <r_mmod_Electrostatic_Energy-OPLS-2005>
-713.084289550781

> <r_mmod_Solvation_Energy-OPLS-2005>
-461.408386230469

> <b_mmod_Minimization_Converged-OPLS-2005>
0

> <r_mmod_RMS_Derivative-OPLS-2005>
14.7935228347778

$$$$
69
                    3D
 Structure written by MMmdl.
177185  0  0  1  0            999 V2000
  -30.7983  -14.4324   20.5126 C   0  0  0  0  0  0
  -30.4061  -12.2683   19.4444 C   0  0  0  0  0  0
  -29.4906  -12.4530   18.2161 C   0  0  0  0  0  0
  -28.0154  -12.3359   18.6300 C   0  0  0  0  0  0
  -27.6561  -13.2173   19.8553 C   0  0  2  0  0  0
  -28.7047  -13.0754   20.9862 C   0  0  0  0  0  0
  -25.2552  -13.8228   20.5641 C   0  0  0  0  0  0
  -24.1816  -13.0506   20.9156 C   0  0  0  0  0  0
  -24.6383  -11.6973   20.8745 C   0  0  0  0  0  0
  -23.9065  -10.4339   21.0416 C   0  0  0  0  0  0
  -24.3594   -9.4221   21.9172 C   0  0  0  0  0  0
  -23.6254   -8.2270   22.0766 C   0  0  0  0  0  0
  -22.4230   -8.0316   21.3570 C   0  0  0  0  0  0
  -21.9862   -9.0305   20.4677 C   0  0  0  0  0  0
  -22.7230  -10.2168   20.3069 C   0  0  0  0  0  0
  -21.6842   -6.0724   22.5316 C   0  0  0  0  0  0
  -21.4023   -6.5634   23.8249 C   0  0  0  0  0  0
  -21.3659   -5.6776   24.9183 C   0  0  0  0  0  0
  -21.6016   -4.3042   24.7233 C   0  0  0  0  0  0
  -21.8807   -3.8143   23.4363 C   0  0  0  0  0  0
  -21.9198   -4.6951   22.3422 C   0  0  0  0  0  0
  -22.7835  -13.5326   21.1784 C   0  0  0  0  0  0
  -22.1641   -4.2131   21.0994 F   0  0  0  0  0  0
  -21.5621   -3.4521   25.7758 F   0  0  0  0  0  0
  -30.0425  -13.3040   20.4201 N   0  0  0  0  0  0
  -26.2988  -12.9403   20.3332 N   0  0  0  0  0  0
  -25.9306  -11.6570   20.5776 N   0  0  0  0  0  0
  -22.0426  -12.8392   22.0347 N   0  0  0  0  0  0
  -25.4324  -15.1924   20.3988 N   0  0  0  0  0  0
  -31.9492  -14.4936   20.0773 O   0  0  0  0  0  0
  -21.6625   -6.8879   21.4271 O   0  0  0  0  0  0
  -22.3522  -14.5617   20.6598 O   0  0  0  0  0  0
  -24.6169  -31.8763   23.2145 C   0  0  0  0  0  0
  -25.9085  -32.4849   23.8422 C   0  0  1  0  0  0
  -27.2054  -27.4630   20.0933 C   0  0  0  0  0  0
  -25.5933  -33.8642   24.2336 N   0  0  0  0  0  0
  -23.3961  -30.5094   21.5535 C   0  0  2  0  0  0
  -24.8314  -28.9828   20.1163 C   0  0  0  0  0  0
  -22.7400  -29.4743   22.4959 C   0  0  0  0  0  0
  -18.0261  -28.1467   22.8515 C   0  0  0  0  0  0
  -24.1461  -36.7319   23.2630 C   0  0  0  0  0  0
  -25.9196  -30.8619   21.3471 C   0  0  0  0  0  0
  -25.9926  -29.4940   20.7010 C   0  0  0  0  0  0
  -27.1878  -28.7462   20.6785 C   0  0  0  0  0  0
  -26.0166  -26.9548   19.5197 C   0  0  0  0  0  0
  -24.8329  -27.7095   19.5245 C   0  0  0  0  0  0
  -23.6047  -29.8607   20.1585 C   0  0  0  0  0  0
  -25.4067  -36.3090   24.0328 C   0  0  1  0  0  0
  -20.5854  -28.3766   23.1321 C   0  0  2  0  0  0
  -20.6760  -26.9506   22.5435 C   0  0  0  0  0  0
  -19.5712  -26.6459   21.5268 C   0  0  0  0  0  0
  -18.1892  -26.7999   22.1671 C   0  0  0  0  0  0
  -19.1515  -28.8926   23.2933 C   0  0  0  0  0  0
  -18.9448  -30.1491   23.9010 C   0  0  0  0  0  0
  -17.6465  -30.6674   24.0606 C   0  0  0  0  0  0
  -25.9022  -34.9477   23.5107 C   0  0  0  0  0  0
  -16.5354  -29.9216   23.6303 C   0  0  0  0  0  0
  -16.7254  -28.6617   23.0356 C   0  0  0  0  0  0
  -26.4494  -31.6649   25.0761 C   0  0  0  0  0  0
  -25.3759  -31.3944   26.1541 C   0  0  0  0  0  0
  -27.0251  -30.3042   24.6143 C   0  0  0  0  0  0
  -27.6020  -32.4414   25.7574 C   0  0  0  0  0  0
  -27.5553  -37.1807   24.8468 C   0  0  0  0  0  0
  -21.4142  -29.3116   22.3714 N   0  0  0  0  0  0
  -26.4243  -37.3778   23.9449 N   0  0  0  0  0  0
  -24.6624  -31.0959   22.0968 N   0  0  0  0  0  0
  -23.4217  -28.8259   23.2951 O   0  0  0  0  0  0
  -28.3905  -26.7699   20.1037 O   0  0  0  0  0  0
  -26.5556  -34.8948   22.4648 O   0  0  0  0  0  0
  -23.5394  -32.1432   23.7604 O   0  0  0  0  0  0
  -30.6418  -21.5527   20.2044 C   0  0  0  0  0  0
  -31.1689  -22.2891   19.1799 C   0  0  0  0  0  0
  -32.2898  -21.5237   18.7477 C   0  0  0  0  0  0
  -33.2751  -21.8809   17.6595 C   0  0  0  0  0  0
  -26.3790  -18.7226   22.0858 C   0  0  0  0  0  0
  -28.1309  -20.2794   22.9384 C   0  0  0  0  0  0
  -30.5822  -17.5314   22.9876 C   0  0  0  0  0  0
  -30.7023  -23.6267   18.6757 C   0  0  0  0  0  0
  -29.2129  -23.6204   18.2596 C   0  0  0  0  0  0
  -28.5586  -24.9924   18.4475 C   0  0  0  0  0  0
  -28.7506  -18.3001   21.3456 C   0  0  0  0  0  0
  -31.2320  -19.3391   21.3393 C   0  0  0  0  0  0
  -30.7798  -16.9042   20.5912 C   0  0  0  0  0  0
  -28.3514  -25.3569   19.9308 C   0  0  0  0  0  0
  -27.8588  -18.8260   22.5045 C   0  0  0  0  0  0
  -30.3117  -18.0520   21.5491 C   0  0  2  0  0  0
  -32.4302  -20.3995   19.4530 N   0  0  0  0  0  0
  -31.3988  -20.4046   20.3410 N   0  0  0  0  0  0
  -30.1895  -15.5688   20.8715 N   0  0  0  0  0  0
  -31.4545  -12.3071   19.1436 H   0  0  0  0  0  0
  -30.2745  -11.2791   19.8887 H   0  0  0  0  0  0
  -29.7272  -11.7135   17.4486 H   0  0  0  0  0  0
  -29.6659  -13.4302   17.7624 H   0  0  0  0  0  0
  -27.8270  -11.2851   18.8660 H   0  0  0  0  0  0
  -27.3665  -12.5723   17.7868 H   0  0  0  0  0  0
  -27.6811  -14.2486   19.4997 H   0  0  0  0  0  0
  -28.6540  -12.0774   21.4250 H   0  0  0  0  0  0
  -28.4867  -13.7755   21.7963 H   0  0  0  0  0  0
  -25.2713   -9.5682   22.4734 H   0  0  0  0  0  0
  -23.9950   -7.4655   22.7501 H   0  0  0  0  0  0
  -21.0768   -8.8863   19.8982 H   0  0  0  0  0  0
  -22.3711  -10.9701   19.6169 H   0  0  0  0  0  0
  -21.2035   -7.6132   23.9744 H   0  0  0  0  0  0
  -21.1463   -6.0490   25.9078 H   0  0  0  0  0  0
  -22.0576   -2.7606   23.2880 H   0  0  0  0  0  0
  -22.3941  -12.0115   22.4908 H   0  0  0  0  0  0
  -21.1094  -13.1586   22.2548 H   0  0  0  0  0  0
  -24.6762  -15.8637   20.4852 H   0  0  0  0  0  0
  -26.2979  -15.6122   20.0909 H   0  0  0  0  0  0
  -26.7203  -32.5580   23.1255 H   0  0  0  0  0  0
  -25.0129  -33.9807   25.0513 H   0  0  0  0  0  0
  -22.6803  -31.3252   21.4229 H   0  0  0  0  0  0
  -23.3678  -35.9705   23.3308 H   0  0  0  0  0  0
  -24.3566  -36.8905   22.2049 H   0  0  0  0  0  0
  -23.7289  -37.6554   23.6634 H   0  0  0  0  0  0
  -26.0027  -31.6196   20.5652 H   0  0  0  0  0  0
  -26.8212  -30.9369   21.9413 H   0  0  0  0  0  0
  -28.0923  -29.1499   21.1082 H   0  0  0  0  0  0
  -25.9647  -25.9808   19.0626 H   0  0  0  0  0  0
  -23.9290  -27.3115   19.0826 H   0  0  0  0  0  0
  -23.7503  -30.6475   19.4149 H   0  0  0  0  0  0
  -22.7215  -29.3051   19.8397 H   0  0  0  0  0  0
  -25.1234  -36.1895   25.0812 H   0  0  0  0  0  0
  -20.9966  -28.3376   24.1437 H   0  0  0  0  0  0
  -20.5731  -26.2408   23.3660 H   0  0  0  0  0  0
  -21.6625  -26.7589   22.1190 H   0  0  0  0  0  0
  -19.6870  -25.6375   21.1307 H   0  0  0  0  0  0
  -19.6617  -27.3269   20.6804 H   0  0  0  0  0  0
  -17.4153  -26.6753   21.4076 H   0  0  0  0  0  0
  -18.0269  -26.0173   22.9101 H   0  0  0  0  0  0
  -19.7919  -30.7246   24.2492 H   0  0  0  0  0  0
  -17.5035  -31.6349   24.5215 H   0  0  0  0  0  0
  -15.5366  -30.3191   23.7562 H   0  0  0  0  0  0
  -15.8625  -28.0982   22.7054 H   0  0  0  0  0  0
  -24.5786  -30.7419   25.7981 H   0  0  0  0  0  0
  -24.9157  -32.3237   26.4919 H   0  0  0  0  0  0
  -25.8072  -30.9163   27.0344 H   0  0  0  0  0  0
  -26.2825  -29.6956   24.0963 H   0  0  0  0  0  0
  -27.3720  -29.7138   25.4641 H   0  0  0  0  0  0
  -27.8794  -30.4288   23.9476 H   0  0  0  0  0  0
  -27.2496  -33.3644   26.2222 H   0  0  0  0  0  0
  -28.3826  -32.7146   25.0452 H   0  0  0  0  0  0
  -28.0711  -31.8546   26.5485 H   0  0  0  0  0  0
  -28.2542  -38.0112   24.7431 H   0  0  0  0  0  0
  -28.1030  -36.2623   24.6293 H   0  0  0  0  0  0
  -27.2313  -37.1518   25.8885 H   0  0  0  0  0  0
  -20.9311  -29.8871   21.6955 H   0  0  0  0  0  0
  -26.0077  -38.2828   24.1467 H   0  0  0  0  0  0
  -29.8064  -21.7556   20.8583 H   0  0  0  0  0  0
  -32.8044  -21.8925   16.6710 H   0  0  0  0  0  0
  -34.1114  -21.1875   17.6124 H   0  0  0  0  0  0
  -33.6910  -22.8769   17.8255 H   0  0  0  0  0  0
  -25.6999  -19.0021   22.8923 H   0  0  0  0  0  0
  -26.1260  -17.7083   21.7780 H   0  0  0  0  0  0
  -26.1595  -19.3750   21.2364 H   0  0  0  0  0  0
  -27.4484  -20.5814   23.7334 H   0  0  0  0  0  0
  -27.9848  -20.9769   22.1100 H   0  0  0  0  0  0
  -29.1368  -20.4120   23.3385 H   0  0  0  0  0  0
  -31.6021  -17.1457   23.0941 H   0  0  0  0  0  0
  -29.9111  -16.7131   23.2592 H   0  0  0  0  0  0
  -30.4631  -18.3123   23.7394 H   0  0  0  0  0  0
  -31.3027  -23.9673   17.8347 H   0  0  0  0  0  0
  -30.8878  -24.3769   19.4464 H   0  0  0  0  0  0
  -28.6353  -22.8966   18.8360 H   0  0  0  0  0  0
  -29.1239  -23.2953   17.2219 H   0  0  0  0  0  0
  -27.6026  -25.0150   17.9242 H   0  0  0  0  0  0
  -29.1847  -25.7360   17.9580 H   0  0  0  0  0  0
  -28.5583  -18.9381   20.4797 H   0  0  0  0  0  0
  -28.3079  -17.3515   21.0460 H   0  0  0  0  0  0
  -30.8880  -19.9389   22.1785 H   0  0  0  0  0  0
  -30.5873  -19.1878   20.4896 H   0  0  0  0  0  0
  -31.8738  -16.8711   20.6596 H   0  0  0  0  0  0
  -30.5637  -17.1367   19.5429 H   0  0  0  0  0  0
  -29.1470  -24.9588   20.5543 H   0  0  0  0  0  0
  -27.4506  -24.8983   20.3380 H   0  0  0  0  0  0
  -27.9960  -18.1815   23.3726 H   0  0  0  0  0  0
  -29.2230  -15.5229   21.1637 H   0  0  0  0  0  0
  1 25  1  0  0  0
  1 30  2  0  0  0
  1 89  1  0  0  0
  2  3  1  0  0  0
  2 25  1  0  0  0
  2 90  1  0  0  0
  2 91  1  0  0  0
  3  4  1  0  0  0
  3 92  1  0  0  0
  3 93  1  0  0  0
  4  5  1  0  0  0
  4 94  1  0  0  0
  4 95  1  0  0  0
  5  6  1  0  0  0
  5 26  1  0  0  0
  5 96  1  0  0  0
  6 25  1  0  0  0
  6 97  1  0  0  0
  6 98  1  0  0  0
  7  8  2  0  0  0
  7 26  1  0  0  0
  7 29  1  0  0  0
  8  9  1  0  0  0
  8 22  1  0  0  0
  9 10  1  0  0  0
  9 27  2  0  0  0
 10 11  2  0  0  0
 10 15  1  0  0  0
 11 12  1  0  0  0
 11 99  1  0  0  0
 12 13  2  0  0  0
 12100  1  0  0  0
 13 14  1  0  0  0
 13 31  1  0  0  0
 14 15  2  0  0  0
 14101  1  0  0  0
 15102  1  0  0  0
 16 17  2  0  0  0
 16 21  1  0  0  0
 16 31  1  0  0  0
 17 18  1  0  0  0
 17103  1  0  0  0
 18 19  2  0  0  0
 18104  1  0  0  0
 19 20  1  0  0  0
 19 24  1  0  0  0
 20 21  2  0  0  0
 20105  1  0  0  0
 21 23  1  0  0  0
 22 28  1  0  0  0
 22 32  2  0  0  0
 26 27  1  0  0  0
 28106  1  0  0  0
 28107  1  0  0  0
 29108  1  0  0  0
 29109  1  0  0  0
 33 34  1  0  0  0
 33 66  1  0  0  0
 33 70  2  0  0  0
 34 36  1  0  0  0
 34 59  1  0  0  0
 34110  1  0  0  0
 35 44  2  0  0  0
 35 45  1  0  0  0
 35 68  1  0  0  0
 36 56  1  0  0  0
 36111  1  0  0  0
 37 39  1  0  0  0
 37 47  1  0  0  0
 37 66  1  0  0  0
 37112  1  0  0  0
 38 43  2  0  0  0
 38 46  1  0  0  0
 38 47  1  0  0  0
 39 64  1  0  0  0
 39 67  2  0  0  0
 40 52  1  0  0  0
 40 53  2  0  0  0
 40 58  1  0  0  0
 41113  1  0  0  0
 41114  1  0  0  0
 41115  1  0  0  0
 41 48  1  0  0  0
 42 43  1  0  0  0
 42 66  1  0  0  0
 42116  1  0  0  0
 42117  1  0  0  0
 43 44  1  0  0  0
 44118  1  0  0  0
 45 46  2  0  0  0
 45119  1  0  0  0
 46120  1  0  0  0
 47121  1  0  0  0
 47122  1  0  0  0
 48 56  1  0  0  0
 48 65  1  0  0  0
 48123  1  0  0  0
 49 50  1  0  0  0
 49 53  1  0  0  0
 49 64  1  0  0  0
 49124  1  0  0  0
 50 51  1  0  0  0
 50125  1  0  0  0
 50126  1  0  0  0
 51 52  1  0  0  0
 51127  1  0  0  0
 51128  1  0  0  0
 52129  1  0  0  0
 52130  1  0  0  0
 53 54  1  0  0  0
 54 55  2  0  0  0
 54131  1  0  0  0
 55 57  1  0  0  0
 55132  1  0  0  0
 56 69  2  0  0  0
 57 58  2  0  0  0
 57133  1  0  0  0
 58134  1  0  0  0
 59 60  1  0  0  0
 59 61  1  0  0  0
 59 62  1  0  0  0
 60135  1  0  0  0
 60136  1  0  0  0
 60137  1  0  0  0
 61138  1  0  0  0
 61139  1  0  0  0
 61140  1  0  0  0
 62141  1  0  0  0
 62142  1  0  0  0
 62143  1  0  0  0
 63 65  1  0  0  0
 63144  1  0  0  0
 63145  1  0  0  0
 63146  1  0  0  0
 64147  1  0  0  0
 65148  1  0  0  0
 68 84  1  0  0  0
 71 72  2  0  0  0
 71 88  1  0  0  0
 71149  1  0  0  0
 72 73  1  0  0  0
 72 78  1  0  0  0
 73 74  1  0  0  0
 73 87  2  0  0  0
 74150  1  0  0  0
 74151  1  0  0  0
 74152  1  0  0  0
 75153  1  0  0  0
 75154  1  0  0  0
 75155  1  0  0  0
 75 85  1  0  0  0
 76 85  1  0  0  0
 76156  1  0  0  0
 76157  1  0  0  0
 76158  1  0  0  0
 77159  1  0  0  0
 77160  1  0  0  0
 77161  1  0  0  0
 77 86  1  0  0  0
 78 79  1  0  0  0
 78162  1  0  0  0
 78163  1  0  0  0
 79 80  1  0  0  0
 79164  1  0  0  0
 79165  1  0  0  0
 80 84  1  0  0  0
 80166  1  0  0  0
 80167  1  0  0  0
 81 85  1  0  0  0
 81 86  1  0  0  0
 81168  1  0  0  0
 81169  1  0  0  0
 82 86  1  0  0  0
 82 88  1  0  0  0
 82170  1  0  0  0
 82171  1  0  0  0
 83 86  1  0  0  0
 83 89  1  0  0  0
 83172  1  0  0  0
 83173  1  0  0  0
 84174  1  0  0  0
 84175  1  0  0  0
 85176  1  0  0  0
 87 88  1  0  0  0
 89177  1  0  0  0
M  ISO  4   1 100  68 101  84 101  89 100
M  END
> <chiral flag>
0

> <version>
0

> <s_m_source_file>
/data/baiqing/PycharmProjects/Reinvent-master-3.2/result/LINK_invent/BTK/process_docking_weight1_custom_sum_contain_oxygen_bond_distance_aromatic_linkinvent_7_9_3/rearranged_h_0093.sdf

> <i_m_source_file_index>
70

> <r_mmod_Potential_Energy-OPLS-2005>
236.914154052734

> <r_mmod_Stretch_Energy-OPLS-2005>
46.5976257324219

> <r_mmod_Bend_Energy-OPLS-2005>
393.024749755859

> <r_mmod_Torsional_Energy-OPLS-2005>
244.03971862793

> <r_mmod_Improper_Torsional_Energy-OPLS-2005>
5.88546705245972

> <r_mmod_Van_der_Waal_Energy-OPLS-2005>
158.549606323242

> <r_mmod_Electrostatic_Energy-OPLS-2005>
-421.197235107422

> <r_mmod_Solvation_Energy-OPLS-2005>
-212.407455444336

> <b_mmod_Minimization_Converged-OPLS-2005>
0

> <r_mmod_RMS_Derivative-OPLS-2005>
6.33235692977905

$$$$
70
                    3D
 Structure written by MMmdl.
179187  0  0  1  0            999 V2000
  -30.6795  -14.4449   20.5668 C   0  0  0  0  0  0
  -30.4285  -12.2887   19.4034 C   0  0  0  0  0  0
  -29.4881  -12.5213   18.2029 C   0  0  0  0  0  0
  -28.0108  -12.3756   18.6212 C   0  0  0  0  0  0
  -27.6651  -13.1975   19.8883 C   0  0  2  0  0  0
  -28.7108  -12.9336   20.9973 C   0  0  0  0  0  0
  -25.2582  -13.8150   20.5730 C   0  0  0  0  0  0
  -24.1813  -13.0419   20.9180 C   0  0  0  0  0  0
  -24.6383  -11.6906   20.8758 C   0  0  0  0  0  0
  -23.9053  -10.4303   21.0425 C   0  0  0  0  0  0
  -24.3608   -9.4219   21.9197 C   0  0  0  0  0  0
  -23.6292   -8.2243   22.0754 C   0  0  0  0  0  0
  -22.4266   -8.0303   21.3544 C   0  0  0  0  0  0
  -21.9910   -9.0275   20.4626 C   0  0  0  0  0  0
  -22.7242  -10.2148   20.3043 C   0  0  0  0  0  0
  -21.6877   -6.0745   22.5259 C   0  0  0  0  0  0
  -21.4053   -6.5659   23.8192 C   0  0  0  0  0  0
  -21.3644   -5.6801   24.9162 C   0  0  0  0  0  0
  -21.6031   -4.3066   24.7210 C   0  0  0  0  0  0
  -21.8833   -3.8153   23.4342 C   0  0  0  0  0  0
  -21.9196   -4.6970   22.3393 C   0  0  0  0  0  0
  -22.7842  -13.5247   21.1827 C   0  0  0  0  0  0
  -22.1661   -4.2158   21.0974 F   0  0  0  0  0  0
  -21.5585   -3.4544   25.7720 F   0  0  0  0  0  0
  -30.0498  -13.2463   20.4507 N   0  0  0  0  0  0
  -26.3019  -12.9296   20.3439 N   0  0  0  0  0  0
  -25.9300  -11.6474   20.5782 N   0  0  0  0  0  0
  -22.0483  -12.8217   22.0397 N   0  0  0  0  0  0
  -25.4321  -15.1835   20.4273 N   0  0  0  0  0  0
  -31.7820  -14.7011   20.0741 O   0  0  0  0  0  0
  -21.6641   -6.8882   21.4222 O   0  0  0  0  0  0
  -22.3537  -14.5550   20.6706 O   0  0  0  0  0  0
  -24.6143  -31.8646   23.2095 C   0  0  0  0  0  0
  -25.9021  -32.4788   23.8426 C   0  0  1  0  0  0
  -27.2424  -27.4475   20.1015 C   0  0  0  0  0  0
  -25.5869  -33.8598   24.2332 N   0  0  0  0  0  0
  -23.4028  -30.4924   21.5455 C   0  0  2  0  0  0
  -24.8508  -28.9546   20.1275 C   0  0  0  0  0  0
  -22.7339  -29.4708   22.4917 C   0  0  0  0  0  0
  -18.0221  -28.1462   22.8428 C   0  0  0  0  0  0
  -24.1508  -36.7345   23.2640 C   0  0  0  0  0  0
  -25.9301  -30.8419   21.3561 C   0  0  0  0  0  0
  -26.0106  -29.4736   20.7151 C   0  0  0  0  0  0
  -27.2102  -28.7284   20.6965 C   0  0  0  0  0  0
  -26.0628  -26.9384   19.5117 C   0  0  0  0  0  0
  -24.8709  -27.6847   19.5280 C   0  0  0  0  0  0
  -23.6119  -29.8169   20.1662 C   0  0  0  0  0  0
  -25.4108  -36.3084   24.0348 C   0  0  1  0  0  0
  -20.5790  -28.3796   23.1266 C   0  0  2  0  0  0
  -20.6675  -26.9494   22.5494 C   0  0  0  0  0  0
  -19.5720  -26.6454   21.5230 C   0  0  0  0  0  0
  -18.1879  -26.8023   22.1564 C   0  0  0  0  0  0
  -19.1445  -28.8944   23.2838 C   0  0  0  0  0  0
  -18.9330  -30.1576   23.8798 C   0  0  0  0  0  0
  -17.6300  -30.6650   24.0504 C   0  0  0  0  0  0
  -25.9000  -34.9453   23.5110 C   0  0  0  0  0  0
  -16.5219  -29.9134   23.6240 C   0  0  0  0  0  0
  -16.7205  -28.6603   23.0207 C   0  0  0  0  0  0
  -26.4446  -31.6532   25.0736 C   0  0  0  0  0  0
  -25.3721  -31.3691   26.1508 C   0  0  0  0  0  0
  -27.0283  -30.3000   24.6012 C   0  0  0  0  0  0
  -27.6022  -32.4218   25.7513 C   0  0  0  0  0  0
  -27.5587  -37.1815   24.8468 C   0  0  0  0  0  0
  -21.4047  -29.3117   22.3596 N   0  0  0  0  0  0
  -26.4292  -37.3763   23.9397 N   0  0  0  0  0  0
  -24.6675  -31.0796   22.0955 N   0  0  0  0  0  0
  -23.4057  -28.8243   23.2988 O   0  0  0  0  0  0
  -28.4280  -26.7423   20.0978 O   0  0  0  0  0  0
  -26.5586  -34.8887   22.4674 O   0  0  0  0  0  0
  -23.5341  -32.1384   23.7491 O   0  0  0  0  0  0
  -27.6206  -19.6475   21.9674 C   0  0  0  0  0  0
  -27.8531  -18.5475   21.1118 C   0  0  0  0  0  0
  -27.0920  -18.4747   19.9083 C   0  0  0  0  0  0
  -26.6134  -20.5719   21.6519 C   0  0  0  0  0  0
  -26.0873  -19.4540   19.6899 C   0  0  0  0  0  0
  -27.2952  -17.3909   18.8560 C   0  0  0  0  0  0
  -21.4005  -17.9398   19.0204 C   0  0  0  0  0  0
  -22.1080  -19.8705   17.5510 C   0  0  0  0  0  0
  -28.6845  -17.3893   21.6738 C   0  0  0  0  0  0
  -26.1779  -21.6547   22.6258 C   0  0  0  0  0  0
  -25.0407  -19.3622   18.5836 C   0  0  0  0  0  0
  -26.4335  -23.0949   22.1340 C   0  0  0  0  0  0
  -23.7839  -18.6501   19.1234 C   0  0  0  0  0  0
  -27.9050  -23.5484   22.1755 C   0  0  0  0  0  0
  -28.0810  -25.0469   21.8350 C   0  0  0  0  0  0
  -29.9273  -16.8441   20.9234 C   0  0  0  0  0  0
  -28.3654  -25.3306   20.3452 C   0  0  0  0  0  0
  -22.5501  -18.5415   18.1972 C   0  0  0  0  0  0
  -25.8675  -20.4714   20.5411 N   0  0  0  0  0  0
  -29.9048  -15.3895   21.1047 N   0  0  0  0  0  0
  -31.4701  -12.4066   19.0972 H   0  0  0  0  0  0
  -30.3365  -11.2675   19.7793 H   0  0  0  0  0  0
  -29.7212  -11.8266   17.3954 H   0  0  0  0  0  0
  -29.6536  -13.5216   17.7982 H   0  0  0  0  0  0
  -27.8216  -11.3182   18.8115 H   0  0  0  0  0  0
  -27.3544  -12.6607   17.7995 H   0  0  0  0  0  0
  -27.7182  -14.2481   19.6119 H   0  0  0  0  0  0
  -28.6716  -11.8861   21.3049 H   0  0  0  0  0  0
  -28.4765  -13.5024   21.8991 H   0  0  0  0  0  0
  -25.2762   -9.5706   22.4772 H   0  0  0  0  0  0
  -23.9988   -7.4658   22.7507 H   0  0  0  0  0  0
  -21.0822   -8.8842   19.8955 H   0  0  0  0  0  0
  -22.3748  -10.9700   19.6141 H   0  0  0  0  0  0
  -21.2121   -7.6179   23.9703 H   0  0  0  0  0  0
  -21.1414   -6.0541   25.9050 H   0  0  0  0  0  0
  -22.0627   -2.7622   23.2847 H   0  0  0  0  0  0
  -22.4084  -11.9868   22.4750 H   0  0  0  0  0  0
  -21.1086  -13.1218   22.2542 H   0  0  0  0  0  0
  -24.6807  -15.8463   20.5797 H   0  0  0  0  0  0
  -26.2918  -15.6326   20.1448 H   0  0  0  0  0  0
  -26.7107  -32.5529   23.1219 H   0  0  0  0  0  0
  -24.9982  -33.9749   25.0457 H   0  0  0  0  0  0
  -22.6969  -31.3135   21.4026 H   0  0  0  0  0  0
  -23.3715  -35.9734   23.3278 H   0  0  0  0  0  0
  -24.3602  -36.8942   22.2051 H   0  0  0  0  0  0
  -23.7321  -37.6577   23.6653 H   0  0  0  0  0  0
  -26.0346  -31.6060   20.5844 H   0  0  0  0  0  0
  -26.8237  -30.9042   21.9646 H   0  0  0  0  0  0
  -28.1093  -29.1272   21.1451 H   0  0  0  0  0  0
  -26.0508  -25.9745   19.0275 H   0  0  0  0  0  0
  -23.9806  -27.2774   19.0723 H   0  0  0  0  0  0
  -23.7216  -30.5896   19.4025 H   0  0  0  0  0  0
  -22.7415  -29.2278   19.8750 H   0  0  0  0  0  0
  -25.1276  -36.1926   25.0850 H   0  0  0  0  0  0
  -20.9902  -28.3434   24.1384 H   0  0  0  0  0  0
  -20.5350  -26.2490   23.3765 H   0  0  0  0  0  0
  -21.6610  -26.7405   22.1480 H   0  0  0  0  0  0
  -19.6835  -25.6321   21.1310 H   0  0  0  0  0  0
  -19.6645  -27.3321   20.6783 H   0  0  0  0  0  0
  -17.4158  -26.6867   21.3930 H   0  0  0  0  0  0
  -18.0228  -26.0104   22.8881 H   0  0  0  0  0  0
  -19.7777  -30.7460   24.2116 H   0  0  0  0  0  0
  -17.4799  -31.6323   24.5133 H   0  0  0  0  0  0
  -15.5192  -30.2982   23.7552 H   0  0  0  0  0  0
  -15.8632  -28.1014   22.6733 H   0  0  0  0  0  0
  -24.5851  -30.7032   25.7938 H   0  0  0  0  0  0
  -24.8981  -32.2898   26.4942 H   0  0  0  0  0  0
  -25.8087  -30.8917   27.0285 H   0  0  0  0  0  0
  -26.2871  -29.6755   24.1003 H   0  0  0  0  0  0
  -27.4101  -29.7155   25.4381 H   0  0  0  0  0  0
  -27.8649  -30.4402   23.9159 H   0  0  0  0  0  0
  -27.2626  -33.3466   26.2205 H   0  0  0  0  0  0
  -28.3822  -32.6801   25.0340 H   0  0  0  0  0  0
  -28.0698  -31.8234   26.5342 H   0  0  0  0  0  0
  -28.2591  -38.0124   24.7476 H   0  0  0  0  0  0
  -28.1068  -36.2633   24.6292 H   0  0  0  0  0  0
  -27.2307  -37.1493   25.8875 H   0  0  0  0  0  0
  -20.9245  -29.8748   21.6699 H   0  0  0  0  0  0
  -26.0156  -38.2838   24.1318 H   0  0  0  0  0  0
  -28.1436  -19.7311   22.9099 H   0  0  0  0  0  0
  -27.7755  -17.8419   17.9865 H   0  0  0  0  0  0
  -26.3455  -16.9664   18.5318 H   0  0  0  0  0  0
  -27.9201  -16.5617   19.1698 H   0  0  0  0  0  0
  -21.6887  -16.9813   19.4585 H   0  0  0  0  0  0
  -20.5159  -17.7622   18.4090 H   0  0  0  0  0  0
  -21.1217  -18.6020   19.8450 H   0  0  0  0  0  0
  -21.1628  -19.7436   17.0155 H   0  0  0  0  0  0
  -22.8365  -20.2140   16.8152 H   0  0  0  0  0  0
  -21.9643  -20.6614   18.2903 H   0  0  0  0  0  0
  -29.0189  -17.6660   22.6743 H   0  0  0  0  0  0
  -27.9636  -16.5868   21.8390 H   0  0  0  0  0  0
  -26.6007  -21.4854   23.6167 H   0  0  0  0  0  0
  -25.1038  -21.5271   22.7558 H   0  0  0  0  0  0
  -25.4417  -18.8711   17.6971 H   0  0  0  0  0  0
  -24.7872  -20.3764   18.2734 H   0  0  0  0  0  0
  -25.8498  -23.7632   22.7670 H   0  0  0  0  0  0
  -26.0331  -23.2082   21.1256 H   0  0  0  0  0  0
  -23.4812  -19.1335   20.0518 H   0  0  0  0  0  0
  -24.0815  -17.6486   19.4325 H   0  0  0  0  0  0
  -28.5165  -22.9324   21.5142 H   0  0  0  0  0  0
  -28.2863  -23.3777   23.1827 H   0  0  0  0  0  0
  -28.9163  -25.4455   22.4135 H   0  0  0  0  0  0
  -27.2006  -25.6004   22.1673 H   0  0  0  0  0  0
  -30.8454  -17.2731   21.3251 H   0  0  0  0  0  0
  -29.9173  -17.0921   19.8626 H   0  0  0  0  0  0
  -27.6649  -24.8126   19.6921 H   0  0  0  0  0  0
  -29.3393  -24.9097   20.0915 H   0  0  0  0  0  0
  -22.7836  -17.8520   17.3848 H   0  0  0  0  0  0
  -29.0420  -15.0303   21.4844 H   0  0  0  0  0  0
  1 25  1  0  0  0
  1 30  2  0  0  0
  1 90  1  0  0  0
  2  3  1  0  0  0
  2 25  1  0  0  0
  2 91  1  0  0  0
  2 92  1  0  0  0
  3  4  1  0  0  0
  3 93  1  0  0  0
  3 94  1  0  0  0
  4  5  1  0  0  0
  4 95  1  0  0  0
  4 96  1  0  0  0
  5  6  1  0  0  0
  5 26  1  0  0  0
  5 97  1  0  0  0
  6 25  1  0  0  0
  6 98  1  0  0  0
  6 99  1  0  0  0
  7  8  2  0  0  0
  7 26  1  0  0  0
  7 29  1  0  0  0
  8  9  1  0  0  0
  8 22  1  0  0  0
  9 10  1  0  0  0
  9 27  2  0  0  0
 10 11  2  0  0  0
 10 15  1  0  0  0
 11 12  1  0  0  0
 11100  1  0  0  0
 12 13  2  0  0  0
 12101  1  0  0  0
 13 14  1  0  0  0
 13 31  1  0  0  0
 14 15  2  0  0  0
 14102  1  0  0  0
 15103  1  0  0  0
 16 17  2  0  0  0
 16 21  1  0  0  0
 16 31  1  0  0  0
 17 18  1  0  0  0
 17104  1  0  0  0
 18 19  2  0  0  0
 18105  1  0  0  0
 19 20  1  0  0  0
 19 24  1  0  0  0
 20 21  2  0  0  0
 20106  1  0  0  0
 21 23  1  0  0  0
 22 28  1  0  0  0
 22 32  2  0  0  0
 26 27  1  0  0  0
 28107  1  0  0  0
 28108  1  0  0  0
 29109  1  0  0  0
 29110  1  0  0  0
 33 34  1  0  0  0
 33 66  1  0  0  0
 33 70  2  0  0  0
 34 36  1  0  0  0
 34 59  1  0  0  0
 34111  1  0  0  0
 35 44  2  0  0  0
 35 45  1  0  0  0
 35 68  1  0  0  0
 36 56  1  0  0  0
 36112  1  0  0  0
 37 39  1  0  0  0
 37 47  1  0  0  0
 37 66  1  0  0  0
 37113  1  0  0  0
 38 43  2  0  0  0
 38 46  1  0  0  0
 38 47  1  0  0  0
 39 64  1  0  0  0
 39 67  2  0  0  0
 40 52  1  0  0  0
 40 53  2  0  0  0
 40 58  1  0  0  0
 41114  1  0  0  0
 41115  1  0  0  0
 41116  1  0  0  0
 41 48  1  0  0  0
 42 43  1  0  0  0
 42 66  1  0  0  0
 42117  1  0  0  0
 42118  1  0  0  0
 43 44  1  0  0  0
 44119  1  0  0  0
 45 46  2  0  0  0
 45120  1  0  0  0
 46121  1  0  0  0
 47122  1  0  0  0
 47123  1  0  0  0
 48 56  1  0  0  0
 48 65  1  0  0  0
 48124  1  0  0  0
 49 50  1  0  0  0
 49 53  1  0  0  0
 49 64  1  0  0  0
 49125  1  0  0  0
 50 51  1  0  0  0
 50126  1  0  0  0
 50127  1  0  0  0
 51 52  1  0  0  0
 51128  1  0  0  0
 51129  1  0  0  0
 52130  1  0  0  0
 52131  1  0  0  0
 53 54  1  0  0  0
 54 55  2  0  0  0
 54132  1  0  0  0
 55 57  1  0  0  0
 55133  1  0  0  0
 56 69  2  0  0  0
 57 58  2  0  0  0
 57134  1  0  0  0
 58135  1  0  0  0
 59 60  1  0  0  0
 59 61  1  0  0  0
 59 62  1  0  0  0
 60136  1  0  0  0
 60137  1  0  0  0
 60138  1  0  0  0
 61139  1  0  0  0
 61140  1  0  0  0
 61141  1  0  0  0
 62142  1  0  0  0
 62143  1  0  0  0
 62144  1  0  0  0
 63 65  1  0  0  0
 63145  1  0  0  0
 63146  1  0  0  0
 63147  1  0  0  0
 64148  1  0  0  0
 65149  1  0  0  0
 68 87  1  0  0  0
 71 72  2  0  0  0
 71 74  1  0  0  0
 71150  1  0  0  0
 72 73  1  0  0  0
 72 79  1  0  0  0
 73 75  2  0  0  0
 73 76  1  0  0  0
 74 80  1  0  0  0
 74 89  2  0  0  0
 75 81  1  0  0  0
 75 89  1  0  0  0
 76151  1  0  0  0
 76152  1  0  0  0
 76153  1  0  0  0
 77154  1  0  0  0
 77155  1  0  0  0
 77156  1  0  0  0
 77 88  1  0  0  0
 78 88  1  0  0  0
 78157  1  0  0  0
 78158  1  0  0  0
 78159  1  0  0  0
 79 86  1  0  0  0
 79160  1  0  0  0
 79161  1  0  0  0
 80 82  1  0  0  0
 80162  1  0  0  0
 80163  1  0  0  0
 81 83  1  0  0  0
 81164  1  0  0  0
 81165  1  0  0  0
 82 84  1  0  0  0
 82166  1  0  0  0
 82167  1  0  0  0
 83 88  1  0  0  0
 83168  1  0  0  0
 83169  1  0  0  0
 84 85  1  0  0  0
 84170  1  0  0  0
 84171  1  0  0  0
 85 87  1  0  0  0
 85172  1  0  0  0
 85173  1  0  0  0
 86 90  1  0  0  0
 86174  1  0  0  0
 86175  1  0  0  0
 87176  1  0  0  0
 87177  1  0  0  0
 88178  1  0  0  0
 90179  1  0  0  0
M  ISO  4   1 100  68 101  87 101  90 100
M  END
> <chiral flag>
0

> <version>
0

> <s_m_source_file>
/data/baiqing/PycharmProjects/Reinvent-master-3.2/result/LINK_invent/BTK/process_docking_weight1_custom_sum_contain_oxygen_bond_distance_aromatic_linkinvent_7_9_3/rearranged_h_0093.sdf

> <i_m_source_file_index>
71

> <r_mmod_Potential_Energy-OPLS-2005>
-159.074920654297

> <r_mmod_Stretch_Energy-OPLS-2005>
36.9184989929199

> <r_mmod_Bend_Energy-OPLS-2005>
124.071189880371

> <r_mmod_Torsional_Energy-OPLS-2005>
230.654876708984

> <r_mmod_Improper_Torsional_Energy-OPLS-2005>
7.98818302154541

> <r_mmod_Van_der_Waal_Energy-OPLS-2005>
145.02848815918

> <r_mmod_Electrostatic_Energy-OPLS-2005>
-508.893920898438

> <r_mmod_Solvation_Energy-OPLS-2005>
-205.201202392578

> <b_mmod_Minimization_Converged-OPLS-2005>
0

> <r_mmod_RMS_Derivative-OPLS-2005>
6.34509563446045

$$$$
71
                    3D
 Structure written by MMmdl.
176184  0  0  1  0            999 V2000
  -30.7331  -14.4015   20.6234 C   0  0  0  0  0  0
  -30.4195  -12.2807   19.4049 C   0  0  0  0  0  0
  -29.4903  -12.5006   18.1954 C   0  0  0  0  0  0
  -28.0088  -12.3810   18.6076 C   0  0  0  0  0  0
  -27.6661  -13.2015   19.8820 C   0  0  2  0  0  0
  -28.7062  -12.9447   20.9949 C   0  0  0  0  0  0
  -25.2599  -13.8146   20.5667 C   0  0  0  0  0  0
  -24.1836  -13.0435   20.9148 C   0  0  0  0  0  0
  -24.6373  -11.6900   20.8709 C   0  0  0  0  0  0
  -23.9034  -10.4287   21.0390 C   0  0  0  0  0  0
  -24.3583   -9.4212   21.9175 C   0  0  0  0  0  0
  -23.6269   -8.2246   22.0767 C   0  0  0  0  0  0
  -22.4257   -8.0269   21.3556 C   0  0  0  0  0  0
  -21.9880   -9.0220   20.4655 C   0  0  0  0  0  0
  -22.7202  -10.2105   20.3053 C   0  0  0  0  0  0
  -21.6849   -6.0721   22.5277 C   0  0  0  0  0  0
  -21.4013   -6.5623   23.8205 C   0  0  0  0  0  0
  -21.3670   -5.6778   24.9166 C   0  0  0  0  0  0
  -21.6047   -4.3039   24.7232 C   0  0  0  0  0  0
  -21.8817   -3.8140   23.4344 C   0  0  0  0  0  0
  -21.9186   -4.6949   22.3406 C   0  0  0  0  0  0
  -22.7860  -13.5246   21.1801 C   0  0  0  0  0  0
  -22.1655   -4.2135   21.0989 F   0  0  0  0  0  0
  -21.5643   -3.4527   25.7744 F   0  0  0  0  0  0
  -30.0435  -13.2433   20.4506 N   0  0  0  0  0  0
  -26.3043  -12.9302   20.3388 N   0  0  0  0  0  0
  -25.9301  -11.6474   20.5756 N   0  0  0  0  0  0
  -22.0480  -12.8265   22.0367 N   0  0  0  0  0  0
  -25.4334  -15.1855   20.4100 N   0  0  0  0  0  0
  -31.7993  -14.6443   20.0523 O   0  0  0  0  0  0
  -21.6633   -6.8857   21.4241 O   0  0  0  0  0  0
  -22.3560  -14.5549   20.6637 O   0  0  0  0  0  0
  -24.6140  -31.8684   23.2099 C   0  0  0  0  0  0
  -25.9029  -32.4828   23.8399 C   0  0  1  0  0  0
  -27.2529  -27.4589   20.0738 C   0  0  0  0  0  0
  -25.5886  -33.8626   24.2330 N   0  0  0  0  0  0
  -23.4025  -30.4897   21.5496 C   0  0  2  0  0  0
  -24.8497  -28.9542   20.1139 C   0  0  0  0  0  0
  -22.7418  -29.4649   22.4987 C   0  0  0  0  0  0
  -18.0270  -28.1410   22.8492 C   0  0  0  0  0  0
  -24.1475  -36.7313   23.2634 C   0  0  0  0  0  0
  -25.9274  -30.8382   21.3596 C   0  0  0  0  0  0
  -26.0049  -29.4725   20.7088 C   0  0  0  0  0  0
  -27.2024  -28.7271   20.6934 C   0  0  0  0  0  0
  -26.0728  -26.9383   19.4926 C   0  0  0  0  0  0
  -24.8762  -27.6838   19.5089 C   0  0  0  0  0  0
  -23.6115  -29.8211   20.1635 C   0  0  0  0  0  0
  -25.4095  -36.3115   24.0340 C   0  0  1  0  0  0
  -20.5865  -28.3678   23.1327 C   0  0  2  0  0  0
  -20.6757  -26.9411   22.5430 C   0  0  0  0  0  0
  -19.5736  -26.6406   21.5223 C   0  0  0  0  0  0
  -18.1913  -26.7956   22.1627 C   0  0  0  0  0  0
  -19.1523  -28.8859   23.2910 C   0  0  0  0  0  0
  -18.9448  -30.1467   23.8919 C   0  0  0  0  0  0
  -17.6449  -30.6601   24.0584 C   0  0  0  0  0  0
  -25.9031  -34.9480   23.5136 C   0  0  0  0  0  0
  -16.5341  -29.9110   23.6330 C   0  0  0  0  0  0
  -16.7259  -28.6540   23.0332 C   0  0  0  0  0  0
  -26.4466  -31.6615   25.0728 C   0  0  0  0  0  0
  -25.3736  -31.3715   26.1481 C   0  0  0  0  0  0
  -27.0294  -30.3063   24.6091 C   0  0  0  0  0  0
  -27.6061  -32.4330   25.7471 C   0  0  0  0  0  0
  -27.5588  -37.1785   24.8451 C   0  0  0  0  0  0
  -21.4146  -29.3034   22.3730 N   0  0  0  0  0  0
  -26.4275  -37.3808   23.9437 N   0  0  0  0  0  0
  -24.6662  -31.0795   22.0991 N   0  0  0  0  0  0
  -23.4188  -28.8202   23.3038 O   0  0  0  0  0  0
  -28.4536  -26.7828   20.1088 O   0  0  0  0  0  0
  -26.5602  -34.8933   22.4704 O   0  0  0  0  0  0
  -23.5335  -32.1424   23.7501 O   0  0  0  0  0  0
  -28.6291  -20.2098   19.3159 C   0  0  0  0  0  0
  -30.0134  -21.5330   17.8575 C   0  0  0  0  0  0
  -28.8504  -21.4292   18.6431 C   0  0  0  0  0  0
  -29.5514  -19.1518   19.1739 C   0  0  0  0  0  0
  -30.6985  -19.3675   18.3725 C   0  0  0  0  0  0
  -29.4696  -17.0011   16.1277 C   0  0  0  0  0  0
  -26.3975  -22.1287   18.7017 C   0  0  0  0  0  0
  -29.2598  -17.8181   19.8591 C   0  0  0  0  0  0
  -31.8104  -18.3318   18.2142 C   0  0  0  0  0  0
  -30.8474  -16.5114   16.5939 C   0  0  0  0  0  0
  -29.6898  -17.7774   21.3425 C   0  0  0  0  0  0
  -31.8717  -17.6369   16.8362 C   0  0  0  0  0  0
  -29.2543  -24.5160   19.7703 C   0  0  0  0  0  0
  -28.1220  -23.4929   19.9725 C   0  0  0  0  0  0
  -30.6637  -16.6421   21.7273 C   0  0  0  0  0  0
  -28.8021  -25.8312   19.1026 C   0  0  0  0  0  0
  -27.8618  -22.5979   18.7373 C   0  0  1  0  0  0
  -30.9167  -20.5379   17.7332 N   0  0  0  0  0  0
  -30.1486  -15.3033   21.4252 N   0  0  0  0  0  0
  -31.4631  -12.3746   19.1010 H   0  0  0  0  0  0
  -30.3127  -11.2638   19.7823 H   0  0  0  0  0  0
  -29.7177  -11.7737   17.4137 H   0  0  0  0  0  0
  -29.6763  -13.4845   17.7637 H   0  0  0  0  0  0
  -27.7977  -11.3246   18.7817 H   0  0  0  0  0  0
  -27.3653  -12.6872   17.7805 H   0  0  0  0  0  0
  -27.7198  -14.2561   19.6110 H   0  0  0  0  0  0
  -28.6719  -11.8994   21.3093 H   0  0  0  0  0  0
  -28.4643  -13.5149   21.8919 H   0  0  0  0  0  0
  -25.2708   -9.5691   22.4760 H   0  0  0  0  0  0
  -23.9978   -7.4636   22.7487 H   0  0  0  0  0  0
  -21.0811   -8.8710   19.8959 H   0  0  0  0  0  0
  -22.3631  -10.9628   19.6174 H   0  0  0  0  0  0
  -21.2008   -7.6127   23.9705 H   0  0  0  0  0  0
  -21.1512   -6.0516   25.9069 H   0  0  0  0  0  0
  -22.0596   -2.7608   23.2852 H   0  0  0  0  0  0
  -22.4049  -11.9912   22.4772 H   0  0  0  0  0  0
  -21.1118  -13.1339   22.2568 H   0  0  0  0  0  0
  -24.6674  -15.8415   20.5204 H   0  0  0  0  0  0
  -26.2947  -15.6236   20.1091 H   0  0  0  0  0  0
  -26.7107  -32.5544   23.1174 H   0  0  0  0  0  0
  -25.0020  -33.9788   25.0463 H   0  0  0  0  0  0
  -22.6912  -31.3064   21.4107 H   0  0  0  0  0  0
  -23.3749  -35.9630   23.3272 H   0  0  0  0  0  0
  -24.3581  -36.8954   22.2055 H   0  0  0  0  0  0
  -23.7199  -37.6500   23.6663 H   0  0  0  0  0  0
  -26.0341  -31.6029   20.5891 H   0  0  0  0  0  0
  -26.8177  -30.8968   21.9736 H   0  0  0  0  0  0
  -28.0979  -29.1278   21.1480 H   0  0  0  0  0  0
  -26.0538  -25.9559   19.0445 H   0  0  0  0  0  0
  -23.9833  -27.2733   19.0577 H   0  0  0  0  0  0
  -23.7257  -30.5982   19.4067 H   0  0  0  0  0  0
  -22.7357  -29.2449   19.8613 H   0  0  0  0  0  0
  -25.1259  -36.1978   25.0829 H   0  0  0  0  0  0
  -20.9953  -28.3244   24.1449 H   0  0  0  0  0  0
  -20.5668  -26.2281   23.3619 H   0  0  0  0  0  0
  -21.6625  -26.7462   22.1216 H   0  0  0  0  0  0
  -19.6890  -25.6323   21.1238 H   0  0  0  0  0  0
  -19.6684  -27.3234   20.6770 H   0  0  0  0  0  0
  -17.4188  -26.6722   21.4019 H   0  0  0  0  0  0
  -18.0294  -26.0101   22.9024 H   0  0  0  0  0  0
  -19.7917  -30.7284   24.2296 H   0  0  0  0  0  0
  -17.4998  -31.6271   24.5201 H   0  0  0  0  0  0
  -15.5343  -30.3019   23.7644 H   0  0  0  0  0  0
  -15.8660  -28.0878   22.7010 H   0  0  0  0  0  0
  -24.5910  -30.7064   25.7812 H   0  0  0  0  0  0
  -24.8922  -32.2867   26.4938 H   0  0  0  0  0  0
  -25.8086  -30.8876   27.0235 H   0  0  0  0  0  0
  -26.2827  -29.6823   24.1163 H   0  0  0  0  0  0
  -27.4097  -29.7302   25.4538 H   0  0  0  0  0  0
  -27.8648  -30.4395   23.9210 H   0  0  0  0  0  0
  -27.2701  -33.3620   26.2085 H   0  0  0  0  0  0
  -28.3835  -32.6906   25.0267 H   0  0  0  0  0  0
  -28.0772  -31.8436   26.5347 H   0  0  0  0  0  0
  -28.2558  -38.0131   24.7592 H   0  0  0  0  0  0
  -28.1131  -36.2675   24.6144 H   0  0  0  0  0  0
  -27.2332  -37.1275   25.8854 H   0  0  0  0  0  0
  -20.9323  -29.8739   21.6929 H   0  0  0  0  0  0
  -26.0164  -38.2871   24.1508 H   0  0  0  0  0  0
  -27.7506  -20.0748   19.9288 H   0  0  0  0  0  0
  -30.2369  -22.4402   17.3151 H   0  0  0  0  0  0
  -29.5533  -17.6332   15.2420 H   0  0  0  0  0  0
  -28.8315  -16.1580   15.8627 H   0  0  0  0  0  0
  -28.9509  -17.5720   16.8976 H   0  0  0  0  0  0
  -26.2113  -21.4730   17.8513 H   0  0  0  0  0  0
  -25.7231  -22.9809   18.6103 H   0  0  0  0  0  0
  -26.1132  -21.5925   19.6069 H   0  0  0  0  0  0
  -29.6928  -16.9947   19.2949 H   0  0  0  0  0  0
  -28.1840  -17.6419   19.7997 H   0  0  0  0  0  0
  -31.7860  -17.5857   19.0070 H   0  0  0  0  0  0
  -32.7547  -18.8548   18.3736 H   0  0  0  0  0  0
  -31.2441  -15.8555   15.8170 H   0  0  0  0  0  0
  -30.7530  -15.8809   17.4787 H   0  0  0  0  0  0
  -28.7958  -17.7114   21.9633 H   0  0  0  0  0  0
  -30.1562  -18.7239   21.6178 H   0  0  0  0  0  0
  -32.8601  -17.1793   16.7652 H   0  0  0  0  0  0
  -31.8405  -18.3713   16.0309 H   0  0  0  0  0  0
  -30.0507  -24.0630   19.1806 H   0  0  0  0  0  0
  -29.7132  -24.7475   20.7322 H   0  0  0  0  0  0
  -27.2187  -24.0489   20.2279 H   0  0  0  0  0  0
  -28.3310  -22.8688   20.8417 H   0  0  0  0  0  0
  -30.8633  -16.6892   22.7985 H   0  0  0  0  0  0
  -31.6248  -16.8205   21.2453 H   0  0  0  0  0  0
  -28.0499  -25.6631   18.3340 H   0  0  0  0  0  0
  -29.6561  -26.2585   18.5770 H   0  0  0  0  0  0
  -27.9963  -23.2084   17.8419 H   0  0  0  0  0  0
  -29.2880  -15.0215   21.8718 H   0  0  0  0  0  0
  1 25  1  0  0  0
  1 30  2  0  0  0
  1 89  1  0  0  0
  2  3  1  0  0  0
  2 25  1  0  0  0
  2 90  1  0  0  0
  2 91  1  0  0  0
  3  4  1  0  0  0
  3 92  1  0  0  0
  3 93  1  0  0  0
  4  5  1  0  0  0
  4 94  1  0  0  0
  4 95  1  0  0  0
  5  6  1  0  0  0
  5 26  1  0  0  0
  5 96  1  0  0  0
  6 25  1  0  0  0
  6 97  1  0  0  0
  6 98  1  0  0  0
  7  8  2  0  0  0
  7 26  1  0  0  0
  7 29  1  0  0  0
  8  9  1  0  0  0
  8 22  1  0  0  0
  9 10  1  0  0  0
  9 27  2  0  0  0
 10 11  2  0  0  0
 10 15  1  0  0  0
 11 12  1  0  0  0
 11 99  1  0  0  0
 12 13  2  0  0  0
 12100  1  0  0  0
 13 14  1  0  0  0
 13 31  1  0  0  0
 14 15  2  0  0  0
 14101  1  0  0  0
 15102  1  0  0  0
 16 17  2  0  0  0
 16 21  1  0  0  0
 16 31  1  0  0  0
 17 18  1  0  0  0
 17103  1  0  0  0
 18 19  2  0  0  0
 18104  1  0  0  0
 19 20  1  0  0  0
 19 24  1  0  0  0
 20 21  2  0  0  0
 20105  1  0  0  0
 21 23  1  0  0  0
 22 28  1  0  0  0
 22 32  2  0  0  0
 26 27  1  0  0  0
 28106  1  0  0  0
 28107  1  0  0  0
 29108  1  0  0  0
 29109  1  0  0  0
 33 34  1  0  0  0
 33 66  1  0  0  0
 33 70  2  0  0  0
 34 36  1  0  0  0
 34 59  1  0  0  0
 34110  1  0  0  0
 35 44  2  0  0  0
 35 45  1  0  0  0
 35 68  1  0  0  0
 36 56  1  0  0  0
 36111  1  0  0  0
 37 39  1  0  0  0
 37 47  1  0  0  0
 37 66  1  0  0  0
 37112  1  0  0  0
 38 43  2  0  0  0
 38 46  1  0  0  0
 38 47  1  0  0  0
 39 64  1  0  0  0
 39 67  2  0  0  0
 40 52  1  0  0  0
 40 53  2  0  0  0
 40 58  1  0  0  0
 41113  1  0  0  0
 41114  1  0  0  0
 41115  1  0  0  0
 41 48  1  0  0  0
 42 43  1  0  0  0
 42 66  1  0  0  0
 42116  1  0  0  0
 42117  1  0  0  0
 43 44  1  0  0  0
 44118  1  0  0  0
 45 46  2  0  0  0
 45119  1  0  0  0
 46120  1  0  0  0
 47121  1  0  0  0
 47122  1  0  0  0
 48 56  1  0  0  0
 48 65  1  0  0  0
 48123  1  0  0  0
 49 50  1  0  0  0
 49 53  1  0  0  0
 49 64  1  0  0  0
 49124  1  0  0  0
 50 51  1  0  0  0
 50125  1  0  0  0
 50126  1  0  0  0
 51 52  1  0  0  0
 51127  1  0  0  0
 51128  1  0  0  0
 52129  1  0  0  0
 52130  1  0  0  0
 53 54  1  0  0  0
 54 55  2  0  0  0
 54131  1  0  0  0
 55 57  1  0  0  0
 55132  1  0  0  0
 56 69  2  0  0  0
 57 58  2  0  0  0
 57133  1  0  0  0
 58134  1  0  0  0
 59 60  1  0  0  0
 59 61  1  0  0  0
 59 62  1  0  0  0
 60135  1  0  0  0
 60136  1  0  0  0
 60137  1  0  0  0
 61138  1  0  0  0
 61139  1  0  0  0
 61140  1  0  0  0
 62141  1  0  0  0
 62142  1  0  0  0
 62143  1  0  0  0
 63 65  1  0  0  0
 63144  1  0  0  0
 63145  1  0  0  0
 63146  1  0  0  0
 64147  1  0  0  0
 65148  1  0  0  0
 68 86  1  0  0  0
 71 73  2  0  0  0
 71 74  1  0  0  0
 71149  1  0  0  0
 72 73  1  0  0  0
 72 88  2  0  0  0
 72150  1  0  0  0
 73 87  1  0  0  0
 74 75  2  0  0  0
 74 78  1  0  0  0
 75 79  1  0  0  0
 75 88  1  0  0  0
 76 80  1  0  0  0
 76151  1  0  0  0
 76152  1  0  0  0
 76153  1  0  0  0
 77154  1  0  0  0
 77155  1  0  0  0
 77156  1  0  0  0
 77 87  1  0  0  0
 78 81  1  0  0  0
 78157  1  0  0  0
 78158  1  0  0  0
 79 82  1  0  0  0
 79159  1  0  0  0
 79160  1  0  0  0
 80 82  1  0  0  0
 80161  1  0  0  0
 80162  1  0  0  0
 81 85  1  0  0  0
 81163  1  0  0  0
 81164  1  0  0  0
 82165  1  0  0  0
 82166  1  0  0  0
 83 84  1  0  0  0
 83 86  1  0  0  0
 83167  1  0  0  0
 83168  1  0  0  0
 84 87  1  0  0  0
 84169  1  0  0  0
 84170  1  0  0  0
 85 89  1  0  0  0
 85171  1  0  0  0
 85172  1  0  0  0
 86173  1  0  0  0
 86174  1  0  0  0
 87175  1  0  0  0
 89176  1  0  0  0
M  ISO  4   1 100  68 101  86 101  89 100
M  END
> <chiral flag>
0

> <version>
0

> <s_m_source_file>
/data/baiqing/PycharmProjects/Reinvent-master-3.2/result/LINK_invent/BTK/process_docking_weight1_custom_sum_contain_oxygen_bond_distance_aromatic_linkinvent_7_9_3/rearranged_h_0093.sdf

> <i_m_source_file_index>
72

> <r_mmod_Potential_Energy-OPLS-2005>
-188.699844360352

> <r_mmod_Stretch_Energy-OPLS-2005>
35.0808334350586

> <r_mmod_Bend_Energy-OPLS-2005>
111.991874694824

> <r_mmod_Torsional_Energy-OPLS-2005>
232.165023803711

> <r_mmod_Improper_Torsional_Energy-OPLS-2005>
2.09193921089172

> <r_mmod_Van_der_Waal_Energy-OPLS-2005>
137.925811767578

> <r_mmod_Electrostatic_Energy-OPLS-2005>
-503.764617919922

> <r_mmod_Solvation_Energy-OPLS-2005>
-213.177917480469

> <b_mmod_Minimization_Converged-OPLS-2005>
0

> <r_mmod_RMS_Derivative-OPLS-2005>
2.52342104911804

$$$$
72
                    3D
 Structure written by MMmdl.
166174  0  0  1  0            999 V2000
  -30.6850  -14.5299   20.6144 C   0  0  0  0  0  0
  -30.4419  -12.3518   19.4260 C   0  0  0  0  0  0
  -29.4979  -12.5073   18.2089 C   0  0  0  0  0  0
  -28.0223  -12.3524   18.6289 C   0  0  0  0  0  0
  -27.6675  -13.1980   19.8768 C   0  0  2  0  0  0
  -28.7092  -12.9997   21.0027 C   0  0  0  0  0  0
  -25.2654  -13.8139   20.5720 C   0  0  0  0  0  0
  -24.1877  -13.0423   20.9181 C   0  0  0  0  0  0
  -24.6402  -11.6886   20.8713 C   0  0  0  0  0  0
  -23.9034  -10.4285   21.0383 C   0  0  0  0  0  0
  -24.3599   -9.4220   21.9177 C   0  0  0  0  0  0
  -23.6293   -8.2253   22.0777 C   0  0  0  0  0  0
  -22.4299   -8.0297   21.3531 C   0  0  0  0  0  0
  -21.9875   -9.0254   20.4644 C   0  0  0  0  0  0
  -22.7197  -10.2142   20.3030 C   0  0  0  0  0  0
  -21.6899   -6.0745   22.5272 C   0  0  0  0  0  0
  -21.4039   -6.5646   23.8192 C   0  0  0  0  0  0
  -21.3630   -5.6805   24.9158 C   0  0  0  0  0  0
  -21.6027   -4.3059   24.7224 C   0  0  0  0  0  0
  -21.8827   -3.8148   23.4344 C   0  0  0  0  0  0
  -21.9202   -4.6966   22.3402 C   0  0  0  0  0  0
  -22.7908  -13.5247   21.1826 C   0  0  0  0  0  0
  -22.1677   -4.2152   21.0980 F   0  0  0  0  0  0
  -21.5610   -3.4543   25.7727 F   0  0  0  0  0  0
  -30.0341  -13.3357   20.4499 N   0  0  0  0  0  0
  -26.3063  -12.9303   20.3361 N   0  0  0  0  0  0
  -25.9325  -11.6446   20.5717 N   0  0  0  0  0  0
  -22.0554  -12.8247   22.0394 N   0  0  0  0  0  0
  -25.4302  -15.1818   20.4168 N   0  0  0  0  0  0
  -31.7819  -14.7678   20.1052 O   0  0  0  0  0  0
  -21.6682   -6.8895   21.4244 O   0  0  0  0  0  0
  -22.3533  -14.5524   20.6726 O   0  0  0  0  0  0
  -24.6161  -31.8633   23.2131 C   0  0  0  0  0  0
  -25.9022  -32.4805   23.8397 C   0  0  1  0  0  0
  -27.1866  -27.3307   20.1378 C   0  0  0  0  0  0
  -25.5871  -33.8613   24.2269 N   0  0  0  0  0  0
  -23.4080  -30.4923   21.5510 C   0  0  2  0  0  0
  -24.8493  -28.9518   20.1112 C   0  0  0  0  0  0
  -22.7459  -29.4651   22.4969 C   0  0  0  0  0  0
  -18.0262  -28.1436   22.8287 C   0  0  0  0  0  0
  -24.1451  -36.7323   23.2655 C   0  0  0  0  0  0
  -25.9463  -30.7938   21.3805 C   0  0  0  0  0  0
  -26.0156  -29.4309   20.7176 C   0  0  0  0  0  0
  -27.1899  -28.6309   20.7179 C   0  0  0  0  0  0
  -25.9979  -26.9027   19.4974 C   0  0  0  0  0  0
  -24.8425  -27.7022   19.4806 C   0  0  0  0  0  0
  -23.6256  -29.8356   20.1619 C   0  0  0  0  0  0
  -25.4109  -36.3125   24.0304 C   0  0  1  0  0  0
  -20.5906  -28.3665   23.1226 C   0  0  2  0  0  0
  -20.6821  -26.9434   22.5217 C   0  0  0  0  0  0
  -19.5828  -26.6405   21.5002 C   0  0  0  0  0  0
  -18.1945  -26.8047   22.1251 C   0  0  0  0  0  0
  -19.1505  -28.8817   23.2844 C   0  0  0  0  0  0
  -18.9370  -30.1306   23.8968 C   0  0  0  0  0  0
  -17.6356  -30.6433   24.0672 C   0  0  0  0  0  0
  -25.9067  -34.9518   23.5102 C   0  0  0  0  0  0
  -16.5233  -29.9013   23.6315 C   0  0  0  0  0  0
  -16.7224  -28.6531   23.0097 C   0  0  0  0  0  0
  -26.4468  -31.6650   25.0752 C   0  0  0  0  0  0
  -25.3654  -31.3829   26.1444 C   0  0  0  0  0  0
  -27.0286  -30.3048   24.6240 C   0  0  0  0  0  0
  -27.6041  -32.4432   25.7524 C   0  0  0  0  0  0
  -27.5558  -37.1797   24.8457 C   0  0  0  0  0  0
  -21.4210  -29.3003   22.3628 N   0  0  0  0  0  0
  -26.4302  -37.3799   23.9359 N   0  0  0  0  0  0
  -24.6741  -31.0683   22.1034 N   0  0  0  0  0  0
  -23.4204  -28.8306   23.3156 O   0  0  0  0  0  0
  -28.3117  -26.5138   20.2384 O   0  0  0  0  0  0
  -26.5664  -34.8973   22.4670 O   0  0  0  0  0  0
  -23.5335  -32.1518   23.7412 O   0  0  0  0  0  0
  -29.4760  -20.2546   21.5449 C   0  0  0  0  0  0
  -28.7321  -21.4837   21.4407 C   0  0  0  0  0  0
  -28.6327  -19.1701   21.5478 C   0  0  0  0  0  0
  -27.4150  -21.0873   21.3264 C   0  0  0  0  0  0
  -26.1867  -21.9036   21.0881 C   0  0  0  0  0  0
  -24.9852  -19.2860   22.3867 C   0  0  0  0  0  0
  -28.9751  -24.6458   18.8721 C   0  0  0  0  0  0
  -29.3959  -22.8920   21.4611 C   0  0  0  0  0  0
  -28.8387  -17.6472   21.6466 C   0  0  0  0  0  0
  -28.6129  -24.2842   21.4627 C   0  0  0  0  0  0
  -26.1158  -18.8645   21.4380 C   0  0  0  0  0  0
  -30.2100  -16.9442   21.4113 C   0  0  0  0  0  0
  -28.2056  -25.0479   20.1439 C   0  0  1  0  0  0
  -27.3406  -19.6943   21.4659 N   0  0  0  0  0  0
  -29.9889  -15.4751   21.2901 N   0  0  0  0  0  0
  -31.4746  -12.4907   19.1075 H   0  0  0  0  0  0
  -30.3805  -11.3367   19.8318 H   0  0  0  0  0  0
  -29.7483  -11.7534   17.4560 H   0  0  0  0  0  0
  -29.6533  -13.4788   17.7307 H   0  0  0  0  0  0
  -27.8535  -11.2950   18.8506 H   0  0  0  0  0  0
  -27.3618  -12.6046   17.7994 H   0  0  0  0  0  0
  -27.7037  -14.2452   19.5711 H   0  0  0  0  0  0
  -28.7038  -11.9632   21.3440 H   0  0  0  0  0  0
  -28.4417  -13.5936   21.8792 H   0  0  0  0  0  0
  -25.2748   -9.5767   22.4742 H   0  0  0  0  0  0
  -24.0031   -7.4685   22.7525 H   0  0  0  0  0  0
  -21.0782   -8.8768   19.8976 H   0  0  0  0  0  0
  -22.3619  -10.9710   19.6150 H   0  0  0  0  0  0
  -21.2067   -7.6161   23.9703 H   0  0  0  0  0  0
  -21.1428   -6.0528   25.9045 H   0  0  0  0  0  0
  -22.0633   -2.7626   23.2840 H   0  0  0  0  0  0
  -22.4143  -11.9869   22.4754 H   0  0  0  0  0  0
  -21.1191  -13.1304   22.2600 H   0  0  0  0  0  0
  -24.6561  -15.8305   20.5307 H   0  0  0  0  0  0
  -26.2824  -15.6218   20.0898 H   0  0  0  0  0  0
  -26.7046  -32.5469   23.1146 H   0  0  0  0  0  0
  -24.9844  -33.9810   25.0301 H   0  0  0  0  0  0
  -22.6891  -31.3033   21.4131 H   0  0  0  0  0  0
  -23.3719  -35.9631   23.3341 H   0  0  0  0  0  0
  -24.3575  -36.8931   22.2057 H   0  0  0  0  0  0
  -23.7182  -37.6530   23.6678 H   0  0  0  0  0  0
  -26.0712  -31.5559   20.6108 H   0  0  0  0  0  0
  -26.8301  -30.8441   22.0017 H   0  0  0  0  0  0
  -28.0844  -28.9933   21.2125 H   0  0  0  0  0  0
  -25.9092  -25.9481   19.0081 H   0  0  0  0  0  0
  -23.9525  -27.3379   18.9827 H   0  0  0  0  0  0
  -23.7619  -30.6168   19.4161 H   0  0  0  0  0  0
  -22.7426  -29.2803   19.8456 H   0  0  0  0  0  0
  -25.1267  -36.2023   25.0782 H   0  0  0  0  0  0
  -21.0072  -28.3209   24.1318 H   0  0  0  0  0  0
  -20.5841  -26.2128   23.3284 H   0  0  0  0  0  0
  -21.6641  -26.7601   22.0836 H   0  0  0  0  0  0
  -19.6932  -25.6339   21.1044 H   0  0  0  0  0  0
  -19.7000  -27.3284   20.6605 H   0  0  0  0  0  0
  -17.4419  -26.7031   21.3440 H   0  0  0  0  0  0
  -17.9975  -26.0134   22.8437 H   0  0  0  0  0  0
  -19.7776  -30.7127   24.2491 H   0  0  0  0  0  0
  -17.4972  -31.6032   24.5349 H   0  0  0  0  0  0
  -15.5221  -30.2942   23.7647 H   0  0  0  0  0  0
  -15.8724  -28.0939   22.6503 H   0  0  0  0  0  0
  -24.5822  -30.7230   25.7673 H   0  0  0  0  0  0
  -24.8890  -32.3026   26.4833 H   0  0  0  0  0  0
  -25.7925  -30.8968   27.0217 H   0  0  0  0  0  0
  -26.2812  -29.6816   24.1299 H   0  0  0  0  0  0
  -27.3953  -29.7356   25.4800 H   0  0  0  0  0  0
  -27.8739  -30.4282   23.9476 H   0  0  0  0  0  0
  -27.2607  -33.3701   26.2165 H   0  0  0  0  0  0
  -28.3834  -32.7063   25.0337 H   0  0  0  0  0  0
  -28.0744  -31.8528   26.5416 H   0  0  0  0  0  0
  -28.2605  -38.0075   24.7502 H   0  0  0  0  0  0
  -28.1035  -36.2617   24.6290 H   0  0  0  0  0  0
  -27.2295  -37.1432   25.8878 H   0  0  0  0  0  0
  -20.9556  -29.8608   21.6633 H   0  0  0  0  0  0
  -26.0206  -38.2857   24.1428 H   0  0  0  0  0  0
  -30.5546  -20.1799   21.6175 H   0  0  0  0  0  0
  -26.4262  -22.8374   20.5930 H   0  0  0  0  0  0
  -25.6712  -22.1481   22.0182 H   0  0  0  0  0  0
  -25.4869  -21.3970   20.4232 H   0  0  0  0  0  0
  -24.2970  -18.4535   22.5216 H   0  0  0  0  0  0
  -24.4002  -20.1125   21.9913 H   0  0  0  0  0  0
  -25.3497  -19.5474   23.3762 H   0  0  0  0  0  0
  -28.2858  -24.4980   18.0439 H   0  0  0  0  0  0
  -29.5654  -23.7351   18.9528 H   0  0  0  0  0  0
  -29.6747  -25.4298   18.5796 H   0  0  0  0  0  0
  -30.2103  -22.8850   20.7427 H   0  0  0  0  0  0
  -29.9256  -22.8992   22.4140 H   0  0  0  0  0  0
  -28.1685  -17.1816   20.9237 H   0  0  0  0  0  0
  -28.4801  -17.3397   22.6276 H   0  0  0  0  0  0
  -29.2976  -24.9849   21.9359 H   0  0  0  0  0  0
  -27.7700  -24.2501   22.1529 H   0  0  0  0  0  0
  -25.7548  -18.7837   20.4112 H   0  0  0  0  0  0
  -26.3466  -17.8441   21.7436 H   0  0  0  0  0  0
  -30.8788  -17.1401   22.2504 H   0  0  0  0  0  0
  -30.6885  -17.3375   20.5129 H   0  0  0  0  0  0
  -27.1780  -24.7304   19.9961 H   0  0  0  0  0  0
  -29.1190  -15.1420   21.6753 H   0  0  0  0  0  0
  1 25  1  0  0  0
  1 30  2  0  0  0
  1 85  1  0  0  0
  2  3  1  0  0  0
  2 25  1  0  0  0
  2 86  1  0  0  0
  2 87  1  0  0  0
  3  4  1  0  0  0
  3 88  1  0  0  0
  3 89  1  0  0  0
  4  5  1  0  0  0
  4 90  1  0  0  0
  4 91  1  0  0  0
  5  6  1  0  0  0
  5 26  1  0  0  0
  5 92  1  0  0  0
  6 25  1  0  0  0
  6 93  1  0  0  0
  6 94  1  0  0  0
  7  8  2  0  0  0
  7 26  1  0  0  0
  7 29  1  0  0  0
  8  9  1  0  0  0
  8 22  1  0  0  0
  9 10  1  0  0  0
  9 27  2  0  0  0
 10 11  2  0  0  0
 10 15  1  0  0  0
 11 12  1  0  0  0
 11 95  1  0  0  0
 12 13  2  0  0  0
 12 96  1  0  0  0
 13 14  1  0  0  0
 13 31  1  0  0  0
 14 15  2  0  0  0
 14 97  1  0  0  0
 15 98  1  0  0  0
 16 17  2  0  0  0
 16 21  1  0  0  0
 16 31  1  0  0  0
 17 18  1  0  0  0
 17 99  1  0  0  0
 18 19  2  0  0  0
 18100  1  0  0  0
 19 20  1  0  0  0
 19 24  1  0  0  0
 20 21  2  0  0  0
 20101  1  0  0  0
 21 23  1  0  0  0
 22 28  1  0  0  0
 22 32  2  0  0  0
 26 27  1  0  0  0
 28102  1  0  0  0
 28103  1  0  0  0
 29104  1  0  0  0
 29105  1  0  0  0
 33 34  1  0  0  0
 33 66  1  0  0  0
 33 70  2  0  0  0
 34 36  1  0  0  0
 34 59  1  0  0  0
 34106  1  0  0  0
 35 44  2  0  0  0
 35 45  1  0  0  0
 35 68  1  0  0  0
 36 56  1  0  0  0
 36107  1  0  0  0
 37 39  1  0  0  0
 37 47  1  0  0  0
 37 66  1  0  0  0
 37108  1  0  0  0
 38 43  2  0  0  0
 38 46  1  0  0  0
 38 47  1  0  0  0
 39 64  1  0  0  0
 39 67  2  0  0  0
 40 52  1  0  0  0
 40 53  2  0  0  0
 40 58  1  0  0  0
 41109  1  0  0  0
 41110  1  0  0  0
 41111  1  0  0  0
 41 48  1  0  0  0
 42 43  1  0  0  0
 42 66  1  0  0  0
 42112  1  0  0  0
 42113  1  0  0  0
 43 44  1  0  0  0
 44114  1  0  0  0
 45 46  2  0  0  0
 45115  1  0  0  0
 46116  1  0  0  0
 47117  1  0  0  0
 47118  1  0  0  0
 48 56  1  0  0  0
 48 65  1  0  0  0
 48119  1  0  0  0
 49 50  1  0  0  0
 49 53  1  0  0  0
 49 64  1  0  0  0
 49120  1  0  0  0
 50 51  1  0  0  0
 50121  1  0  0  0
 50122  1  0  0  0
 51 52  1  0  0  0
 51123  1  0  0  0
 51124  1  0  0  0
 52125  1  0  0  0
 52126  1  0  0  0
 53 54  1  0  0  0
 54 55  2  0  0  0
 54127  1  0  0  0
 55 57  1  0  0  0
 55128  1  0  0  0
 56 69  2  0  0  0
 57 58  2  0  0  0
 57129  1  0  0  0
 58130  1  0  0  0
 59 60  1  0  0  0
 59 61  1  0  0  0
 59 62  1  0  0  0
 60131  1  0  0  0
 60132  1  0  0  0
 60133  1  0  0  0
 61134  1  0  0  0
 61135  1  0  0  0
 61136  1  0  0  0
 62137  1  0  0  0
 62138  1  0  0  0
 62139  1  0  0  0
 63 65  1  0  0  0
 63140  1  0  0  0
 63141  1  0  0  0
 63142  1  0  0  0
 64143  1  0  0  0
 65144  1  0  0  0
 68 83  1  0  0  0
 71 72  1  0  0  0
 71 73  2  0  0  0
 71145  1  0  0  0
 72 74  2  0  0  0
 72 78  1  0  0  0
 73 79  1  0  0  0
 73 84  1  0  0  0
 74 75  1  0  0  0
 74 84  1  0  0  0
 75146  1  0  0  0
 75147  1  0  0  0
 75148  1  0  0  0
 76 81  1  0  0  0
 76149  1  0  0  0
 76150  1  0  0  0
 76151  1  0  0  0
 77152  1  0  0  0
 77153  1  0  0  0
 77154  1  0  0  0
 77 83  1  0  0  0
 78 80  1  0  0  0
 78155  1  0  0  0
 78156  1  0  0  0
 79 82  1  0  0  0
 79157  1  0  0  0
 79158  1  0  0  0
 80 83  1  0  0  0
 80159  1  0  0  0
 80160  1  0  0  0
 81 84  1  0  0  0
 81161  1  0  0  0
 81162  1  0  0  0
 82 85  1  0  0  0
 82163  1  0  0  0
 82164  1  0  0  0
 83165  1  0  0  0
 85166  1  0  0  0
M  ISO  4   1 100  68 101  83 101  85 100
M  END
> <chiral flag>
0

> <version>
0

> <s_m_source_file>
/data/baiqing/PycharmProjects/Reinvent-master-3.2/result/LINK_invent/BTK/process_docking_weight1_custom_sum_contain_oxygen_bond_distance_aromatic_linkinvent_7_9_3/rearranged_h_0093.sdf

> <i_m_source_file_index>
73

> <r_mmod_Potential_Energy-OPLS-2005>
3.26571679115295

> <r_mmod_Stretch_Energy-OPLS-2005>
63.8480186462402

> <r_mmod_Bend_Energy-OPLS-2005>
168.119445800781

> <r_mmod_Torsional_Energy-OPLS-2005>
236.028625488281

> <r_mmod_Improper_Torsional_Energy-OPLS-2005>
3.01298809051514

> <r_mmod_Van_der_Waal_Energy-OPLS-2005>
134.377166748047

> <r_mmod_Electrostatic_Energy-OPLS-2005>
-425.124359130859

> <r_mmod_Solvation_Energy-OPLS-2005>
-211.770278930664

> <b_mmod_Minimization_Converged-OPLS-2005>
0

> <r_mmod_RMS_Derivative-OPLS-2005>
10.2988538742065

$$$$
73
                    3D
 Structure written by MMmdl.
176184  0  0  1  0            999 V2000
  -30.7004  -14.4479   20.6254 C   0  0  0  0  0  0
  -30.4276  -12.3113   19.4187 C   0  0  0  0  0  0
  -29.4947  -12.5113   18.2073 C   0  0  0  0  0  0
  -28.0169  -12.3649   18.6200 C   0  0  0  0  0  0
  -27.6624  -13.2007   19.8780 C   0  0  2  0  0  0
  -28.6975  -12.9626   20.9982 C   0  0  0  0  0  0
  -25.2595  -13.8150   20.5668 C   0  0  0  0  0  0
  -24.1830  -13.0432   20.9161 C   0  0  0  0  0  0
  -24.6377  -11.6900   20.8728 C   0  0  0  0  0  0
  -23.9040  -10.4295   21.0388 C   0  0  0  0  0  0
  -24.3598   -9.4224   21.9174 C   0  0  0  0  0  0
  -23.6283   -8.2253   22.0747 C   0  0  0  0  0  0
  -22.4270   -8.0276   21.3539 C   0  0  0  0  0  0
  -21.9895   -9.0244   20.4642 C   0  0  0  0  0  0
  -22.7209  -10.2127   20.3047 C   0  0  0  0  0  0
  -21.6848   -6.0723   22.5274 C   0  0  0  0  0  0
  -21.4015   -6.5633   23.8205 C   0  0  0  0  0  0
  -21.3662   -5.6783   24.9169 C   0  0  0  0  0  0
  -21.6044   -4.3046   24.7220 C   0  0  0  0  0  0
  -21.8826   -3.8139   23.4339 C   0  0  0  0  0  0
  -21.9199   -4.6954   22.3400 C   0  0  0  0  0  0
  -22.7869  -13.5256   21.1839 C   0  0  0  0  0  0
  -22.1667   -4.2148   21.0974 F   0  0  0  0  0  0
  -21.5629   -3.4539   25.7730 F   0  0  0  0  0  0
  -30.0312  -13.2760   20.4559 N   0  0  0  0  0  0
  -26.3012  -12.9302   20.3358 N   0  0  0  0  0  0
  -25.9302  -11.6468   20.5757 N   0  0  0  0  0  0
  -22.0503  -12.8236   22.0388 N   0  0  0  0  0  0
  -25.4337  -15.1857   20.4063 N   0  0  0  0  0  0
  -31.7895  -14.6806   20.0925 O   0  0  0  0  0  0
  -21.6636   -6.8867   21.4230 O   0  0  0  0  0  0
  -22.3565  -14.5558   20.6684 O   0  0  0  0  0  0
  -24.6143  -31.8685   23.2075 C   0  0  0  0  0  0
  -25.9061  -32.4799   23.8357 C   0  0  1  0  0  0
  -27.2342  -27.4398   20.0701 C   0  0  0  0  0  0
  -25.5928  -33.8581   24.2307 N   0  0  0  0  0  0
  -23.3996  -30.4937   21.5485 C   0  0  2  0  0  0
  -24.8407  -28.9549   20.1119 C   0  0  0  0  0  0
  -22.7422  -29.4656   22.4984 C   0  0  0  0  0  0
  -18.0290  -28.1384   22.8472 C   0  0  0  0  0  0
  -24.1497  -36.7291   23.2642 C   0  0  0  0  0  0
  -25.9271  -30.8341   21.3563 C   0  0  0  0  0  0
  -26.0018  -29.4667   20.7043 C   0  0  0  0  0  0
  -27.1973  -28.7145   20.6831 C   0  0  0  0  0  0
  -26.0484  -26.9340   19.4911 C   0  0  0  0  0  0
  -24.8567  -27.6846   19.5097 C   0  0  0  0  0  0
  -23.6057  -29.8266   20.1626 C   0  0  0  0  0  0
  -25.4112  -36.3084   24.0343 C   0  0  1  0  0  0
  -20.5874  -28.3652   23.1309 C   0  0  2  0  0  0
  -20.6774  -26.9389   22.5410 C   0  0  0  0  0  0
  -19.5762  -26.6381   21.5206 C   0  0  0  0  0  0
  -18.1938  -26.7929   22.1620 C   0  0  0  0  0  0
  -19.1533  -28.8846   23.2881 C   0  0  0  0  0  0
  -18.9481  -30.1465   23.8877 C   0  0  0  0  0  0
  -17.6480  -30.6572   24.0590 C   0  0  0  0  0  0
  -25.9040  -34.9451   23.5113 C   0  0  0  0  0  0
  -16.5374  -29.9088   23.6316 C   0  0  0  0  0  0
  -16.7284  -28.6533   23.0291 C   0  0  0  0  0  0
  -26.4480  -31.6575   25.0691 C   0  0  0  0  0  0
  -25.3751  -31.3693   26.1463 C   0  0  0  0  0  0
  -27.0315  -30.3030   24.6028 C   0  0  0  0  0  0
  -27.6050  -32.4294   25.7456 C   0  0  0  0  0  0
  -27.5572  -37.1784   24.8470 C   0  0  0  0  0  0
  -21.4160  -29.3029   22.3749 N   0  0  0  0  0  0
  -26.4283  -37.3772   23.9416 N   0  0  0  0  0  0
  -24.6656  -31.0784   22.0971 N   0  0  0  0  0  0
  -23.4206  -28.8196   23.3012 O   0  0  0  0  0  0
  -28.4323  -26.7502   20.0576 O   0  0  0  0  0  0
  -26.5600  -34.8925   22.4675 O   0  0  0  0  0  0
  -23.5336  -32.1436   23.7476 O   0  0  0  0  0  0
  -27.9422  -19.8197   20.1150 C   0  0  0  0  0  0
  -28.1701  -17.7419   21.3220 C   0  0  0  0  0  0
  -27.3417  -18.7771   20.8398 C   0  0  0  0  0  0
  -29.3310  -19.8210   19.9196 C   0  0  0  0  0  0
  -29.5594  -17.8097   21.0779 C   0  0  0  0  0  0
  -23.7473  -21.9478   22.2512 C   0  0  0  0  0  0
  -24.8847  -21.6849   20.0224 C   0  0  0  0  0  0
  -31.7521  -23.4563   18.6107 C   0  0  0  0  0  0
  -25.8410  -18.8060   21.1021 C   0  0  0  0  0  0
  -29.9867  -20.9674   19.1519 C   0  0  0  0  0  0
  -30.5082  -16.7406   21.6155 C   0  0  0  0  0  0
  -25.3883  -20.0356   21.9285 C   0  0  0  0  0  0
  -29.7699  -22.3672   19.7902 C   0  0  0  0  0  0
  -29.9440  -24.9455   19.5532 C   0  0  0  0  0  0
  -28.4883  -25.4455   19.4676 C   0  0  0  0  0  0
  -24.3318  -20.9390   21.2489 C   0  0  0  0  0  0
  -30.2451  -23.5610   18.9160 C   0  0  1  0  0  0
  -30.1282  -18.8340   20.3947 N   0  0  0  0  0  0
  -30.0616  -15.3686   21.3630 N   0  0  0  0  0  0
  -31.4705  -12.4294   19.1168 H   0  0  0  0  0  0
  -30.3441  -11.2944   19.8054 H   0  0  0  0  0  0
  -29.7355  -11.7915   17.4244 H   0  0  0  0  0  0
  -29.6606  -13.4996   17.7752 H   0  0  0  0  0  0
  -27.8330  -11.3083   18.8157 H   0  0  0  0  0  0
  -27.3637  -12.6369   17.7908 H   0  0  0  0  0  0
  -27.7144  -14.2515   19.5908 H   0  0  0  0  0  0
  -28.6743  -11.9214   21.3228 H   0  0  0  0  0  0
  -28.4433  -13.5407   21.8873 H   0  0  0  0  0  0
  -25.2743   -9.5695   22.4754 H   0  0  0  0  0  0
  -23.9994   -7.4640   22.7464 H   0  0  0  0  0  0
  -21.0836   -8.8752   19.8948 H   0  0  0  0  0  0
  -22.3665  -10.9660   19.6164 H   0  0  0  0  0  0
  -21.2003   -7.6148   23.9706 H   0  0  0  0  0  0
  -21.1475   -6.0519   25.9071 H   0  0  0  0  0  0
  -22.0603   -2.7609   23.2838 H   0  0  0  0  0  0
  -22.4112  -11.9893   22.4772 H   0  0  0  0  0  0
  -21.1123  -13.1268   22.2595 H   0  0  0  0  0  0
  -24.6604  -15.8344   20.4938 H   0  0  0  0  0  0
  -26.2890  -15.6222   20.0853 H   0  0  0  0  0  0
  -26.7135  -32.5490   23.1106 H   0  0  0  0  0  0
  -25.0114  -33.9747   25.0475 H   0  0  0  0  0  0
  -22.6860  -31.3090   21.4083 H   0  0  0  0  0  0
  -23.3742  -35.9635   23.3319 H   0  0  0  0  0  0
  -24.3619  -36.8900   22.2062 H   0  0  0  0  0  0
  -23.7267  -37.6505   23.6644 H   0  0  0  0  0  0
  -26.0369  -31.5978   20.5864 H   0  0  0  0  0  0
  -26.8167  -30.8876   21.9703 H   0  0  0  0  0  0
  -28.0990  -29.1126   21.1260 H   0  0  0  0  0  0
  -26.0188  -25.9665   19.0132 H   0  0  0  0  0  0
  -23.9618  -27.2788   19.0584 H   0  0  0  0  0  0
  -23.7175  -30.6036   19.4055 H   0  0  0  0  0  0
  -22.7258  -29.2570   19.8634 H   0  0  0  0  0  0
  -25.1279  -36.1932   25.0831 H   0  0  0  0  0  0
  -20.9964  -28.3216   24.1437 H   0  0  0  0  0  0
  -20.5669  -26.2277   23.3602 H   0  0  0  0  0  0
  -21.6641  -26.7417   22.1225 H   0  0  0  0  0  0
  -19.6921  -25.6295   21.1235 H   0  0  0  0  0  0
  -19.6702  -27.3202   20.6737 H   0  0  0  0  0  0
  -17.4208  -26.6681   21.4033 H   0  0  0  0  0  0
  -18.0330  -26.0074   22.9010 H   0  0  0  0  0  0
  -19.7962  -30.7289   24.2203 H   0  0  0  0  0  0
  -17.5041  -31.6229   24.5227 H   0  0  0  0  0  0
  -15.5377  -30.2986   23.7652 H   0  0  0  0  0  0
  -15.8698  -28.0895   22.6902 H   0  0  0  0  0  0
  -24.5914  -30.7033   25.7836 H   0  0  0  0  0  0
  -24.8923  -32.2851   26.4882 H   0  0  0  0  0  0
  -25.8119  -30.8900   27.0236 H   0  0  0  0  0  0
  -26.2845  -29.6769   24.1124 H   0  0  0  0  0  0
  -27.4211  -29.7278   25.4435 H   0  0  0  0  0  0
  -27.8615  -30.4403   23.9090 H   0  0  0  0  0  0
  -27.2670  -33.3599   26.2035 H   0  0  0  0  0  0
  -28.3853  -32.6851   25.0275 H   0  0  0  0  0  0
  -28.0712  -31.8399   26.5373 H   0  0  0  0  0  0
  -28.2573  -38.0088   24.7505 H   0  0  0  0  0  0
  -28.1088  -36.2614   24.6288 H   0  0  0  0  0  0
  -27.2312  -37.1443   25.8884 H   0  0  0  0  0  0
  -20.9322  -29.8815   21.7031 H   0  0  0  0  0  0
  -26.0175  -38.2847   24.1406 H   0  0  0  0  0  0
  -27.3445  -20.6290   19.7268 H   0  0  0  0  0  0
  -27.7479  -16.9259   21.8932 H   0  0  0  0  0  0
  -22.9777  -22.5655   21.7861 H   0  0  0  0  0  0
  -24.5137  -22.6174   22.6446 H   0  0  0  0  0  0
  -23.2837  -21.4427   23.0996 H   0  0  0  0  0  0
  -24.1436  -22.3658   19.6003 H   0  0  0  0  0  0
  -25.1683  -20.9907   19.2311 H   0  0  0  0  0  0
  -25.7631  -22.2795   20.2798 H   0  0  0  0  0  0
  -32.1159  -24.3298   18.0677 H   0  0  0  0  0  0
  -31.9786  -22.5931   17.9866 H   0  0  0  0  0  0
  -32.3366  -23.3690   19.5269 H   0  0  0  0  0  0
  -25.5568  -17.8968   21.6333 H   0  0  0  0  0  0
  -25.3158  -18.7606   20.1478 H   0  0  0  0  0  0
  -29.5862  -20.9555   18.1382 H   0  0  0  0  0  0
  -31.0541  -20.7635   19.0588 H   0  0  0  0  0  0
  -30.5902  -16.8740   22.6945 H   0  0  0  0  0  0
  -31.5118  -16.9101   21.2225 H   0  0  0  0  0  0
  -26.2480  -20.6357   22.2313 H   0  0  0  0  0  0
  -24.9702  -19.6623   22.8631 H   0  0  0  0  0  0
  -30.2596  -22.3960   20.7647 H   0  0  0  0  0  0
  -28.7071  -22.5001   19.9898 H   0  0  0  0  0  0
  -30.2754  -24.9539   20.5917 H   0  0  0  0  0  0
  -30.5514  -25.6976   19.0487 H   0  0  0  0  0  0
  -27.8176  -24.7646   19.9925 H   0  0  0  0  0  0
  -28.1811  -25.4918   18.4206 H   0  0  0  0  0  0
  -23.5070  -20.3072   20.9150 H   0  0  0  0  0  0
  -29.7193  -23.5180   17.9594 H   0  0  0  0  0  0
  -29.1651  -15.1137   21.7459 H   0  0  0  0  0  0
  1 25  1  0  0  0
  1 30  2  0  0  0
  1 89  1  0  0  0
  2  3  1  0  0  0
  2 25  1  0  0  0
  2 90  1  0  0  0
  2 91  1  0  0  0
  3  4  1  0  0  0
  3 92  1  0  0  0
  3 93  1  0  0  0
  4  5  1  0  0  0
  4 94  1  0  0  0
  4 95  1  0  0  0
  5  6  1  0  0  0
  5 26  1  0  0  0
  5 96  1  0  0  0
  6 25  1  0  0  0
  6 97  1  0  0  0
  6 98  1  0  0  0
  7  8  2  0  0  0
  7 26  1  0  0  0
  7 29  1  0  0  0
  8  9  1  0  0  0
  8 22  1  0  0  0
  9 10  1  0  0  0
  9 27  2  0  0  0
 10 11  2  0  0  0
 10 15  1  0  0  0
 11 12  1  0  0  0
 11 99  1  0  0  0
 12 13  2  0  0  0
 12100  1  0  0  0
 13 14  1  0  0  0
 13 31  1  0  0  0
 14 15  2  0  0  0
 14101  1  0  0  0
 15102  1  0  0  0
 16 17  2  0  0  0
 16 21  1  0  0  0
 16 31  1  0  0  0
 17 18  1  0  0  0
 17103  1  0  0  0
 18 19  2  0  0  0
 18104  1  0  0  0
 19 20  1  0  0  0
 19 24  1  0  0  0
 20 21  2  0  0  0
 20105  1  0  0  0
 21 23  1  0  0  0
 22 28  1  0  0  0
 22 32  2  0  0  0
 26 27  1  0  0  0
 28106  1  0  0  0
 28107  1  0  0  0
 29108  1  0  0  0
 29109  1  0  0  0
 33 34  1  0  0  0
 33 66  1  0  0  0
 33 70  2  0  0  0
 34 36  1  0  0  0
 34 59  1  0  0  0
 34110  1  0  0  0
 35 44  2  0  0  0
 35 45  1  0  0  0
 35 68  1  0  0  0
 36 56  1  0  0  0
 36111  1  0  0  0
 37 39  1  0  0  0
 37 47  1  0  0  0
 37 66  1  0  0  0
 37112  1  0  0  0
 38 43  2  0  0  0
 38 46  1  0  0  0
 38 47  1  0  0  0
 39 64  1  0  0  0
 39 67  2  0  0  0
 40 52  1  0  0  0
 40 53  2  0  0  0
 40 58  1  0  0  0
 41113  1  0  0  0
 41114  1  0  0  0
 41115  1  0  0  0
 41 48  1  0  0  0
 42 43  1  0  0  0
 42 66  1  0  0  0
 42116  1  0  0  0
 42117  1  0  0  0
 43 44  1  0  0  0
 44118  1  0  0  0
 45 46  2  0  0  0
 45119  1  0  0  0
 46120  1  0  0  0
 47121  1  0  0  0
 47122  1  0  0  0
 48 56  1  0  0  0
 48 65  1  0  0  0
 48123  1  0  0  0
 49 50  1  0  0  0
 49 53  1  0  0  0
 49 64  1  0  0  0
 49124  1  0  0  0
 50 51  1  0  0  0
 50125  1  0  0  0
 50126  1  0  0  0
 51 52  1  0  0  0
 51127  1  0  0  0
 51128  1  0  0  0
 52129  1  0  0  0
 52130  1  0  0  0
 53 54  1  0  0  0
 54 55  2  0  0  0
 54131  1  0  0  0
 55 57  1  0  0  0
 55132  1  0  0  0
 56 69  2  0  0  0
 57 58  2  0  0  0
 57133  1  0  0  0
 58134  1  0  0  0
 59 60  1  0  0  0
 59 61  1  0  0  0
 59 62  1  0  0  0
 60135  1  0  0  0
 60136  1  0  0  0
 60137  1  0  0  0
 61138  1  0  0  0
 61139  1  0  0  0
 61140  1  0  0  0
 62141  1  0  0  0
 62142  1  0  0  0
 62143  1  0  0  0
 63 65  1  0  0  0
 63144  1  0  0  0
 63145  1  0  0  0
 63146  1  0  0  0
 64147  1  0  0  0
 65148  1  0  0  0
 68 85  1  0  0  0
 71 73  2  0  0  0
 71 74  1  0  0  0
 71149  1  0  0  0
 72 73  1  0  0  0
 72 75  2  0  0  0
 72150  1  0  0  0
 73 79  1  0  0  0
 74 80  1  0  0  0
 74 88  2  0  0  0
 75 81  1  0  0  0
 75 88  1  0  0  0
 76151  1  0  0  0
 76152  1  0  0  0
 76153  1  0  0  0
 76 86  1  0  0  0
 77 86  1  0  0  0
 77154  1  0  0  0
 77155  1  0  0  0
 77156  1  0  0  0
 78157  1  0  0  0
 78158  1  0  0  0
 78159  1  0  0  0
 78 87  1  0  0  0
 79 82  1  0  0  0
 79160  1  0  0  0
 79161  1  0  0  0
 80 83  1  0  0  0
 80162  1  0  0  0
 80163  1  0  0  0
 81 89  1  0  0  0
 81164  1  0  0  0
 81165  1  0  0  0
 82 86  1  0  0  0
 82166  1  0  0  0
 82167  1  0  0  0
 83 87  1  0  0  0
 83168  1  0  0  0
 83169  1  0  0  0
 84 85  1  0  0  0
 84 87  1  0  0  0
 84170  1  0  0  0
 84171  1  0  0  0
 85172  1  0  0  0
 85173  1  0  0  0
 86174  1  0  0  0
 87175  1  0  0  0
 89176  1  0  0  0
M  ISO  4   1 100  68 101  85 101  89 100
M  END
> <chiral flag>
0

> <version>
0

> <s_m_source_file>
/data/baiqing/PycharmProjects/Reinvent-master-3.2/result/LINK_invent/BTK/process_docking_weight1_custom_sum_contain_oxygen_bond_distance_aromatic_linkinvent_7_9_3/rearranged_h_0093.sdf

> <i_m_source_file_index>
74

> <r_mmod_Potential_Energy-OPLS-2005>
-331.19873046875

> <r_mmod_Stretch_Energy-OPLS-2005>
36.8938293457031

> <r_mmod_Bend_Energy-OPLS-2005>
101.187789916992

> <r_mmod_Torsional_Energy-OPLS-2005>
204.060501098633

> <r_mmod_Improper_Torsional_Energy-OPLS-2005>
2.15931916236877

> <r_mmod_Van_der_Waal_Energy-OPLS-2005>
148.676986694336

> <r_mmod_Electrostatic_Energy-OPLS-2005>
-624.411926269531

> <r_mmod_Solvation_Energy-OPLS-2005>
-210.256912231445

> <b_mmod_Minimization_Converged-OPLS-2005>
0

> <r_mmod_RMS_Derivative-OPLS-2005>
3.01927328109741

$$$$
74
                    3D
 Structure written by MMmdl.
168176  0  0  1  0            999 V2000
  -30.6343  -14.7907   20.4447 C   0  0  0  0  0  0
  -30.4198  -12.4887   19.4768 C   0  0  0  0  0  0
  -29.5092  -12.5187   18.2319 C   0  0  0  0  0  0
  -28.0386  -12.3314   18.6468 C   0  0  0  0  0  0
  -27.6343  -13.2439   19.8366 C   0  0  2  0  0  0
  -28.6785  -13.2312   20.9723 C   0  0  0  0  0  0
  -25.2516  -13.8212   20.5699 C   0  0  0  0  0  0
  -24.1817  -13.0445   20.9201 C   0  0  0  0  0  0
  -24.6414  -11.6931   20.8729 C   0  0  0  0  0  0
  -23.9093  -10.4301   21.0378 C   0  0  0  0  0  0
  -24.3640   -9.4222   21.9161 C   0  0  0  0  0  0
  -23.6321   -8.2257   22.0734 C   0  0  0  0  0  0
  -22.4306   -8.0284   21.3515 C   0  0  0  0  0  0
  -21.9940   -9.0249   20.4612 C   0  0  0  0  0  0
  -22.7259  -10.2137   20.3028 C   0  0  0  0  0  0
  -21.6869   -6.0743   22.5280 C   0  0  0  0  0  0
  -21.4018   -6.5635   23.8216 C   0  0  0  0  0  0
  -21.3673   -5.6777   24.9174 C   0  0  0  0  0  0
  -21.6057   -4.3044   24.7212 C   0  0  0  0  0  0
  -21.8816   -3.8141   23.4333 C   0  0  0  0  0  0
  -21.9201   -4.6967   22.3394 C   0  0  0  0  0  0
  -22.7839  -13.5217   21.1857 C   0  0  0  0  0  0
  -22.1661   -4.2151   21.0974 F   0  0  0  0  0  0
  -21.5636   -3.4526   25.7719 F   0  0  0  0  0  0
  -29.9673  -13.5819   20.3726 N   0  0  0  0  0  0
  -26.2922  -12.9437   20.3238 N   0  0  0  0  0  0
  -25.9344  -11.6562   20.5720 N   0  0  0  0  0  0
  -22.0490  -12.8202   22.0407 N   0  0  0  0  0  0
  -25.4216  -15.1943   20.4180 N   0  0  0  0  0  0
  -31.8419  -14.7998   20.1873 O   0  0  0  0  0  0
  -21.6653   -6.8888   21.4244 O   0  0  0  0  0  0
  -22.3523  -14.5522   20.6695 O   0  0  0  0  0  0
  -24.6343  -31.8540   23.1955 C   0  0  0  0  0  0
  -25.9156  -32.4738   23.8328 C   0  0  1  0  0  0
  -27.2124  -27.2256   20.1328 C   0  0  0  0  0  0
  -25.5933  -33.8537   24.2251 N   0  0  0  0  0  0
  -23.4306  -30.4757   21.5437 C   0  0  2  0  0  0
  -24.8755  -28.9192   20.1138 C   0  0  0  0  0  0
  -22.7514  -29.4594   22.4939 C   0  0  0  0  0  0
  -18.0294  -28.1370   22.8494 C   0  0  0  0  0  0
  -24.1486  -36.7265   23.2644 C   0  0  0  0  0  0
  -25.9812  -30.7571   21.3774 C   0  0  0  0  0  0
  -26.0536  -29.3771   20.7177 C   0  0  0  0  0  0
  -27.2264  -28.5471   20.7103 C   0  0  0  0  0  0
  -26.0033  -26.8468   19.5046 C   0  0  0  0  0  0
  -24.8578  -27.6625   19.4963 C   0  0  0  0  0  0
  -23.6476  -29.8092   20.1606 C   0  0  0  0  0  0
  -25.4109  -36.3055   24.0333 C   0  0  1  0  0  0
  -20.5899  -28.3693   23.1267 C   0  0  2  0  0  0
  -20.6772  -26.9412   22.5406 C   0  0  0  0  0  0
  -19.5741  -26.6370   21.5215 C   0  0  0  0  0  0
  -18.1926  -26.7909   22.1637 C   0  0  0  0  0  0
  -19.1548  -28.8847   23.2868 C   0  0  0  0  0  0
  -18.9472  -30.1445   23.8884 C   0  0  0  0  0  0
  -17.6472  -30.6578   24.0548 C   0  0  0  0  0  0
  -25.9063  -34.9427   23.5107 C   0  0  0  0  0  0
  -16.5361  -29.9077   23.6319 C   0  0  0  0  0  0
  -16.7277  -28.6483   23.0362 C   0  0  0  0  0  0
  -26.4499  -31.6548   25.0720 C   0  0  0  0  0  0
  -25.3707  -31.3718   26.1430 C   0  0  0  0  0  0
  -27.0340  -30.2947   24.6224 C   0  0  0  0  0  0
  -27.6046  -32.4296   25.7502 C   0  0  0  0  0  0
  -27.5569  -37.1784   24.8470 C   0  0  0  0  0  0
  -21.4222  -29.3039   22.3661 N   0  0  0  0  0  0
  -26.4278  -37.3758   23.9417 N   0  0  0  0  0  0
  -24.7019  -31.0481   22.0945 N   0  0  0  0  0  0
  -23.4205  -28.8156   23.3064 O   0  0  0  0  0  0
  -28.2901  -26.2943   20.1884 O   0  0  0  0  0  0
  -26.5670  -34.8903   22.4698 O   0  0  0  0  0  0
  -23.5481  -32.1389   23.7232 O   0  0  0  0  0  0
  -28.9373  -18.2189   21.5135 C   0  0  0  0  0  0
  -29.8440  -16.9030   21.6041 C   0  0  0  0  0  0
  -30.3021  -16.9807   19.3303 C   0  0  0  0  0  0
  -28.9390  -19.1489   20.2322 C   0  0  2  0  0  0
  -29.3156  -18.1924   19.0136 C   0  0  1  0  0  0
  -30.0311  -18.0105   16.5141 C   0  0  0  0  0  0
  -28.5723  -19.8937   17.2159 C   0  0  0  0  0  0
  -29.9608  -23.8422   21.5126 C   0  0  0  0  0  0
  -29.4880  -20.7050   20.3593 C   0  0  0  0  0  0
  -28.5005  -22.0240   20.3802 C   0  0  0  0  0  0
  -27.9786  -24.8057   20.1339 C   0  0  0  0  0  0
  -29.6901  -18.9458   17.6921 C   0  0  0  0  0  0
  -29.0486  -23.5751   20.3101 C   0  0  1  0  0  0
  -29.9272  -16.0126   20.4089 N   0  0  0  0  0  0
  -31.4625  -12.5971   19.1755 H   0  0  0  0  0  0
  -30.3489  -11.5241   19.9835 H   0  0  0  0  0  0
  -29.8048  -11.7409   17.5255 H   0  0  0  0  0  0
  -29.6246  -13.4703   17.7083 H   0  0  0  0  0  0
  -27.9077  -11.2855   18.9246 H   0  0  0  0  0  0
  -27.3798  -12.5021   17.7938 H   0  0  0  0  0  0
  -27.6138  -14.2588   19.4379 H   0  0  0  0  0  0
  -28.7276  -12.2558   21.4564 H   0  0  0  0  0  0
  -28.4072  -13.9545   21.7431 H   0  0  0  0  0  0
  -25.2787   -9.5715   22.4747 H   0  0  0  0  0  0
  -24.0028   -7.4656   22.7459 H   0  0  0  0  0  0
  -21.0861   -8.8769   19.8926 H   0  0  0  0  0  0
  -22.3708  -10.9672   19.6138 H   0  0  0  0  0  0
  -21.2011   -7.6140   23.9721 H   0  0  0  0  0  0
  -21.1500   -6.0503   25.9079 H   0  0  0  0  0  0
  -22.0592   -2.7600   23.2827 H   0  0  0  0  0  0
  -22.4115  -11.9889   22.4831 H   0  0  0  0  0  0
  -21.1084  -13.1199   22.2554 H   0  0  0  0  0  0
  -24.6614  -15.8531   20.5446 H   0  0  0  0  0  0
  -26.2880  -15.6362   20.1366 H   0  0  0  0  0  0
  -26.7228  -32.5370   23.1068 H   0  0  0  0  0  0
  -24.9974  -33.9678   25.0325 H   0  0  0  0  0  0
  -22.7263  -31.2970   21.3964 H   0  0  0  0  0  0
  -23.3754  -35.9593   23.3300 H   0  0  0  0  0  0
  -24.3574  -36.8896   22.2060 H   0  0  0  0  0  0
  -23.7228  -37.6455   23.6679 H   0  0  0  0  0  0
  -26.1233  -31.5168   20.6068 H   0  0  0  0  0  0
  -26.8566  -30.8036   22.0136 H   0  0  0  0  0  0
  -28.1276  -28.8997   21.1920 H   0  0  0  0  0  0
  -25.8944  -25.8875   19.0252 H   0  0  0  0  0  0
  -23.9548  -27.3012   19.0238 H   0  0  0  0  0  0
  -23.7714  -30.5839   19.4026 H   0  0  0  0  0  0
  -22.7647  -29.2431   19.8592 H   0  0  0  0  0  0
  -25.1282  -36.1901   25.0823 H   0  0  0  0  0  0
  -20.9980  -28.3263   24.1393 H   0  0  0  0  0  0
  -20.5653  -26.2320   23.3620 H   0  0  0  0  0  0
  -21.6639  -26.7416   22.1205 H   0  0  0  0  0  0
  -19.6897  -25.6277   21.1248 H   0  0  0  0  0  0
  -19.6652  -27.3173   20.6737 H   0  0  0  0  0  0
  -17.4189  -26.6654   21.4044 H   0  0  0  0  0  0
  -18.0329  -26.0044   22.9029 H   0  0  0  0  0  0
  -19.7947  -30.7256   24.2252 H   0  0  0  0  0  0
  -17.5027  -31.6261   24.5152 H   0  0  0  0  0  0
  -15.5359  -30.2984   23.7622 H   0  0  0  0  0  0
  -15.8677  -28.0782   22.7107 H   0  0  0  0  0  0
  -24.5914  -30.7018   25.7772 H   0  0  0  0  0  0
  -24.8852  -32.2886   26.4782 H   0  0  0  0  0  0
  -25.8005  -30.8962   27.0253 H   0  0  0  0  0  0
  -26.2924  -29.6690   24.1231 H   0  0  0  0  0  0
  -27.3981  -29.7201   25.4752 H   0  0  0  0  0  0
  -27.8823  -30.4189   23.9488 H   0  0  0  0  0  0
  -27.2644  -33.3616   26.2024 H   0  0  0  0  0  0
  -28.3875  -32.6816   25.0340 H   0  0  0  0  0  0
  -28.0678  -31.8450   26.5458 H   0  0  0  0  0  0
  -28.2586  -38.0082   24.7511 H   0  0  0  0  0  0
  -28.1062  -36.2610   24.6295 H   0  0  0  0  0  0
  -27.2296  -37.1423   25.8877 H   0  0  0  0  0  0
  -20.9427  -29.8761   21.6845 H   0  0  0  0  0  0
  -26.0153  -38.2831   24.1413 H   0  0  0  0  0  0
  -29.1323  -18.8329   22.3936 H   0  0  0  0  0  0
  -27.9091  -17.8804   21.6538 H   0  0  0  0  0  0
  -29.4945  -16.3010   22.4450 H   0  0  0  0  0  0
  -30.8594  -17.1994   21.8756 H   0  0  0  0  0  0
  -31.3020  -17.3742   19.5250 H   0  0  0  0  0  0
  -30.4051  -16.3658   18.4376 H   0  0  0  0  0  0
  -27.8784  -19.3432   20.0602 H   0  0  0  0  0  0
  -28.3804  -17.6777   18.7801 H   0  0  0  0  0  0
  -30.9713  -17.4805   16.6705 H   0  0  0  0  0  0
  -30.1539  -18.5697   15.5859 H   0  0  0  0  0  0
  -29.2444  -17.2735   16.3480 H   0  0  0  0  0  0
  -28.4020  -20.7101   17.9080 H   0  0  0  0  0  0
  -27.6257  -19.3664   17.0906 H   0  0  0  0  0  0
  -28.8214  -20.3585   16.2619 H   0  0  0  0  0  0
  -30.7112  -23.0586   21.6194 H   0  0  0  0  0  0
  -29.3892  -23.8910   22.4392 H   0  0  0  0  0  0
  -30.4964  -24.7846   21.3946 H   0  0  0  0  0  0
  -30.2057  -20.8775   19.5612 H   0  0  0  0  0  0
  -30.1002  -20.7509   21.2600 H   0  0  0  0  0  0
  -27.8895  -21.9443   21.2807 H   0  0  0  0  0  0
  -27.7762  -21.9219   19.5742 H   0  0  0  0  0  0
  -27.1768  -24.6332   20.8538 H   0  0  0  0  0  0
  -27.5463  -24.6208   19.1508 H   0  0  0  0  0  0
  -30.5845  -19.5416   17.8713 H   0  0  0  0  0  0
  -29.6885  -23.6239   19.4288 H   0  0  0  0  0  0
  1 25  1  0  0  0
  1 30  2  0  0  0
  1 84  1  0  0  0
  2  3  1  0  0  0
  2 25  1  0  0  0
  2 85  1  0  0  0
  2 86  1  0  0  0
  3  4  1  0  0  0
  3 87  1  0  0  0
  3 88  1  0  0  0
  4  5  1  0  0  0
  4 89  1  0  0  0
  4 90  1  0  0  0
  5  6  1  0  0  0
  5 26  1  0  0  0
  5 91  1  0  0  0
  6 25  1  0  0  0
  6 92  1  0  0  0
  6 93  1  0  0  0
  7  8  2  0  0  0
  7 26  1  0  0  0
  7 29  1  0  0  0
  8  9  1  0  0  0
  8 22  1  0  0  0
  9 10  1  0  0  0
  9 27  2  0  0  0
 10 11  2  0  0  0
 10 15  1  0  0  0
 11 12  1  0  0  0
 11 94  1  0  0  0
 12 13  2  0  0  0
 12 95  1  0  0  0
 13 14  1  0  0  0
 13 31  1  0  0  0
 14 15  2  0  0  0
 14 96  1  0  0  0
 15 97  1  0  0  0
 16 17  2  0  0  0
 16 21  1  0  0  0
 16 31  1  0  0  0
 17 18  1  0  0  0
 17 98  1  0  0  0
 18 19  2  0  0  0
 18 99  1  0  0  0
 19 20  1  0  0  0
 19 24  1  0  0  0
 20 21  2  0  0  0
 20100  1  0  0  0
 21 23  1  0  0  0
 22 28  1  0  0  0
 22 32  2  0  0  0
 26 27  1  0  0  0
 28101  1  0  0  0
 28102  1  0  0  0
 29103  1  0  0  0
 29104  1  0  0  0
 33 34  1  0  0  0
 33 66  1  0  0  0
 33 70  2  0  0  0
 34 36  1  0  0  0
 34 59  1  0  0  0
 34105  1  0  0  0
 35 44  2  0  0  0
 35 45  1  0  0  0
 35 68  1  0  0  0
 36 56  1  0  0  0
 36106  1  0  0  0
 37 39  1  0  0  0
 37 47  1  0  0  0
 37 66  1  0  0  0
 37107  1  0  0  0
 38 43  2  0  0  0
 38 46  1  0  0  0
 38 47  1  0  0  0
 39 64  1  0  0  0
 39 67  2  0  0  0
 40 52  1  0  0  0
 40 53  2  0  0  0
 40 58  1  0  0  0
 41108  1  0  0  0
 41109  1  0  0  0
 41110  1  0  0  0
 41 48  1  0  0  0
 42 43  1  0  0  0
 42 66  1  0  0  0
 42111  1  0  0  0
 42112  1  0  0  0
 43 44  1  0  0  0
 44113  1  0  0  0
 45 46  2  0  0  0
 45114  1  0  0  0
 46115  1  0  0  0
 47116  1  0  0  0
 47117  1  0  0  0
 48 56  1  0  0  0
 48 65  1  0  0  0
 48118  1  0  0  0
 49 50  1  0  0  0
 49 53  1  0  0  0
 49 64  1  0  0  0
 49119  1  0  0  0
 50 51  1  0  0  0
 50120  1  0  0  0
 50121  1  0  0  0
 51 52  1  0  0  0
 51122  1  0  0  0
 51123  1  0  0  0
 52124  1  0  0  0
 52125  1  0  0  0
 53 54  1  0  0  0
 54 55  2  0  0  0
 54126  1  0  0  0
 55 57  1  0  0  0
 55127  1  0  0  0
 56 69  2  0  0  0
 57 58  2  0  0  0
 57128  1  0  0  0
 58129  1  0  0  0
 59 60  1  0  0  0
 59 61  1  0  0  0
 59 62  1  0  0  0
 60130  1  0  0  0
 60131  1  0  0  0
 60132  1  0  0  0
 61133  1  0  0  0
 61134  1  0  0  0
 61135  1  0  0  0
 62136  1  0  0  0
 62137  1  0  0  0
 62138  1  0  0  0
 63 65  1  0  0  0
 63139  1  0  0  0
 63140  1  0  0  0
 63141  1  0  0  0
 64142  1  0  0  0
 65143  1  0  0  0
 68 81  1  0  0  0
 71 72  1  0  0  0
 71 74  1  0  0  0
 71144  1  0  0  0
 71145  1  0  0  0
 72 84  1  0  0  0
 72146  1  0  0  0
 72147  1  0  0  0
 73 84  1  0  0  0
 73148  1  0  0  0
 73149  1  0  0  0
 73 75  1  0  0  0
 74 75  1  0  0  0
 74 79  1  0  0  0
 74150  1  0  0  0
 75 82  1  0  0  0
 75151  1  0  0  0
 76152  1  0  0  0
 76153  1  0  0  0
 76154  1  0  0  0
 76 82  1  0  0  0
 77 82  1  0  0  0
 77155  1  0  0  0
 77156  1  0  0  0
 77157  1  0  0  0
 78158  1  0  0  0
 78159  1  0  0  0
 78160  1  0  0  0
 78 83  1  0  0  0
 79 80  1  0  0  0
 79161  1  0  0  0
 79162  1  0  0  0
 80 83  1  0  0  0
 80163  1  0  0  0
 80164  1  0  0  0
 81 83  1  0  0  0
 81165  1  0  0  0
 81166  1  0  0  0
 82167  1  0  0  0
 83168  1  0  0  0
M  ISO  4   1 100  68 101  81 101  84 100
M  END
> <chiral flag>
0

> <version>
0

> <s_m_source_file>
/data/baiqing/PycharmProjects/Reinvent-master-3.2/result/LINK_invent/BTK/process_docking_weight1_custom_sum_contain_oxygen_bond_distance_aromatic_linkinvent_7_9_3/rearranged_h_0093.sdf

> <i_m_source_file_index>
75

> <r_mmod_Potential_Energy-OPLS-2005>
572.789428710938

> <r_mmod_Stretch_Energy-OPLS-2005>
166.689666748047

> <r_mmod_Bend_Energy-OPLS-2005>
242.631164550781

> <r_mmod_Torsional_Energy-OPLS-2005>
367.734741210938

> <r_mmod_Improper_Torsional_Energy-OPLS-2005>
16.1502227783203

> <r_mmod_Van_der_Waal_Energy-OPLS-2005>
130.44514465332

> <r_mmod_Electrostatic_Energy-OPLS-2005>
-287.036254882812

> <r_mmod_Solvation_Energy-OPLS-2005>
-174.373382568359

> <b_mmod_Minimization_Converged-OPLS-2005>
0

> <r_mmod_RMS_Derivative-OPLS-2005>
2.5105676651001

$$$$
75
                    3D
 Structure written by MMmdl.
185193  0  0  1  0            999 V2000
  -30.6046  -14.7521   20.4715 C   0  0  0  0  0  0
  -30.4364  -12.4668   19.4747 C   0  0  0  0  0  0
  -29.5127  -12.5119   18.2374 C   0  0  0  0  0  0
  -28.0384  -12.3336   18.6515 C   0  0  0  0  0  0
  -27.6426  -13.2314   19.8537 C   0  0  2  0  0  0
  -28.6845  -13.1648   20.9904 C   0  0  0  0  0  0
  -25.2510  -13.8194   20.5679 C   0  0  0  0  0  0
  -24.1800  -13.0437   20.9202 C   0  0  0  0  0  0
  -24.6392  -11.6914   20.8747 C   0  0  0  0  0  0
  -23.9069  -10.4294   21.0419 C   0  0  0  0  0  0
  -24.3624   -9.4206   21.9197 C   0  0  0  0  0  0
  -23.6295   -8.2241   22.0762 C   0  0  0  0  0  0
  -22.4275   -8.0284   21.3552 C   0  0  0  0  0  0
  -21.9914   -9.0258   20.4652 C   0  0  0  0  0  0
  -22.7243  -10.2138   20.3065 C   0  0  0  0  0  0
  -21.6855   -6.0733   22.5272 C   0  0  0  0  0  0
  -21.4018   -6.5639   23.8207 C   0  0  0  0  0  0
  -21.3657   -5.6791   24.9168 C   0  0  0  0  0  0
  -21.6043   -4.3054   24.7223 C   0  0  0  0  0  0
  -21.8822   -3.8143   23.4346 C   0  0  0  0  0  0
  -21.9200   -4.6959   22.3399 C   0  0  0  0  0  0
  -22.7825  -13.5216   21.1873 C   0  0  0  0  0  0
  -22.1668   -4.2143   21.0976 F   0  0  0  0  0  0
  -21.5636   -3.4543   25.7745 F   0  0  0  0  0  0
  -29.9832  -13.5246   20.4089 N   0  0  0  0  0  0
  -26.2935  -12.9398   20.3280 N   0  0  0  0  0  0
  -25.9321  -11.6539   20.5751 N   0  0  0  0  0  0
  -22.0484  -12.8186   22.0426 N   0  0  0  0  0  0
  -25.4210  -15.1918   20.4088 N   0  0  0  0  0  0
  -31.7910  -14.8522   20.1487 O   0  0  0  0  0  0
  -21.6641   -6.8878   21.4236 O   0  0  0  0  0  0
  -22.3501  -14.5520   20.6735 O   0  0  0  0  0  0
  -24.6322  -31.8540   23.1987 C   0  0  0  0  0  0
  -25.9149  -32.4745   23.8336 C   0  0  1  0  0  0
  -27.2124  -27.2510   20.1388 C   0  0  0  0  0  0
  -25.5937  -33.8549   24.2262 N   0  0  0  0  0  0
  -23.4291  -30.4762   21.5429 C   0  0  2  0  0  0
  -24.8750  -28.9218   20.1134 C   0  0  0  0  0  0
  -22.7511  -29.4590   22.4927 C   0  0  0  0  0  0
  -18.0292  -28.1375   22.8484 C   0  0  0  0  0  0
  -24.1489  -36.7274   23.2643 C   0  0  0  0  0  0
  -25.9762  -30.7634   21.3817 C   0  0  0  0  0  0
  -26.0473  -29.3852   20.7245 C   0  0  0  0  0  0
  -27.2213  -28.5630   20.7237 C   0  0  0  0  0  0
  -26.0229  -26.8645   19.4845 C   0  0  0  0  0  0
  -24.8684  -27.6695   19.4809 C   0  0  0  0  0  0
  -23.6467  -29.8095   20.1594 C   0  0  0  0  0  0
  -25.4116  -36.3066   24.0332 C   0  0  1  0  0  0
  -20.5895  -28.3684   23.1265 C   0  0  2  0  0  0
  -20.6774  -26.9400   22.5403 C   0  0  0  0  0  0
  -19.5749  -26.6371   21.5207 C   0  0  0  0  0  0
  -18.1930  -26.7918   22.1620 C   0  0  0  0  0  0
  -19.1546  -28.8850   23.2865 C   0  0  0  0  0  0
  -18.9466  -30.1455   23.8877 C   0  0  0  0  0  0
  -17.6464  -30.6576   24.0557 C   0  0  0  0  0  0
  -25.9057  -34.9436   23.5102 C   0  0  0  0  0  0
  -16.5356  -29.9068   23.6334 C   0  0  0  0  0  0
  -16.7282  -28.6485   23.0359 C   0  0  0  0  0  0
  -26.4511  -31.6572   25.0734 C   0  0  0  0  0  0
  -25.3728  -31.3723   26.1453 C   0  0  0  0  0  0
  -27.0378  -30.2986   24.6245 C   0  0  0  0  0  0
  -27.6061  -32.4319   25.7503 C   0  0  0  0  0  0
  -27.5582  -37.1795   24.8467 C   0  0  0  0  0  0
  -21.4217  -29.3033   22.3664 N   0  0  0  0  0  0
  -26.4292  -37.3764   23.9411 N   0  0  0  0  0  0
  -24.6981  -31.0503   22.0967 N   0  0  0  0  0  0
  -23.4210  -28.8140   23.3035 O   0  0  0  0  0  0
  -28.3011  -26.3475   20.1675 O   0  0  0  0  0  0
  -26.5627  -34.8910   22.4671 O   0  0  0  0  0  0
  -23.5466  -32.1374   23.7265 O   0  0  0  0  0  0
  -30.0692  -19.5636   22.9242 C   0  0  0  0  0  0
  -30.6425  -20.5777   23.7383 C   0  0  0  0  0  0
  -29.5935  -19.8702   21.6062 C   0  0  0  0  0  0
  -30.5612  -21.9141   23.3007 C   0  0  0  0  0  0
  -29.4696  -21.3122   21.3078 C   0  0  0  0  0  0
  -29.9358  -18.1575   23.5181 C   0  0  0  0  0  0
  -30.5671  -26.9675   24.2596 C   0  0  0  0  0  0
  -35.1852  -19.2411   25.4545 C   0  0  0  0  0  0
  -33.8390  -20.6267   27.0715 C   0  0  0  0  0  0
  -31.4166  -20.2308   25.0180 C   0  0  0  0  0  0
  -29.2206  -18.6096   20.6968 C   0  0  0  0  0  0
  -31.2169  -23.0970   24.0254 C   0  0  0  0  0  0
  -28.7164  -22.1048   20.1677 C   0  0  0  0  0  0
  -31.1699  -25.5990   24.5997 C   0  0  0  0  0  0
  -32.9262  -20.1162   24.7338 C   0  0  0  0  0  0
  -30.5317  -24.4603   23.7887 C   0  0  0  0  0  0
  -29.0013  -23.7106   19.9390 C   0  0  0  0  0  0
  -30.2736  -17.3582   20.5697 C   0  0  0  0  0  0
  -28.0523  -24.8939   20.5052 C   0  0  0  0  0  0
  -33.7687  -19.6097   25.9213 C   0  0  0  0  0  0
  -29.9595  -22.2336   22.1518 N   0  0  0  0  0  0
  -29.8370  -15.8915   20.6866 N   0  0  0  0  0  0
  -31.4751  -12.6039   19.1682 H   0  0  0  0  0  0
  -30.3944  -11.4906   19.9596 H   0  0  0  0  0  0
  -29.7967  -11.7383   17.5226 H   0  0  0  0  0  0
  -29.6353  -13.4663   17.7213 H   0  0  0  0  0  0
  -27.8942  -11.2842   18.9124 H   0  0  0  0  0  0
  -27.3816  -12.5290   17.8031 H   0  0  0  0  0  0
  -27.6378  -14.2533   19.4733 H   0  0  0  0  0  0
  -28.7241  -12.1657   21.4273 H   0  0  0  0  0  0
  -28.4157  -13.8431   21.8025 H   0  0  0  0  0  0
  -25.2779   -9.5675   22.4755 H   0  0  0  0  0  0
  -24.0015   -7.4626   22.7466 H   0  0  0  0  0  0
  -21.0859   -8.8766   19.8941 H   0  0  0  0  0  0
  -22.3714  -10.9674   19.6163 H   0  0  0  0  0  0
  -21.2000   -7.6149   23.9701 H   0  0  0  0  0  0
  -21.1481   -6.0528   25.9069 H   0  0  0  0  0  0
  -22.0605   -2.7603   23.2844 H   0  0  0  0  0  0
  -22.4127  -11.9849   22.4791 H   0  0  0  0  0  0
  -21.1098  -13.1184   22.2654 H   0  0  0  0  0  0
  -24.6510  -15.8435   20.5134 H   0  0  0  0  0  0
  -26.2594  -15.6262   20.0449 H   0  0  0  0  0  0
  -26.7219  -32.5391   23.1074 H   0  0  0  0  0  0
  -25.0098  -33.9680   25.0419 H   0  0  0  0  0  0
  -22.7258  -31.2982   21.3960 H   0  0  0  0  0  0
  -23.3759  -35.9598   23.3297 H   0  0  0  0  0  0
  -24.3579  -36.8905   22.2059 H   0  0  0  0  0  0
  -23.7233  -37.6469   23.6671 H   0  0  0  0  0  0
  -26.1205  -31.5239   20.6128 H   0  0  0  0  0  0
  -26.8510  -30.8083   22.0187 H   0  0  0  0  0  0
  -28.1199  -28.9133   21.2125 H   0  0  0  0  0  0
  -25.9683  -25.9166   18.9698 H   0  0  0  0  0  0
  -23.9758  -27.3137   18.9848 H   0  0  0  0  0  0
  -23.7686  -30.5839   19.4011 H   0  0  0  0  0  0
  -22.7654  -29.2402   19.8582 H   0  0  0  0  0  0
  -25.1297  -36.1915   25.0825 H   0  0  0  0  0  0
  -20.9983  -28.3255   24.1388 H   0  0  0  0  0  0
  -20.5656  -26.2298   23.3612 H   0  0  0  0  0  0
  -21.6645  -26.7406   22.1209 H   0  0  0  0  0  0
  -19.6903  -25.6278   21.1245 H   0  0  0  0  0  0
  -19.6682  -27.3178   20.6735 H   0  0  0  0  0  0
  -17.4200  -26.6673   21.4021 H   0  0  0  0  0  0
  -18.0321  -26.0058   22.9011 H   0  0  0  0  0  0
  -19.7943  -30.7279   24.2232 H   0  0  0  0  0  0
  -17.5016  -31.6258   24.5154 H   0  0  0  0  0  0
  -15.5354  -30.2958   23.7667 H   0  0  0  0  0  0
  -15.8687  -28.0796   22.7082 H   0  0  0  0  0  0
  -24.5899  -30.7076   25.7781 H   0  0  0  0  0  0
  -24.8923  -32.2892   26.4877 H   0  0  0  0  0  0
  -25.8039  -30.8900   27.0235 H   0  0  0  0  0  0
  -26.2985  -29.6715   24.1251 H   0  0  0  0  0  0
  -27.4034  -29.7262   25.4781 H   0  0  0  0  0  0
  -27.8869  -30.4255   23.9527 H   0  0  0  0  0  0
  -27.2671  -33.3626   26.2063 H   0  0  0  0  0  0
  -28.3876  -32.6867   25.0335 H   0  0  0  0  0  0
  -28.0727  -31.8461   26.5431 H   0  0  0  0  0  0
  -28.2594  -38.0097   24.7521 H   0  0  0  0  0  0
  -28.1083  -36.2628   24.6283 H   0  0  0  0  0  0
  -27.2303  -37.1442   25.8871 H   0  0  0  0  0  0
  -20.9407  -29.8767   21.6877 H   0  0  0  0  0  0
  -26.0171  -38.2839   24.1404 H   0  0  0  0  0  0
  -29.5172  -18.2120   24.5223 H   0  0  0  0  0  0
  -30.9019  -17.6553   23.5763 H   0  0  0  0  0  0
  -29.2382  -17.5148   22.9879 H   0  0  0  0  0  0
  -31.0325  -27.7562   24.8515 H   0  0  0  0  0  0
  -29.4953  -26.9909   24.4594 H   0  0  0  0  0  0
  -30.7162  -27.2129   23.2071 H   0  0  0  0  0  0
  -35.7816  -18.8414   26.2755 H   0  0  0  0  0  0
  -35.7107  -20.1088   25.0540 H   0  0  0  0  0  0
  -35.1593  -18.4815   24.6721 H   0  0  0  0  0  0
  -34.4481  -20.2436   27.8918 H   0  0  0  0  0  0
  -32.8526  -20.8447   27.4808 H   0  0  0  0  0  0
  -34.2813  -21.5688   26.7450 H   0  0  0  0  0  0
  -31.0767  -19.3023   25.4681 H   0  0  0  0  0  0
  -31.2218  -20.9647   25.7958 H   0  0  0  0  0  0
  -29.0180  -18.9838   19.6929 H   0  0  0  0  0  0
  -28.2575  -18.2329   21.0425 H   0  0  0  0  0  0
  -32.2622  -23.1492   23.7196 H   0  0  0  0  0  0
  -31.2171  -22.9306   25.0997 H   0  0  0  0  0  0
  -27.6448  -21.9422   20.2832 H   0  0  0  0  0  0
  -28.9840  -21.5929   19.2432 H   0  0  0  0  0  0
  -31.0489  -25.4033   25.6662 H   0  0  0  0  0  0
  -32.2444  -25.6261   24.4114 H   0  0  0  0  0  0
  -33.3178  -21.0720   24.3867 H   0  0  0  0  0  0
  -33.0575  -19.4226   23.9009 H   0  0  0  0  0  0
  -29.4717  -24.3840   24.0361 H   0  0  0  0  0  0
  -30.5843  -24.7113   22.7283 H   0  0  0  0  0  0
  -28.9640  -23.8458   18.8587 H   0  0  0  0  0  0
  -30.0385  -23.9361   20.1883 H   0  0  0  0  0  0
  -31.0953  -17.4981   21.2700 H   0  0  0  0  0  0
  -30.7651  -17.4591   19.6017 H   0  0  0  0  0  0
  -28.0837  -24.8375   21.5938 H   0  0  0  0  0  0
  -27.0316  -24.6096   20.2585 H   0  0  0  0  0  0
  -33.3051  -18.6984   26.3036 H   0  0  0  0  0  0
  -28.8650  -15.7296   20.9049 H   0  0  0  0  0  0
  1 25  1  0  0  0
  1 30  2  0  0  0
  1 92  1  0  0  0
  2  3  1  0  0  0
  2 25  1  0  0  0
  2 93  1  0  0  0
  2 94  1  0  0  0
  3  4  1  0  0  0
  3 95  1  0  0  0
  3 96  1  0  0  0
  4  5  1  0  0  0
  4 97  1  0  0  0
  4 98  1  0  0  0
  5  6  1  0  0  0
  5 26  1  0  0  0
  5 99  1  0  0  0
  6 25  1  0  0  0
  6100  1  0  0  0
  6101  1  0  0  0
  7  8  2  0  0  0
  7 26  1  0  0  0
  7 29  1  0  0  0
  8  9  1  0  0  0
  8 22  1  0  0  0
  9 10  1  0  0  0
  9 27  2  0  0  0
 10 11  2  0  0  0
 10 15  1  0  0  0
 11 12  1  0  0  0
 11102  1  0  0  0
 12 13  2  0  0  0
 12103  1  0  0  0
 13 14  1  0  0  0
 13 31  1  0  0  0
 14 15  2  0  0  0
 14104  1  0  0  0
 15105  1  0  0  0
 16 17  2  0  0  0
 16 21  1  0  0  0
 16 31  1  0  0  0
 17 18  1  0  0  0
 17106  1  0  0  0
 18 19  2  0  0  0
 18107  1  0  0  0
 19 20  1  0  0  0
 19 24  1  0  0  0
 20 21  2  0  0  0
 20108  1  0  0  0
 21 23  1  0  0  0
 22 28  1  0  0  0
 22 32  2  0  0  0
 26 27  1  0  0  0
 28109  1  0  0  0
 28110  1  0  0  0
 29111  1  0  0  0
 29112  1  0  0  0
 33 34  1  0  0  0
 33 66  1  0  0  0
 33 70  2  0  0  0
 34 36  1  0  0  0
 34 59  1  0  0  0
 34113  1  0  0  0
 35 44  2  0  0  0
 35 45  1  0  0  0
 35 68  1  0  0  0
 36 56  1  0  0  0
 36114  1  0  0  0
 37 39  1  0  0  0
 37 47  1  0  0  0
 37 66  1  0  0  0
 37115  1  0  0  0
 38 43  2  0  0  0
 38 46  1  0  0  0
 38 47  1  0  0  0
 39 64  1  0  0  0
 39 67  2  0  0  0
 40 52  1  0  0  0
 40 53  2  0  0  0
 40 58  1  0  0  0
 41116  1  0  0  0
 41117  1  0  0  0
 41118  1  0  0  0
 41 48  1  0  0  0
 42 43  1  0  0  0
 42 66  1  0  0  0
 42119  1  0  0  0
 42120  1  0  0  0
 43 44  1  0  0  0
 44121  1  0  0  0
 45 46  2  0  0  0
 45122  1  0  0  0
 46123  1  0  0  0
 47124  1  0  0  0
 47125  1  0  0  0
 48 56  1  0  0  0
 48 65  1  0  0  0
 48126  1  0  0  0
 49 50  1  0  0  0
 49 53  1  0  0  0
 49 64  1  0  0  0
 49127  1  0  0  0
 50 51  1  0  0  0
 50128  1  0  0  0
 50129  1  0  0  0
 51 52  1  0  0  0
 51130  1  0  0  0
 51131  1  0  0  0
 52132  1  0  0  0
 52133  1  0  0  0
 53 54  1  0  0  0
 54 55  2  0  0  0
 54134  1  0  0  0
 55 57  1  0  0  0
 55135  1  0  0  0
 56 69  2  0  0  0
 57 58  2  0  0  0
 57136  1  0  0  0
 58137  1  0  0  0
 59 60  1  0  0  0
 59 61  1  0  0  0
 59 62  1  0  0  0
 60138  1  0  0  0
 60139  1  0  0  0
 60140  1  0  0  0
 61141  1  0  0  0
 61142  1  0  0  0
 61143  1  0  0  0
 62144  1  0  0  0
 62145  1  0  0  0
 62146  1  0  0  0
 63 65  1  0  0  0
 63147  1  0  0  0
 63148  1  0  0  0
 63149  1  0  0  0
 64150  1  0  0  0
 65151  1  0  0  0
 68 89  1  0  0  0
 71 72  2  0  0  0
 71 73  1  0  0  0
 71 76  1  0  0  0
 72 74  1  0  0  0
 72 80  1  0  0  0
 73 75  2  0  0  0
 73 81  1  0  0  0
 74 82  1  0  0  0
 74 91  2  0  0  0
 75 83  1  0  0  0
 75 91  1  0  0  0
 76152  1  0  0  0
 76153  1  0  0  0
 76154  1  0  0  0
 77 84  1  0  0  0
 77155  1  0  0  0
 77156  1  0  0  0
 77157  1  0  0  0
 78158  1  0  0  0
 78159  1  0  0  0
 78160  1  0  0  0
 78 90  1  0  0  0
 79 90  1  0  0  0
 79161  1  0  0  0
 79162  1  0  0  0
 79163  1  0  0  0
 80 85  1  0  0  0
 80164  1  0  0  0
 80165  1  0  0  0
 81 88  1  0  0  0
 81166  1  0  0  0
 81167  1  0  0  0
 82 86  1  0  0  0
 82168  1  0  0  0
 82169  1  0  0  0
 83 87  1  0  0  0
 83170  1  0  0  0
 83171  1  0  0  0
 84 86  1  0  0  0
 84172  1  0  0  0
 84173  1  0  0  0
 85 90  1  0  0  0
 85174  1  0  0  0
 85175  1  0  0  0
 86176  1  0  0  0
 86177  1  0  0  0
 87 89  1  0  0  0
 87178  1  0  0  0
 87179  1  0  0  0
 88 92  1  0  0  0
 88180  1  0  0  0
 88181  1  0  0  0
 89182  1  0  0  0
 89183  1  0  0  0
 90184  1  0  0  0
 92185  1  0  0  0
M  ISO  4   1 100  68 101  89 101  92 100
M  END
> <chiral flag>
0

> <version>
0

> <s_m_source_file>
/data/baiqing/PycharmProjects/Reinvent-master-3.2/result/LINK_invent/BTK/process_docking_weight1_custom_sum_contain_oxygen_bond_distance_aromatic_linkinvent_7_9_3/rearranged_h_0093.sdf

> <i_m_source_file_index>
76

> <r_mmod_Potential_Energy-OPLS-2005>
75.1112670898438

> <r_mmod_Stretch_Energy-OPLS-2005>
147.689819335938

> <r_mmod_Bend_Energy-OPLS-2005>
206.641647338867

> <r_mmod_Torsional_Energy-OPLS-2005>
265.907867431641

> <r_mmod_Improper_Torsional_Energy-OPLS-2005>
5.39589500427246

> <r_mmod_Van_der_Waal_Energy-OPLS-2005>
151.442001342773

> <r_mmod_Electrostatic_Energy-OPLS-2005>
-573.365173339844

> <r_mmod_Solvation_Energy-OPLS-2005>
-218.179763793945

> <b_mmod_Minimization_Converged-OPLS-2005>
0

> <r_mmod_RMS_Derivative-OPLS-2005>
1.56162142753601

$$$$
76
                    3D
 Structure written by MMmdl.
167175  0  0  1  0            999 V2000
  -30.7399  -14.4891   20.5510 C   0  0  0  0  0  0
  -30.4048  -12.3142   19.4415 C   0  0  0  0  0  0
  -29.4920  -12.5017   18.2140 C   0  0  0  0  0  0
  -28.0135  -12.3670   18.6225 C   0  0  0  0  0  0
  -27.6548  -13.2217   19.8687 C   0  0  2  0  0  0
  -28.6976  -13.0577   20.9989 C   0  0  0  0  0  0
  -25.2545  -13.8191   20.5699 C   0  0  0  0  0  0
  -24.1816  -13.0445   20.9184 C   0  0  0  0  0  0
  -24.6396  -11.6921   20.8733 C   0  0  0  0  0  0
  -23.9067  -10.4297   21.0392 C   0  0  0  0  0  0
  -24.3620   -9.4216   21.9173 C   0  0  0  0  0  0
  -23.6300   -8.2250   22.0748 C   0  0  0  0  0  0
  -22.4281   -8.0282   21.3541 C   0  0  0  0  0  0
  -21.9915   -9.0251   20.4639 C   0  0  0  0  0  0
  -22.7239  -10.2133   20.3047 C   0  0  0  0  0  0
  -21.6857   -6.0739   22.5280 C   0  0  0  0  0  0
  -21.4016   -6.5642   23.8211 C   0  0  0  0  0  0
  -21.3659   -5.6794   24.9172 C   0  0  0  0  0  0
  -21.6046   -4.3057   24.7223 C   0  0  0  0  0  0
  -21.8819   -3.8150   23.4343 C   0  0  0  0  0  0
  -21.9194   -4.6967   22.3400 C   0  0  0  0  0  0
  -22.7837  -13.5228   21.1849 C   0  0  0  0  0  0
  -22.1663   -4.2153   21.0978 F   0  0  0  0  0  0
  -21.5628   -3.4541   25.7734 F   0  0  0  0  0  0
  -30.0262  -13.3346   20.4357 N   0  0  0  0  0  0
  -26.2994  -12.9396   20.3356 N   0  0  0  0  0  0
  -25.9329  -11.6540   20.5768 N   0  0  0  0  0  0
  -22.0488  -12.8211   22.0404 N   0  0  0  0  0  0
  -25.4235  -15.1917   20.4118 N   0  0  0  0  0  0
  -31.8831  -14.5934   20.1015 O   0  0  0  0  0  0
  -21.6644   -6.8882   21.4241 O   0  0  0  0  0  0
  -22.3513  -14.5531   20.6701 O   0  0  0  0  0  0
  -24.6161  -31.8690   23.2132 C   0  0  0  0  0  0
  -25.9059  -32.4825   23.8414 C   0  0  1  0  0  0
  -27.2150  -27.4017   20.1057 C   0  0  0  0  0  0
  -25.5930  -33.8623   24.2344 N   0  0  0  0  0  0
  -23.4060  -30.4946   21.5540 C   0  0  2  0  0  0
  -24.8528  -28.9650   20.1155 C   0  0  0  0  0  0
  -22.7424  -29.4653   22.4981 C   0  0  0  0  0  0
  -18.0274  -28.1377   22.8483 C   0  0  0  0  0  0
  -24.1493  -36.7306   23.2631 C   0  0  0  0  0  0
  -25.9405  -30.8162   21.3834 C   0  0  0  0  0  0
  -26.0129  -29.4468   20.7377 C   0  0  0  0  0  0
  -27.1957  -28.6635   20.7525 C   0  0  0  0  0  0
  -26.0613  -26.9846   19.4173 C   0  0  0  0  0  0
  -24.8719  -27.7291   19.4535 C   0  0  0  0  0  0
  -23.6183  -29.8360   20.1660 C   0  0  0  0  0  0
  -25.4111  -36.3105   24.0338 C   0  0  1  0  0  0
  -20.5870  -28.3665   23.1303 C   0  0  2  0  0  0
  -20.6776  -26.9400   22.5408 C   0  0  0  0  0  0
  -19.5753  -26.6383   21.5208 C   0  0  0  0  0  0
  -18.1922  -26.7923   22.1613 C   0  0  0  0  0  0
  -19.1528  -28.8837   23.2887 C   0  0  0  0  0  0
  -18.9453  -30.1444   23.8896 C   0  0  0  0  0  0
  -17.6457  -30.6579   24.0558 C   0  0  0  0  0  0
  -25.9045  -34.9474   23.5132 C   0  0  0  0  0  0
  -16.5345  -29.9077   23.6331 C   0  0  0  0  0  0
  -16.7265  -28.6500   23.0341 C   0  0  0  0  0  0
  -26.4473  -31.6598   25.0745 C   0  0  0  0  0  0
  -25.3719  -31.3712   26.1478 C   0  0  0  0  0  0
  -27.0311  -30.3032   24.6149 C   0  0  0  0  0  0
  -27.6053  -32.4316   25.7505 C   0  0  0  0  0  0
  -27.5584  -37.1800   24.8460 C   0  0  0  0  0  0
  -21.4152  -29.3035   22.3714 N   0  0  0  0  0  0
  -26.4292  -37.3792   23.9409 N   0  0  0  0  0  0
  -24.6718  -31.0756   22.1070 N   0  0  0  0  0  0
  -23.4184  -28.8172   23.3016 O   0  0  0  0  0  0
  -28.3281  -26.5826   20.0732 O   0  0  0  0  0  0
  -26.5593  -34.8925   22.4685 O   0  0  0  0  0  0
  -23.5350  -32.1476   23.7497 O   0  0  0  0  0  0
  -28.9162  -19.5734   23.0828 C   0  0  0  0  0  0
  -30.2961  -19.4249   20.7398 C   0  0  0  0  0  0
  -29.3366  -18.2967   22.6461 C   0  0  0  0  0  0
  -30.0585  -18.2096   21.4316 C   0  0  0  0  0  0
  -29.2295  -20.7289   22.3361 C   0  0  0  0  0  0
  -29.0520  -17.0813   23.5090 C   0  0  0  0  0  0
  -26.7527  -22.1389   20.5469 C   0  0  0  0  0  0
  -25.9620  -24.0587   22.0411 C   0  0  0  0  0  0
  -30.7392  -16.9281   20.8964 C   0  0  0  0  0  0
  -28.8438  -22.1091   22.8999 C   0  0  0  0  0  0
  -29.2545  -23.4329   22.1700 C   0  0  0  0  0  0
  -28.5215  -25.7170   21.2193 C   0  0  0  0  0  0
  -28.3846  -24.1414   21.0578 C   0  0  2  0  0  0
  -26.9106  -23.6303   20.9048 C   0  0  0  0  0  0
  -29.9026  -20.6492   21.1700 N   0  0  0  0  0  0
  -30.1053  -15.5917   21.0122 N   0  0  0  0  0  0
  -26.4406  -24.1775   19.7966 F   0  0  0  0  0  0
  -31.4533  -12.3772   19.1463 H   0  0  0  0  0  0
  -30.2770  -11.3169   19.8650 H   0  0  0  0  0  0
  -29.7359  -11.7677   17.4450 H   0  0  0  0  0  0
  -29.6639  -13.4826   17.7676 H   0  0  0  0  0  0
  -27.8224  -11.3127   18.8256 H   0  0  0  0  0  0
  -27.3673  -12.6353   17.7857 H   0  0  0  0  0  0
  -27.6828  -14.2626   19.5465 H   0  0  0  0  0  0
  -28.6734  -12.0435   21.3996 H   0  0  0  0  0  0
  -28.4668  -13.7164   21.8372 H   0  0  0  0  0  0
  -25.2769   -9.5695   22.4740 H   0  0  0  0  0  0
  -24.0013   -7.4644   22.7470 H   0  0  0  0  0  0
  -21.0850   -8.8769   19.8944 H   0  0  0  0  0  0
  -22.3699  -10.9669   19.6151 H   0  0  0  0  0  0
  -21.2010   -7.6150   23.9715 H   0  0  0  0  0  0
  -21.1481   -6.0523   25.9073 H   0  0  0  0  0  0
  -22.0599   -2.7614   23.2841 H   0  0  0  0  0  0
  -22.4122  -11.9879   22.4794 H   0  0  0  0  0  0
  -21.1097  -13.1214   22.2607 H   0  0  0  0  0  0
  -24.6543  -15.8438   20.5186 H   0  0  0  0  0  0
  -26.2757  -15.6354   20.0933 H   0  0  0  0  0  0
  -26.7123  -32.5527   23.1165 H   0  0  0  0  0  0
  -25.0110  -33.9785   25.0511 H   0  0  0  0  0  0
  -22.6954  -31.3117   21.4164 H   0  0  0  0  0  0
  -23.3757  -35.9638   23.3297 H   0  0  0  0  0  0
  -24.3571  -36.8918   22.2043 H   0  0  0  0  0  0
  -23.7255  -37.6517   23.6639 H   0  0  0  0  0  0
  -26.0651  -31.5762   20.6106 H   0  0  0  0  0  0
  -26.8248  -30.8668   22.0070 H   0  0  0  0  0  0
  -28.0847  -29.0194   21.2533 H   0  0  0  0  0  0
  -26.0758  -26.0923   18.8163 H   0  0  0  0  0  0
  -23.9952  -27.3672   18.9344 H   0  0  0  0  0  0
  -23.7297  -30.6150   19.4109 H   0  0  0  0  0  0
  -22.7413  -29.2602   19.8660 H   0  0  0  0  0  0
  -25.1278  -36.1966   25.0831 H   0  0  0  0  0  0
  -20.9956  -28.3242   24.1428 H   0  0  0  0  0  0
  -20.5692  -26.2268   23.3595 H   0  0  0  0  0  0
  -21.6642  -26.7452   22.1188 H   0  0  0  0  0  0
  -19.6921  -25.6294   21.1233 H   0  0  0  0  0  0
  -19.6704  -27.3201   20.6743 H   0  0  0  0  0  0
  -17.4201  -26.6675   21.4005 H   0  0  0  0  0  0
  -18.0306  -26.0067   22.9009 H   0  0  0  0  0  0
  -19.7937  -30.7253   24.2268 H   0  0  0  0  0  0
  -17.5017  -31.6258   24.5157 H   0  0  0  0  0  0
  -15.5345  -30.2972   23.7673 H   0  0  0  0  0  0
  -15.8665  -28.0822   22.7052 H   0  0  0  0  0  0
  -24.5921  -30.7021   25.7814 H   0  0  0  0  0  0
  -24.8857  -32.2859   26.4878 H   0  0  0  0  0  0
  -25.8052  -30.8927   27.0267 H   0  0  0  0  0  0
  -26.2873  -29.6784   24.1189 H   0  0  0  0  0  0
  -27.4051  -29.7272   25.4618 H   0  0  0  0  0  0
  -27.8716  -30.4329   23.9330 H   0  0  0  0  0  0
  -27.2693  -33.3624   26.2082 H   0  0  0  0  0  0
  -28.3862  -32.6863   25.0328 H   0  0  0  0  0  0
  -28.0719  -31.8437   26.5418 H   0  0  0  0  0  0
  -28.2588  -38.0109   24.7529 H   0  0  0  0  0  0
  -28.1094  -36.2643   24.6258 H   0  0  0  0  0  0
  -27.2292  -37.1419   25.8858 H   0  0  0  0  0  0
  -20.9319  -29.8767   21.6941 H   0  0  0  0  0  0
  -26.0183  -38.2865   24.1426 H   0  0  0  0  0  0
  -28.3830  -19.6764   24.0193 H   0  0  0  0  0  0
  -30.8665  -19.4252   19.8224 H   0  0  0  0  0  0
  -28.6667  -17.3695   24.4873 H   0  0  0  0  0  0
  -29.9601  -16.5006   23.6731 H   0  0  0  0  0  0
  -28.3074  -16.4419   23.0347 H   0  0  0  0  0  0
  -26.7795  -21.4761   21.4058 H   0  0  0  0  0  0
  -27.5188  -21.8169   19.8407 H   0  0  0  0  0  0
  -25.7856  -21.9550   20.0765 H   0  0  0  0  0  0
  -26.3173  -23.7430   23.0203 H   0  0  0  0  0  0
  -24.9665  -23.6354   21.9029 H   0  0  0  0  0  0
  -25.8403  -25.1411   22.0758 H   0  0  0  0  0  0
  -31.7125  -16.8817   21.3895 H   0  0  0  0  0  0
  -30.9587  -17.0913   19.8385 H   0  0  0  0  0  0
  -29.3589  -22.1366   23.8610 H   0  0  0  0  0  0
  -27.7954  -22.1130   23.1870 H   0  0  0  0  0  0
  -30.2864  -23.3521   21.8288 H   0  0  0  0  0  0
  -29.3080  -24.1520   22.9878 H   0  0  0  0  0  0
  -29.5521  -25.9220   21.5108 H   0  0  0  0  0  0
  -27.9306  -26.0622   22.0689 H   0  0  0  0  0  0
  -28.8779  -23.8916   20.1169 H   0  0  0  0  0  0
  -29.1464  -15.5148   21.3114 H   0  0  0  0  0  0
  1 25  1  0  0  0
  1 30  2  0  0  0
  1 86  1  0  0  0
  2  3  1  0  0  0
  2 25  1  0  0  0
  2 88  1  0  0  0
  2 89  1  0  0  0
  3  4  1  0  0  0
  3 90  1  0  0  0
  3 91  1  0  0  0
  4  5  1  0  0  0
  4 92  1  0  0  0
  4 93  1  0  0  0
  5  6  1  0  0  0
  5 26  1  0  0  0
  5 94  1  0  0  0
  6 25  1  0  0  0
  6 95  1  0  0  0
  6 96  1  0  0  0
  7  8  2  0  0  0
  7 26  1  0  0  0
  7 29  1  0  0  0
  8  9  1  0  0  0
  8 22  1  0  0  0
  9 10  1  0  0  0
  9 27  2  0  0  0
 10 11  2  0  0  0
 10 15  1  0  0  0
 11 12  1  0  0  0
 11 97  1  0  0  0
 12 13  2  0  0  0
 12 98  1  0  0  0
 13 14  1  0  0  0
 13 31  1  0  0  0
 14 15  2  0  0  0
 14 99  1  0  0  0
 15100  1  0  0  0
 16 17  2  0  0  0
 16 21  1  0  0  0
 16 31  1  0  0  0
 17 18  1  0  0  0
 17101  1  0  0  0
 18 19  2  0  0  0
 18102  1  0  0  0
 19 20  1  0  0  0
 19 24  1  0  0  0
 20 21  2  0  0  0
 20103  1  0  0  0
 21 23  1  0  0  0
 22 28  1  0  0  0
 22 32  2  0  0  0
 26 27  1  0  0  0
 28104  1  0  0  0
 28105  1  0  0  0
 29106  1  0  0  0
 29107  1  0  0  0
 33 34  1  0  0  0
 33 66  1  0  0  0
 33 70  2  0  0  0
 34 36  1  0  0  0
 34 59  1  0  0  0
 34108  1  0  0  0
 35 44  2  0  0  0
 35 45  1  0  0  0
 35 68  1  0  0  0
 36 56  1  0  0  0
 36109  1  0  0  0
 37 39  1  0  0  0
 37 47  1  0  0  0
 37 66  1  0  0  0
 37110  1  0  0  0
 38 43  2  0  0  0
 38 46  1  0  0  0
 38 47  1  0  0  0
 39 64  1  0  0  0
 39 67  2  0  0  0
 40 52  1  0  0  0
 40 53  2  0  0  0
 40 58  1  0  0  0
 41111  1  0  0  0
 41112  1  0  0  0
 41113  1  0  0  0
 41 48  1  0  0  0
 42 43  1  0  0  0
 42 66  1  0  0  0
 42114  1  0  0  0
 42115  1  0  0  0
 43 44  1  0  0  0
 44116  1  0  0  0
 45 46  2  0  0  0
 45117  1  0  0  0
 46118  1  0  0  0
 47119  1  0  0  0
 47120  1  0  0  0
 48 56  1  0  0  0
 48 65  1  0  0  0
 48121  1  0  0  0
 49 50  1  0  0  0
 49 53  1  0  0  0
 49 64  1  0  0  0
 49122  1  0  0  0
 50 51  1  0  0  0
 50123  1  0  0  0
 50124  1  0  0  0
 51 52  1  0  0  0
 51125  1  0  0  0
 51126  1  0  0  0
 52127  1  0  0  0
 52128  1  0  0  0
 53 54  1  0  0  0
 54 55  2  0  0  0
 54129  1  0  0  0
 55 57  1  0  0  0
 55130  1  0  0  0
 56 69  2  0  0  0
 57 58  2  0  0  0
 57131  1  0  0  0
 58132  1  0  0  0
 59 60  1  0  0  0
 59 61  1  0  0  0
 59 62  1  0  0  0
 60133  1  0  0  0
 60134  1  0  0  0
 60135  1  0  0  0
 61136  1  0  0  0
 61137  1  0  0  0
 61138  1  0  0  0
 62139  1  0  0  0
 62140  1  0  0  0
 62141  1  0  0  0
 63 65  1  0  0  0
 63142  1  0  0  0
 63143  1  0  0  0
 63144  1  0  0  0
 64145  1  0  0  0
 65146  1  0  0  0
 68 82  1  0  0  0
 71 73  2  0  0  0
 71 75  1  0  0  0
 71147  1  0  0  0
 72 74  2  0  0  0
 72 85  1  0  0  0
 72148  1  0  0  0
 73 74  1  0  0  0
 73 76  1  0  0  0
 74 79  1  0  0  0
 75 80  1  0  0  0
 75 85  2  0  0  0
 76149  1  0  0  0
 76150  1  0  0  0
 76151  1  0  0  0
 77152  1  0  0  0
 77153  1  0  0  0
 77154  1  0  0  0
 77 84  1  0  0  0
 78 84  1  0  0  0
 78155  1  0  0  0
 78156  1  0  0  0
 78157  1  0  0  0
 79 86  1  0  0  0
 79158  1  0  0  0
 79159  1  0  0  0
 80 81  1  0  0  0
 80160  1  0  0  0
 80161  1  0  0  0
 81162  1  0  0  0
 81163  1  0  0  0
 81 83  1  0  0  0
 82 83  1  0  0  0
 82164  1  0  0  0
 82165  1  0  0  0
 83 84  1  0  0  0
 83166  1  0  0  0
 84 87  1  0  0  0
 86167  1  0  0  0
M  ISO  4   1 100  68 101  82 101  86 100
M  END
> <chiral flag>
0

> <version>
0

> <s_m_source_file>
/data/baiqing/PycharmProjects/Reinvent-master-3.2/result/LINK_invent/BTK/process_docking_weight1_custom_sum_contain_oxygen_bond_distance_aromatic_linkinvent_7_9_3/rearranged_h_0093.sdf

> <i_m_source_file_index>
77

> <r_mmod_Potential_Energy-OPLS-2005>
-62.3525314331055

> <r_mmod_Stretch_Energy-OPLS-2005>
50.7306900024414

> <r_mmod_Bend_Energy-OPLS-2005>
156.155227661133

> <r_mmod_Torsional_Energy-OPLS-2005>
267.940063476562

> <r_mmod_Improper_Torsional_Energy-OPLS-2005>
4.71240711212158

> <r_mmod_Van_der_Waal_Energy-OPLS-2005>
158.244537353516

> <r_mmod_Electrostatic_Energy-OPLS-2005>
-511.680053710938

> <r_mmod_Solvation_Energy-OPLS-2005>
-210.666427612305

> <b_mmod_Minimization_Converged-OPLS-2005>
0

> <r_mmod_RMS_Derivative-OPLS-2005>
1.08257865905762

$$$$
77
                    3D
 Structure written by MMmdl.
165173  0  0  1  0            999 V2000
  -30.5557  -14.7992   20.4911 C   0  0  0  0  0  0
  -30.4468  -12.4930   19.4846 C   0  0  0  0  0  0
  -29.5204  -12.5111   18.2478 C   0  0  0  0  0  0
  -28.0516  -12.3101   18.6665 C   0  0  0  0  0  0
  -27.6492  -13.2208   19.8553 C   0  0  2  0  0  0
  -28.6882  -13.1532   20.9975 C   0  0  0  0  0  0
  -25.2566  -13.8212   20.5639 C   0  0  0  0  0  0
  -24.1816  -13.0440   20.9180 C   0  0  0  0  0  0
  -24.6422  -11.6939   20.8741 C   0  0  0  0  0  0
  -23.9033  -10.4302   21.0369 C   0  0  0  0  0  0
  -24.3595   -9.4232   21.9157 C   0  0  0  0  0  0
  -23.6272   -8.2233   22.0739 C   0  0  0  0  0  0
  -22.4255   -8.0275   21.3513 C   0  0  0  0  0  0
  -21.9890   -9.0242   20.4620 C   0  0  0  0  0  0
  -22.7200  -10.2122   20.3031 C   0  0  0  0  0  0
  -21.6869   -6.0709   22.5258 C   0  0  0  0  0  0
  -21.4015   -6.5602   23.8191 C   0  0  0  0  0  0
  -21.3666   -5.6764   24.9155 C   0  0  0  0  0  0
  -21.6063   -4.3026   24.7222 C   0  0  0  0  0  0
  -21.8822   -3.8113   23.4341 C   0  0  0  0  0  0
  -21.9207   -4.6929   22.3397 C   0  0  0  0  0  0
  -22.7872  -13.5261   21.1834 C   0  0  0  0  0  0
  -22.1662   -4.2119   21.0976 F   0  0  0  0  0  0
  -21.5646   -3.4525   25.7728 F   0  0  0  0  0  0
  -29.9839  -13.5429   20.4300 N   0  0  0  0  0  0
  -26.2978  -12.9353   20.3273 N   0  0  0  0  0  0
  -25.9340  -11.6512   20.5743 N   0  0  0  0  0  0
  -22.0524  -12.8212   22.0388 N   0  0  0  0  0  0
  -25.4283  -15.1892   20.3946 N   0  0  0  0  0  0
  -31.7088  -14.9623   20.0823 O   0  0  0  0  0  0
  -21.6645   -6.8860   21.4210 O   0  0  0  0  0  0
  -22.3529  -14.5540   20.6699 O   0  0  0  0  0  0
  -24.6279  -31.8637   23.2061 C   0  0  0  0  0  0
  -25.9042  -32.4834   23.8467 C   0  0  1  0  0  0
  -27.1901  -27.2961   20.2018 C   0  0  0  0  0  0
  -25.5873  -33.8634   24.2449 N   0  0  0  0  0  0
  -23.4241  -30.4923   21.5502 C   0  0  2  0  0  0
  -24.8750  -28.9682   20.0966 C   0  0  0  0  0  0
  -22.7564  -29.4606   22.4876 C   0  0  0  0  0  0
  -18.0292  -28.1294   22.8504 C   0  0  0  0  0  0
  -24.1490  -36.7325   23.2671 C   0  0  0  0  0  0
  -25.9600  -30.8273   21.3498 C   0  0  0  0  0  0
  -26.0455  -29.4462   20.6996 C   0  0  0  0  0  0
  -27.2203  -28.6347   20.7138 C   0  0  0  0  0  0
  -26.0070  -26.8860   19.5521 C   0  0  0  0  0  0
  -24.8742  -27.7094   19.4799 C   0  0  0  0  0  0
  -23.6425  -29.8497   20.1580 C   0  0  0  0  0  0
  -25.4079  -36.3119   24.0400 C   0  0  1  0  0  0
  -20.5924  -28.3657   23.1281 C   0  0  2  0  0  0
  -20.6739  -26.9351   22.5451 C   0  0  0  0  0  0
  -19.5709  -26.6279   21.5273 C   0  0  0  0  0  0
  -18.1881  -26.7823   22.1667 C   0  0  0  0  0  0
  -19.1564  -28.8777   23.2877 C   0  0  0  0  0  0
  -18.9491  -30.1381   23.8900 C   0  0  0  0  0  0
  -17.6477  -30.6495   24.0596 C   0  0  0  0  0  0
  -25.9025  -34.9463   23.5249 C   0  0  0  0  0  0
  -16.5367  -29.9022   23.6292 C   0  0  0  0  0  0
  -16.7275  -28.6436   23.0303 C   0  0  0  0  0  0
  -26.4424  -31.6532   25.0740 C   0  0  0  0  0  0
  -25.3652  -31.3597   26.1506 C   0  0  0  0  0  0
  -27.0275  -30.3001   24.5936 C   0  0  0  0  0  0
  -27.6067  -32.4226   25.7424 C   0  0  0  0  0  0
  -27.5571  -37.1788   24.8473 C   0  0  0  0  0  0
  -21.4256  -29.3025   22.3698 N   0  0  0  0  0  0
  -26.4260  -37.3775   23.9490 N   0  0  0  0  0  0
  -24.6914  -31.0720   22.0951 N   0  0  0  0  0  0
  -23.4394  -28.8101   23.2823 O   0  0  0  0  0  0
  -28.2361  -26.3683   20.3210 O   0  0  0  0  0  0
  -26.5545  -34.8889   22.4790 O   0  0  0  0  0  0
  -23.5443  -32.1433   23.7380 O   0  0  0  0  0  0
  -29.2934  -21.1172   20.8469 C   0  0  0  0  0  0
  -28.6832  -19.9167   21.4703 C   0  0  0  0  0  0
  -28.5899  -22.3268   20.9740 C   0  0  0  0  0  0
  -27.4571  -20.3031   22.0182 C   0  0  0  0  0  0
  -24.3215  -21.1804   22.4912 C   0  0  0  0  0  0
  -24.2955  -19.3108   24.1873 C   0  0  0  0  0  0
  -27.9474  -25.2185   22.4651 C   0  0  0  0  0  0
  -29.2438  -18.4262   21.6611 C   0  0  0  0  0  0
  -28.7779  -23.7774   20.3849 C   0  0  0  0  0  0
  -26.3212  -19.4831   22.6002 C   0  0  0  0  0  0
  -29.7581  -17.3923   20.5245 C   0  0  0  0  0  0
  -25.2003  -20.2584   23.3795 C   0  0  0  0  0  0
  -27.9105  -25.0282   20.9166 C   0  0  2  0  0  0
  -29.7353  -15.8742   20.8359 N   0  0  0  0  0  0
  -27.2224  -22.0311   21.9668 S   0  0  0  0  0  0
  -31.4864  -12.6440   19.1904 H   0  0  0  0  0  0
  -30.4126  -11.5152   19.9679 H   0  0  0  0  0  0
  -29.8178  -11.7343   17.5426 H   0  0  0  0  0  0
  -29.6291  -13.4580   17.7173 H   0  0  0  0  0  0
  -27.9396  -11.2658   18.9581 H   0  0  0  0  0  0
  -27.3845  -12.4579   17.8162 H   0  0  0  0  0  0
  -27.6440  -14.2387   19.4655 H   0  0  0  0  0  0
  -28.7501  -12.1464   21.4119 H   0  0  0  0  0  0
  -28.4162  -13.8098   21.8250 H   0  0  0  0  0  0
  -25.2742   -9.5719   22.4728 H   0  0  0  0  0  0
  -24.0007   -7.4643   22.7467 H   0  0  0  0  0  0
  -21.0829   -8.8739   19.8934 H   0  0  0  0  0  0
  -22.3649  -10.9653   19.6139 H   0  0  0  0  0  0
  -21.1963   -7.6115   23.9680 H   0  0  0  0  0  0
  -21.1503   -6.0493   25.9062 H   0  0  0  0  0  0
  -22.0602   -2.7582   23.2849 H   0  0  0  0  0  0
  -22.4131  -11.9877   22.4756 H   0  0  0  0  0  0
  -21.1132  -13.1225   22.2582 H   0  0  0  0  0  0
  -24.6482  -15.8363   20.4388 H   0  0  0  0  0  0
  -26.2562  -15.6049   19.9798 H   0  0  0  0  0  0
  -26.7141  -32.5614   23.1301 H   0  0  0  0  0  0
  -25.0029  -33.9805   25.0605 H   0  0  0  0  0  0
  -22.7164  -31.3134   21.4134 H   0  0  0  0  0  0
  -23.3767  -35.9663   23.3309 H   0  0  0  0  0  0
  -24.3674  -36.8911   22.2111 H   0  0  0  0  0  0
  -23.7154  -37.6508   23.6631 H   0  0  0  0  0  0
  -26.0260  -31.5953   20.5790 H   0  0  0  0  0  0
  -26.8667  -30.9296   21.9339 H   0  0  0  0  0  0
  -28.1296  -29.0133   21.1648 H   0  0  0  0  0  0
  -25.9415  -25.8936   19.1307 H   0  0  0  0  0  0
  -23.9800  -27.3596   18.9852 H   0  0  0  0  0  0
  -23.7791  -30.6584   19.4373 H   0  0  0  0  0  0
  -22.7535  -29.3037   19.8311 H   0  0  0  0  0  0
  -25.1201  -36.2069   25.0866 H   0  0  0  0  0  0
  -21.0029  -28.3167   24.1396 H   0  0  0  0  0  0
  -20.5595  -26.2297   23.3679 H   0  0  0  0  0  0
  -21.6583  -26.7256   22.1268 H   0  0  0  0  0  0
  -19.6913  -25.6216   21.1195 H   0  0  0  0  0  0
  -19.6574  -27.3193   20.6866 H   0  0  0  0  0  0
  -17.4161  -26.6740   21.3997 H   0  0  0  0  0  0
  -18.0149  -25.9882   22.8953 H   0  0  0  0  0  0
  -19.7980  -30.7208   24.2230 H   0  0  0  0  0  0
  -17.5040  -31.6186   24.5247 H   0  0  0  0  0  0
  -15.5390  -30.2992   23.7454 H   0  0  0  0  0  0
  -15.8696  -28.0808   22.6909 H   0  0  0  0  0  0
  -24.5874  -30.6869   25.7783 H   0  0  0  0  0  0
  -24.8809  -32.2771   26.4902 H   0  0  0  0  0  0
  -25.7995  -30.8788   27.0303 H   0  0  0  0  0  0
  -26.2798  -29.6766   24.1000 H   0  0  0  0  0  0
  -27.4211  -29.7098   25.4227 H   0  0  0  0  0  0
  -27.8504  -30.4436   23.8928 H   0  0  0  0  0  0
  -27.2730  -33.3592   26.1916 H   0  0  0  0  0  0
  -28.3783  -32.6695   25.0101 H   0  0  0  0  0  0
  -28.0787  -31.8388   26.5350 H   0  0  0  0  0  0
  -28.2481  -38.0156   24.7572 H   0  0  0  0  0  0
  -28.1110  -36.2694   24.6150 H   0  0  0  0  0  0
  -27.2370  -37.1231   25.8875 H   0  0  0  0  0  0
  -20.9354  -29.8957   21.7134 H   0  0  0  0  0  0
  -26.0201  -38.2852   24.1581 H   0  0  0  0  0  0
  -30.2297  -21.0630   20.3081 H   0  0  0  0  0  0
  -23.2585  -20.9423   22.5545 H   0  0  0  0  0  0
  -24.6073  -21.1420   21.4392 H   0  0  0  0  0  0
  -24.4286  -22.2224   22.8009 H   0  0  0  0  0  0
  -23.6053  -19.8682   24.8300 H   0  0  0  0  0  0
  -24.9045  -18.6810   24.8407 H   0  0  0  0  0  0
  -23.6972  -18.6631   23.5457 H   0  0  0  0  0  0
  -27.8181  -24.3100   23.0534 H   0  0  0  0  0  0
  -27.1520  -25.8835   22.8036 H   0  0  0  0  0  0
  -28.8934  -25.6518   22.7942 H   0  0  0  0  0  0
  -28.5078  -17.8625   22.2344 H   0  0  0  0  0  0
  -30.0793  -18.5127   22.3533 H   0  0  0  0  0  0
  -28.5933  -23.7091   19.3055 H   0  0  0  0  0  0
  -29.8204  -24.0636   20.4931 H   0  0  0  0  0  0
  -26.7302  -18.7157   23.2544 H   0  0  0  0  0  0
  -25.8548  -18.9412   21.7778 H   0  0  0  0  0  0
  -30.7532  -17.7072   20.2094 H   0  0  0  0  0  0
  -29.1249  -17.5342   19.6465 H   0  0  0  0  0  0
  -25.6845  -20.8931   24.1292 H   0  0  0  0  0  0
  -26.8808  -24.7449   20.6694 H   0  0  0  0  0  0
  -28.8523  -15.5569   21.2096 H   0  0  0  0  0  0
  1 25  1  0  0  0
  1 30  2  0  0  0
  1 84  1  0  0  0
  2  3  1  0  0  0
  2 25  1  0  0  0
  2 86  1  0  0  0
  2 87  1  0  0  0
  3  4  1  0  0  0
  3 88  1  0  0  0
  3 89  1  0  0  0
  4  5  1  0  0  0
  4 90  1  0  0  0
  4 91  1  0  0  0
  5  6  1  0  0  0
  5 26  1  0  0  0
  5 92  1  0  0  0
  6 25  1  0  0  0
  6 93  1  0  0  0
  6 94  1  0  0  0
  7  8  2  0  0  0
  7 26  1  0  0  0
  7 29  1  0  0  0
  8  9  1  0  0  0
  8 22  1  0  0  0
  9 10  1  0  0  0
  9 27  2  0  0  0
 10 11  2  0  0  0
 10 15  1  0  0  0
 11 12  1  0  0  0
 11 95  1  0  0  0
 12 13  2  0  0  0
 12 96  1  0  0  0
 13 14  1  0  0  0
 13 31  1  0  0  0
 14 15  2  0  0  0
 14 97  1  0  0  0
 15 98  1  0  0  0
 16 17  2  0  0  0
 16 21  1  0  0  0
 16 31  1  0  0  0
 17 18  1  0  0  0
 17 99  1  0  0  0
 18 19  2  0  0  0
 18100  1  0  0  0
 19 20  1  0  0  0
 19 24  1  0  0  0
 20 21  2  0  0  0
 20101  1  0  0  0
 21 23  1  0  0  0
 22 28  1  0  0  0
 22 32  2  0  0  0
 26 27  1  0  0  0
 28102  1  0  0  0
 28103  1  0  0  0
 29104  1  0  0  0
 29105  1  0  0  0
 33 34  1  0  0  0
 33 66  1  0  0  0
 33 70  2  0  0  0
 34 36  1  0  0  0
 34 59  1  0  0  0
 34106  1  0  0  0
 35 44  2  0  0  0
 35 45  1  0  0  0
 35 68  1  0  0  0
 36 56  1  0  0  0
 36107  1  0  0  0
 37 39  1  0  0  0
 37 47  1  0  0  0
 37 66  1  0  0  0
 37108  1  0  0  0
 38 43  2  0  0  0
 38 46  1  0  0  0
 38 47  1  0  0  0
 39 64  1  0  0  0
 39 67  2  0  0  0
 40 52  1  0  0  0
 40 53  2  0  0  0
 40 58  1  0  0  0
 41109  1  0  0  0
 41110  1  0  0  0
 41111  1  0  0  0
 41 48  1  0  0  0
 42 43  1  0  0  0
 42 66  1  0  0  0
 42112  1  0  0  0
 42113  1  0  0  0
 43 44  1  0  0  0
 44114  1  0  0  0
 45 46  2  0  0  0
 45115  1  0  0  0
 46116  1  0  0  0
 47117  1  0  0  0
 47118  1  0  0  0
 48 56  1  0  0  0
 48 65  1  0  0  0
 48119  1  0  0  0
 49 50  1  0  0  0
 49 53  1  0  0  0
 49 64  1  0  0  0
 49120  1  0  0  0
 50 51  1  0  0  0
 50121  1  0  0  0
 50122  1  0  0  0
 51 52  1  0  0  0
 51123  1  0  0  0
 51124  1  0  0  0
 52125  1  0  0  0
 52126  1  0  0  0
 53 54  1  0  0  0
 54 55  2  0  0  0
 54127  1  0  0  0
 55 57  1  0  0  0
 55128  1  0  0  0
 56 69  2  0  0  0
 57 58  2  0  0  0
 57129  1  0  0  0
 58130  1  0  0  0
 59 60  1  0  0  0
 59 61  1  0  0  0
 59 62  1  0  0  0
 60131  1  0  0  0
 60132  1  0  0  0
 60133  1  0  0  0
 61134  1  0  0  0
 61135  1  0  0  0
 61136  1  0  0  0
 62137  1  0  0  0
 62138  1  0  0  0
 62139  1  0  0  0
 63 65  1  0  0  0
 63140  1  0  0  0
 63141  1  0  0  0
 63142  1  0  0  0
 64143  1  0  0  0
 65144  1  0  0  0
 68 83  1  0  0  0
 71 72  1  0  0  0
 71 73  2  0  0  0
 71145  1  0  0  0
 72 74  2  0  0  0
 72 78  1  0  0  0
 73 79  1  0  0  0
 73 85  1  0  0  0
 74 80  1  0  0  0
 74 85  1  0  0  0
 75146  1  0  0  0
 75147  1  0  0  0
 75148  1  0  0  0
 75 82  1  0  0  0
 76 82  1  0  0  0
 76149  1  0  0  0
 76150  1  0  0  0
 76151  1  0  0  0
 77152  1  0  0  0
 77153  1  0  0  0
 77154  1  0  0  0
 77 83  1  0  0  0
 78 81  1  0  0  0
 78155  1  0  0  0
 78156  1  0  0  0
 79 83  1  0  0  0
 79157  1  0  0  0
 79158  1  0  0  0
 80 82  1  0  0  0
 80159  1  0  0  0
 80160  1  0  0  0
 81 84  1  0  0  0
 81161  1  0  0  0
 81162  1  0  0  0
 82163  1  0  0  0
 83164  1  0  0  0
 84165  1  0  0  0
M  ISO  4   1 100  68 101  83 101  84 100
M  END
> <chiral flag>
0

> <version>
0

> <s_m_source_file>
/data/baiqing/PycharmProjects/Reinvent-master-3.2/result/LINK_invent/BTK/process_docking_weight1_custom_sum_contain_oxygen_bond_distance_aromatic_linkinvent_7_9_3/rearranged_h_0093.sdf

> <i_m_source_file_index>
78

> <r_mmod_Potential_Energy-OPLS-2005>
214.253662109375

> <r_mmod_Stretch_Energy-OPLS-2005>
131.391448974609

> <r_mmod_Bend_Energy-OPLS-2005>
188.830627441406

> <r_mmod_Torsional_Energy-OPLS-2005>
232.416351318359

> <r_mmod_Improper_Torsional_Energy-OPLS-2005>
5.73732805252075

> <r_mmod_Van_der_Waal_Energy-OPLS-2005>
131.921157836914

> <r_mmod_Electrostatic_Energy-OPLS-2005>
-380.105987548828

> <r_mmod_Solvation_Energy-OPLS-2005>
-199.08805847168

> <b_mmod_Minimization_Converged-OPLS-2005>
0

> <r_mmod_RMS_Derivative-OPLS-2005>
11.9569692611694

$$$$
78
                    3D
 Structure written by MMmdl.
155163  0  0  1  0            999 V2000
  -30.6885  -14.5460   20.5465 C   0  0  0  0  0  0
  -30.4197  -12.3513   19.4311 C   0  0  0  0  0  0
  -29.4963  -12.5037   18.2056 C   0  0  0  0  0  0
  -28.0191  -12.3532   18.6183 C   0  0  0  0  0  0
  -27.6516  -13.2167   19.8556 C   0  0  2  0  0  0
  -28.6924  -13.0545   20.9841 C   0  0  0  0  0  0
  -25.2558  -13.8184   20.5664 C   0  0  0  0  0  0
  -24.1832  -13.0445   20.9174 C   0  0  0  0  0  0
  -24.6402  -11.6921   20.8722 C   0  0  0  0  0  0
  -23.9072  -10.4305   21.0389 C   0  0  0  0  0  0
  -24.3628   -9.4227   21.9166 C   0  0  0  0  0  0
  -23.6310   -8.2261   22.0741 C   0  0  0  0  0  0
  -22.4290   -8.0284   21.3536 C   0  0  0  0  0  0
  -21.9928   -9.0248   20.4632 C   0  0  0  0  0  0
  -22.7250  -10.2134   20.3038 C   0  0  0  0  0  0
  -21.6866   -6.0746   22.5277 C   0  0  0  0  0  0
  -21.4021   -6.5643   23.8207 C   0  0  0  0  0  0
  -21.3666   -5.6791   24.9164 C   0  0  0  0  0  0
  -21.6051   -4.3053   24.7206 C   0  0  0  0  0  0
  -21.8820   -3.8150   23.4319 C   0  0  0  0  0  0
  -21.9196   -4.6975   22.3387 C   0  0  0  0  0  0
  -22.7856  -13.5235   21.1832 C   0  0  0  0  0  0
  -22.1662   -4.2167   21.0962 F   0  0  0  0  0  0
  -21.5630   -3.4532   25.7711 F   0  0  0  0  0  0
  -30.0129  -13.3676   20.4198 N   0  0  0  0  0  0
  -26.2977  -12.9367   20.3265 N   0  0  0  0  0  0
  -25.9319  -11.6517   20.5710 N   0  0  0  0  0  0
  -22.0500  -12.8233   22.0389 N   0  0  0  0  0  0
  -25.4254  -15.1910   20.4112 N   0  0  0  0  0  0
  -31.8436  -14.6757   20.1325 O   0  0  0  0  0  0
  -21.6650   -6.8889   21.4238 O   0  0  0  0  0  0
  -22.3536  -14.5533   20.6665 O   0  0  0  0  0  0
  -24.6206  -31.8640   23.2043 C   0  0  0  0  0  0
  -25.9074  -32.4791   23.8355 C   0  0  1  0  0  0
  -27.2292  -27.3732   20.1029 C   0  0  0  0  0  0
  -25.5893  -33.8588   24.2280 N   0  0  0  0  0  0
  -23.4097  -30.4877   21.5472 C   0  0  2  0  0  0
  -24.8544  -28.9467   20.1133 C   0  0  0  0  0  0
  -22.7432  -29.4654   22.4973 C   0  0  0  0  0  0
  -18.0274  -28.1386   22.8485 C   0  0  0  0  0  0
  -24.1477  -36.7299   23.2642 C   0  0  0  0  0  0
  -25.9453  -30.8109   21.3652 C   0  0  0  0  0  0
  -26.0205  -29.4420   20.7092 C   0  0  0  0  0  0
  -27.2107  -28.6659   20.6954 C   0  0  0  0  0  0
  -26.0367  -26.9123   19.4958 C   0  0  0  0  0  0
  -24.8610  -27.6833   19.5025 C   0  0  0  0  0  0
  -23.6193  -29.8194   20.1629 C   0  0  0  0  0  0
  -25.4099  -36.3087   24.0334 C   0  0  1  0  0  0
  -20.5866  -28.3681   23.1300 C   0  0  2  0  0  0
  -20.6756  -26.9411   22.5415 C   0  0  0  0  0  0
  -19.5737  -26.6386   21.5211 C   0  0  0  0  0  0
  -18.1921  -26.7924   22.1630 C   0  0  0  0  0  0
  -19.1524  -28.8847   23.2889 C   0  0  0  0  0  0
  -18.9457  -30.1443   23.8916 C   0  0  0  0  0  0
  -17.6465  -30.6591   24.0566 C   0  0  0  0  0  0
  -25.9039  -34.9458   23.5110 C   0  0  0  0  0  0
  -16.5353  -29.9105   23.6313 C   0  0  0  0  0  0
  -16.7265  -28.6518   23.0342 C   0  0  0  0  0  0
  -26.4471  -31.6590   25.0713 C   0  0  0  0  0  0
  -25.3716  -31.3719   26.1450 C   0  0  0  0  0  0
  -27.0301  -30.3016   24.6135 C   0  0  0  0  0  0
  -27.6022  -32.4331   25.7486 C   0  0  0  0  0  0
  -27.5568  -37.1800   24.8465 C   0  0  0  0  0  0
  -21.4156  -29.3045   22.3705 N   0  0  0  0  0  0
  -26.4276  -37.3783   23.9416 N   0  0  0  0  0  0
  -24.6767  -31.0698   22.0961 N   0  0  0  0  0  0
  -23.4184  -28.8207   23.3038 O   0  0  0  0  0  0
  -28.3786  -26.5851   20.1404 O   0  0  0  0  0  0
  -26.5630  -34.8928   22.4691 O   0  0  0  0  0  0
  -23.5388  -32.1428   23.7411 O   0  0  0  0  0  0
  -30.1074  -19.4802   21.5082 C   0  0  0  0  0  0
  -29.8892  -18.2197   21.0044 C   0  0  0  0  0  0
  -30.7248  -24.8830   19.4953 C   0  0  0  0  0  0
  -30.6068  -16.9211   21.3924 C   0  0  0  0  0  0
  -29.3939  -22.7418   19.8819 C   0  0  0  0  0  0
  -28.9874  -21.7732   21.0395 C   0  0  0  0  0  0
  -28.2423  -25.1522   19.8915 C   0  0  0  0  0  0
  -29.5060  -24.2856   20.2220 C   0  0  2  0  0  0
  -28.9037  -18.3458   20.0206 N   0  0  0  0  0  0
  -28.5276  -19.5985   19.9252 N   0  0  0  0  0  0
  -29.2465  -20.3264   20.8210 N   0  0  0  0  0  0
  -30.0039  -15.6110   21.0336 N   0  0  0  0  0  0
  -31.4642  -12.4517   19.1312 H   0  0  0  0  0  0
  -30.3269  -11.3516   19.8581 H   0  0  0  0  0  0
  -29.7510  -11.7616   17.4474 H   0  0  0  0  0  0
  -29.6513  -13.4798   17.7435 H   0  0  0  0  0  0
  -27.8459  -11.2997   18.8388 H   0  0  0  0  0  0
  -27.3681  -12.5969   17.7785 H   0  0  0  0  0  0
  -27.6775  -14.2563   19.5265 H   0  0  0  0  0  0
  -28.6849  -12.0316   21.3638 H   0  0  0  0  0  0
  -28.4457  -13.6909   21.8349 H   0  0  0  0  0  0
  -25.2778   -9.5714   22.4719 H   0  0  0  0  0  0
  -24.0026   -7.4670   22.7465 H   0  0  0  0  0  0
  -21.0857   -8.8760   19.8945 H   0  0  0  0  0  0
  -22.3704  -10.9655   19.6132 H   0  0  0  0  0  0
  -21.2015   -7.6156   23.9717 H   0  0  0  0  0  0
  -21.1493   -6.0516   25.9075 H   0  0  0  0  0  0
  -22.0594   -2.7615   23.2802 H   0  0  0  0  0  0
  -22.4133  -11.9933   22.4838 H   0  0  0  0  0  0
  -21.1089  -13.1212   22.2526 H   0  0  0  0  0  0
  -24.6561  -15.8415   20.5270 H   0  0  0  0  0  0
  -26.2744  -15.6370   20.0858 H   0  0  0  0  0  0
  -26.7142  -32.5479   23.1111 H   0  0  0  0  0  0
  -24.9969  -33.9728   25.0374 H   0  0  0  0  0  0
  -22.7010  -31.3061   21.4056 H   0  0  0  0  0  0
  -23.3738  -35.9632   23.3307 H   0  0  0  0  0  0
  -24.3567  -36.8920   22.2055 H   0  0  0  0  0  0
  -23.7238  -37.6503   23.6667 H   0  0  0  0  0  0
  -26.0670  -31.5743   20.5956 H   0  0  0  0  0  0
  -26.8294  -30.8617   21.9881 H   0  0  0  0  0  0
  -28.1080  -29.0467   21.1633 H   0  0  0  0  0  0
  -25.9847  -25.9466   19.0156 H   0  0  0  0  0  0
  -23.9649  -27.2923   19.0403 H   0  0  0  0  0  0
  -23.7314  -30.5936   19.4030 H   0  0  0  0  0  0
  -22.7412  -29.2419   19.8667 H   0  0  0  0  0  0
  -25.1281  -36.1931   25.0826 H   0  0  0  0  0  0
  -20.9953  -28.3251   24.1422 H   0  0  0  0  0  0
  -20.5642  -26.2299   23.3615 H   0  0  0  0  0  0
  -21.6628  -26.7439   22.1221 H   0  0  0  0  0  0
  -19.6896  -25.6298   21.1239 H   0  0  0  0  0  0
  -19.6667  -27.3196   20.6741 H   0  0  0  0  0  0
  -17.4182  -26.6656   21.4046 H   0  0  0  0  0  0
  -18.0336  -26.0071   22.9035 H   0  0  0  0  0  0
  -19.7938  -30.7236   24.2312 H   0  0  0  0  0  0
  -17.5032  -31.6271   24.5167 H   0  0  0  0  0  0
  -15.5358  -30.3031   23.7610 H   0  0  0  0  0  0
  -15.8660  -28.0845   22.7056 H   0  0  0  0  0  0
  -24.5876  -30.7083   25.7781 H   0  0  0  0  0  0
  -24.8923  -32.2885   26.4897 H   0  0  0  0  0  0
  -25.8051  -30.8877   27.0210 H   0  0  0  0  0  0
  -26.2857  -29.6784   24.1164 H   0  0  0  0  0  0
  -27.4013  -29.7252   25.4621 H   0  0  0  0  0  0
  -27.8719  -30.4307   23.9327 H   0  0  0  0  0  0
  -27.2606  -33.3615   26.2082 H   0  0  0  0  0  0
  -28.3820  -32.6935   25.0312 H   0  0  0  0  0  0
  -28.0708  -31.8458   26.5397 H   0  0  0  0  0  0
  -28.2592  -38.0091   24.7508 H   0  0  0  0  0  0
  -28.1059  -36.2626   24.6289 H   0  0  0  0  0  0
  -27.2293  -37.1443   25.8870 H   0  0  0  0  0  0
  -20.9332  -29.8767   21.6915 H   0  0  0  0  0  0
  -26.0158  -38.2853   24.1432 H   0  0  0  0  0  0
  -30.7741  -19.8307   22.2861 H   0  0  0  0  0  0
  -31.6422  -24.3470   19.7425 H   0  0  0  0  0  0
  -30.8805  -25.9254   19.7762 H   0  0  0  0  0  0
  -30.5998  -24.8462   18.4121 H   0  0  0  0  0  0
  -30.7290  -16.9061   22.4768 H   0  0  0  0  0  0
  -31.6244  -16.9767   21.0062 H   0  0  0  0  0  0
  -28.7287  -22.5942   19.0302 H   0  0  0  0  0  0
  -30.3683  -22.3950   19.5349 H   0  0  0  0  0  0
  -27.9290  -21.8990   21.2688 H   0  0  0  0  0  0
  -29.5234  -22.0623   21.9431 H   0  0  0  0  0  0
  -27.4051  -24.7590   20.4703 H   0  0  0  0  0  0
  -27.9979  -25.0095   18.8380 H   0  0  0  0  0  0
  -29.7056  -24.3816   21.2910 H   0  0  0  0  0  0
  -29.0352  -15.4760   21.2754 H   0  0  0  0  0  0
  1 25  1  0  0  0
  1 30  2  0  0  0
  1 82  1  0  0  0
  2  3  1  0  0  0
  2 25  1  0  0  0
  2 83  1  0  0  0
  2 84  1  0  0  0
  3  4  1  0  0  0
  3 85  1  0  0  0
  3 86  1  0  0  0
  4  5  1  0  0  0
  4 87  1  0  0  0
  4 88  1  0  0  0
  5  6  1  0  0  0
  5 26  1  0  0  0
  5 89  1  0  0  0
  6 25  1  0  0  0
  6 90  1  0  0  0
  6 91  1  0  0  0
  7  8  2  0  0  0
  7 26  1  0  0  0
  7 29  1  0  0  0
  8  9  1  0  0  0
  8 22  1  0  0  0
  9 10  1  0  0  0
  9 27  2  0  0  0
 10 11  2  0  0  0
 10 15  1  0  0  0
 11 12  1  0  0  0
 11 92  1  0  0  0
 12 13  2  0  0  0
 12 93  1  0  0  0
 13 14  1  0  0  0
 13 31  1  0  0  0
 14 15  2  0  0  0
 14 94  1  0  0  0
 15 95  1  0  0  0
 16 17  2  0  0  0
 16 21  1  0  0  0
 16 31  1  0  0  0
 17 18  1  0  0  0
 17 96  1  0  0  0
 18 19  2  0  0  0
 18 97  1  0  0  0
 19 20  1  0  0  0
 19 24  1  0  0  0
 20 21  2  0  0  0
 20 98  1  0  0  0
 21 23  1  0  0  0
 22 28  1  0  0  0
 22 32  2  0  0  0
 26 27  1  0  0  0
 28 99  1  0  0  0
 28100  1  0  0  0
 29101  1  0  0  0
 29102  1  0  0  0
 33 34  1  0  0  0
 33 66  1  0  0  0
 33 70  2  0  0  0
 34 36  1  0  0  0
 34 59  1  0  0  0
 34103  1  0  0  0
 35 44  2  0  0  0
 35 45  1  0  0  0
 35 68  1  0  0  0
 36 56  1  0  0  0
 36104  1  0  0  0
 37 39  1  0  0  0
 37 47  1  0  0  0
 37 66  1  0  0  0
 37105  1  0  0  0
 38 43  2  0  0  0
 38 46  1  0  0  0
 38 47  1  0  0  0
 39 64  1  0  0  0
 39 67  2  0  0  0
 40 52  1  0  0  0
 40 53  2  0  0  0
 40 58  1  0  0  0
 41106  1  0  0  0
 41107  1  0  0  0
 41108  1  0  0  0
 41 48  1  0  0  0
 42 43  1  0  0  0
 42 66  1  0  0  0
 42109  1  0  0  0
 42110  1  0  0  0
 43 44  1  0  0  0
 44111  1  0  0  0
 45 46  2  0  0  0
 45112  1  0  0  0
 46113  1  0  0  0
 47114  1  0  0  0
 47115  1  0  0  0
 48 56  1  0  0  0
 48 65  1  0  0  0
 48116  1  0  0  0
 49 50  1  0  0  0
 49 53  1  0  0  0
 49 64  1  0  0  0
 49117  1  0  0  0
 50 51  1  0  0  0
 50118  1  0  0  0
 50119  1  0  0  0
 51 52  1  0  0  0
 51120  1  0  0  0
 51121  1  0  0  0
 52122  1  0  0  0
 52123  1  0  0  0
 53 54  1  0  0  0
 54 55  2  0  0  0
 54124  1  0  0  0
 55 57  1  0  0  0
 55125  1  0  0  0
 56 69  2  0  0  0
 57 58  2  0  0  0
 57126  1  0  0  0
 58127  1  0  0  0
 59 60  1  0  0  0
 59 61  1  0  0  0
 59 62  1  0  0  0
 60128  1  0  0  0
 60129  1  0  0  0
 60130  1  0  0  0
 61131  1  0  0  0
 61132  1  0  0  0
 61133  1  0  0  0
 62134  1  0  0  0
 62135  1  0  0  0
 62136  1  0  0  0
 63 65  1  0  0  0
 63137  1  0  0  0
 63138  1  0  0  0
 63139  1  0  0  0
 64140  1  0  0  0
 65141  1  0  0  0
 68 77  1  0  0  0
 71 72  2  0  0  0
 71 81  1  0  0  0
 71142  1  0  0  0
 72 74  1  0  0  0
 72 79  1  0  0  0
 73143  1  0  0  0
 73144  1  0  0  0
 73145  1  0  0  0
 73 78  1  0  0  0
 74 82  1  0  0  0
 74146  1  0  0  0
 74147  1  0  0  0
 75 76  1  0  0  0
 75 78  1  0  0  0
 75148  1  0  0  0
 75149  1  0  0  0
 76 81  1  0  0  0
 76150  1  0  0  0
 76151  1  0  0  0
 77 78  1  0  0  0
 77152  1  0  0  0
 77153  1  0  0  0
 78154  1  0  0  0
 79 80  2  0  0  0
 80 81  1  0  0  0
 82155  1  0  0  0
M  ISO  4   1 100  68 101  77 101  82 100
M  END
> <chiral flag>
0

> <version>
0

> <s_m_source_file>
/data/baiqing/PycharmProjects/Reinvent-master-3.2/result/LINK_invent/BTK/process_docking_weight1_custom_sum_contain_oxygen_bond_distance_aromatic_linkinvent_7_9_3/rearranged_h_0093.sdf

> <i_m_source_file_index>
79

> <r_mmod_Potential_Energy-OPLS-2005>
-146.897735595703

> <r_mmod_Stretch_Energy-OPLS-2005>
51.314208984375

> <r_mmod_Bend_Energy-OPLS-2005>
115.230697631836

> <r_mmod_Torsional_Energy-OPLS-2005>
214.232650756836

> <r_mmod_Improper_Torsional_Energy-OPLS-2005>
3.07134628295898

> <r_mmod_Van_der_Waal_Energy-OPLS-2005>
128.239166259766

> <r_mmod_Electrostatic_Energy-OPLS-2005>
-464.285552978516

> <r_mmod_Solvation_Energy-OPLS-2005>
-221.070388793945

> <b_mmod_Minimization_Converged-OPLS-2005>
0

> <r_mmod_RMS_Derivative-OPLS-2005>
1.62621140480042

$$$$
79
                    3D
 Structure written by MMmdl.
172180  0  0  1  0            999 V2000
  -30.7094  -14.4848   20.5744 C   0  0  0  0  0  0
  -30.4217  -12.3171   19.4269 C   0  0  0  0  0  0
  -29.4957  -12.5048   18.2082 C   0  0  0  0  0  0
  -28.0180  -12.3612   18.6219 C   0  0  0  0  0  0
  -27.6601  -13.2085   19.8726 C   0  0  2  0  0  0
  -28.7024  -13.0076   20.9958 C   0  0  0  0  0  0
  -25.2588  -13.8142   20.5680 C   0  0  0  0  0  0
  -24.1842  -13.0431   20.9179 C   0  0  0  0  0  0
  -24.6396  -11.6898   20.8737 C   0  0  0  0  0  0
  -23.9057  -10.4287   21.0405 C   0  0  0  0  0  0
  -24.3611   -9.4204   21.9183 C   0  0  0  0  0  0
  -23.6288   -8.2240   22.0754 C   0  0  0  0  0  0
  -22.4270   -8.0278   21.3546 C   0  0  0  0  0  0
  -21.9903   -9.0250   20.4647 C   0  0  0  0  0  0
  -22.7229  -10.2129   20.3054 C   0  0  0  0  0  0
  -21.6852   -6.0732   22.5279 C   0  0  0  0  0  0
  -21.4013   -6.5636   23.8212 C   0  0  0  0  0  0
  -21.3659   -5.6790   24.9174 C   0  0  0  0  0  0
  -21.6045   -4.3054   24.7226 C   0  0  0  0  0  0
  -21.8819   -3.8143   23.4349 C   0  0  0  0  0  0
  -21.9193   -4.6960   22.3403 C   0  0  0  0  0  0
  -22.7868  -13.5240   21.1842 C   0  0  0  0  0  0
  -22.1661   -4.2146   21.0982 F   0  0  0  0  0  0
  -21.5628   -3.4539   25.7739 F   0  0  0  0  0  0
  -30.0308  -13.3119   20.4388 N   0  0  0  0  0  0
  -26.3024  -12.9322   20.3358 N   0  0  0  0  0  0
  -25.9324  -11.6481   20.5766 N   0  0  0  0  0  0
  -22.0498  -12.8235   22.0387 N   0  0  0  0  0  0
  -25.4318  -15.1852   20.4064 N   0  0  0  0  0  0
  -31.8359  -14.6572   20.1029 O   0  0  0  0  0  0
  -21.6637   -6.8875   21.4241 O   0  0  0  0  0  0
  -22.3573  -14.5563   20.6701 O   0  0  0  0  0  0
  -24.6170  -31.8684   23.2093 C   0  0  0  0  0  0
  -25.9049  -32.4832   23.8400 C   0  0  1  0  0  0
  -27.2266  -27.4118   20.0951 C   0  0  0  0  0  0
  -25.5905  -33.8631   24.2341 N   0  0  0  0  0  0
  -23.4053  -30.4930   21.5528 C   0  0  2  0  0  0
  -24.8493  -28.9637   20.1115 C   0  0  0  0  0  0
  -22.7426  -29.4659   22.4995 C   0  0  0  0  0  0
  -18.0276  -28.1374   22.8498 C   0  0  0  0  0  0
  -24.1487  -36.7311   23.2638 C   0  0  0  0  0  0
  -25.9381  -30.8294   21.3631 C   0  0  0  0  0  0
  -26.0145  -29.4645   20.7062 C   0  0  0  0  0  0
  -27.2075  -28.6980   20.6906 C   0  0  0  0  0  0
  -26.0394  -26.9422   19.4828 C   0  0  0  0  0  0
  -24.8589  -27.7038   19.4950 C   0  0  0  0  0  0
  -23.6122  -29.8308   20.1659 C   0  0  0  0  0  0
  -25.4103  -36.3118   24.0348 C   0  0  1  0  0  0
  -20.5870  -28.3660   23.1323 C   0  0  2  0  0  0
  -20.6763  -26.9390   22.5421 C   0  0  0  0  0  0
  -19.5742  -26.6383   21.5216 C   0  0  0  0  0  0
  -18.1921  -26.7922   22.1626 C   0  0  0  0  0  0
  -19.1525  -28.8830   23.2909 C   0  0  0  0  0  0
  -18.9451  -30.1435   23.8916 C   0  0  0  0  0  0
  -17.6453  -30.6578   24.0561 C   0  0  0  0  0  0
  -25.9037  -34.9486   23.5143 C   0  0  0  0  0  0
  -16.5345  -29.9077   23.6325 C   0  0  0  0  0  0
  -16.7263  -28.6500   23.0349 C   0  0  0  0  0  0
  -26.4470  -31.6598   25.0722 C   0  0  0  0  0  0
  -25.3730  -31.3706   26.1464 C   0  0  0  0  0  0
  -27.0283  -30.3046   24.6073 C   0  0  0  0  0  0
  -27.6059  -32.4301   25.7467 C   0  0  0  0  0  0
  -27.5589  -37.1800   24.8465 C   0  0  0  0  0  0
  -21.4153  -29.3030   22.3736 N   0  0  0  0  0  0
  -26.4295  -37.3800   23.9419 N   0  0  0  0  0  0
  -24.6728  -31.0770   22.1007 N   0  0  0  0  0  0
  -23.4196  -28.8185   23.3028 O   0  0  0  0  0  0
  -28.3742  -26.6311   20.1328 O   0  0  0  0  0  0
  -26.5596  -34.8935   22.4705 O   0  0  0  0  0  0
  -23.5357  -32.1446   23.7479 O   0  0  0  0  0  0
  -29.9525  -21.8609   20.8846 C   0  0  0  0  0  0
  -27.8375  -22.3779   21.3005 C   0  0  0  0  0  0
  -29.3560  -20.6989   21.3247 C   0  0  0  0  0  0
  -27.9797  -21.0386   21.5606 C   0  0  0  0  0  0
  -26.5398  -20.5279   23.5374 C   0  0  0  0  0  0
  -26.0090  -18.6079   19.3999 C   0  0  0  0  0  0
  -24.9740  -20.7588   18.8447 C   0  0  0  0  0  0
  -30.1146  -19.3925   21.6242 C   0  0  0  0  0  0
  -29.6104  -18.0297   21.0557 C   0  0  0  0  0  0
  -29.3514  -24.3395   20.6424 C   0  0  0  0  0  0
  -30.5672  -16.8560   21.4237 C   0  0  0  0  0  0
  -25.5945  -20.2770   21.1876 C   0  0  0  0  0  0
  -28.1610  -25.1971   20.1275 C   0  0  0  0  0  0
  -26.8539  -20.1653   22.0794 C   0  0  1  0  0  0
  -29.0448  -22.9124   20.8949 N   0  0  0  0  0  0
  -30.0375  -15.5011   21.1546 N   0  0  0  0  0  0
  -25.8986  -20.0414   19.7518 N   0  3  0  0  0  0
  -31.4670  -12.4110   19.1271 H   0  0  0  0  0  0
  -30.3204  -11.3097   19.8339 H   0  0  0  0  0  0
  -29.7395  -11.7761   17.4340 H   0  0  0  0  0  0
  -29.6609  -13.4885   17.7662 H   0  0  0  0  0  0
  -27.8351  -11.3057   18.8270 H   0  0  0  0  0  0
  -27.3655  -12.6250   17.7890 H   0  0  0  0  0  0
  -27.7000  -14.2543   19.5669 H   0  0  0  0  0  0
  -28.6833  -11.9762   21.3519 H   0  0  0  0  0  0
  -28.4622  -13.6204   21.8657 H   0  0  0  0  0  0
  -25.2758   -9.5680   22.4753 H   0  0  0  0  0  0
  -23.9997   -7.4632   22.7475 H   0  0  0  0  0  0
  -21.0834   -8.8768   19.8955 H   0  0  0  0  0  0
  -22.3690  -10.9668   19.6162 H   0  0  0  0  0  0
  -21.2006   -7.6144   23.9714 H   0  0  0  0  0  0
  -21.1480   -6.0521   25.9077 H   0  0  0  0  0  0
  -22.0599   -2.7607   23.2850 H   0  0  0  0  0  0
  -22.4098  -11.9881   22.4760 H   0  0  0  0  0  0
  -21.1120  -13.1270   22.2591 H   0  0  0  0  0  0
  -24.6578  -15.8322   20.4992 H   0  0  0  0  0  0
  -26.2833  -15.6083   20.0637 H   0  0  0  0  0  0
  -26.7126  -32.5536   23.1166 H   0  0  0  0  0  0
  -25.0051  -33.9804   25.0483 H   0  0  0  0  0  0
  -22.6948  -31.3105   21.4167 H   0  0  0  0  0  0
  -23.3763  -35.9632   23.3301 H   0  0  0  0  0  0
  -24.3585  -36.8917   22.2054 H   0  0  0  0  0  0
  -23.7222  -37.6512   23.6644 H   0  0  0  0  0  0
  -26.0520  -31.5968   20.5965 H   0  0  0  0  0  0
  -26.8276  -30.8841   21.9794 H   0  0  0  0  0  0
  -28.1048  -29.0790   21.1576 H   0  0  0  0  0  0
  -25.9982  -25.9809   18.9919 H   0  0  0  0  0  0
  -23.9642  -27.3142   19.0284 H   0  0  0  0  0  0
  -23.7179  -30.6090   19.4100 H   0  0  0  0  0  0
  -22.7349  -29.2531   19.8690 H   0  0  0  0  0  0
  -25.1276  -36.1992   25.0845 H   0  0  0  0  0  0
  -20.9974  -28.3214   24.1442 H   0  0  0  0  0  0
  -20.5670  -26.2255   23.3603 H   0  0  0  0  0  0
  -21.6632  -26.7433   22.1206 H   0  0  0  0  0  0
  -19.6901  -25.6306   21.1218 H   0  0  0  0  0  0
  -19.6682  -27.3217   20.6766 H   0  0  0  0  0  0
  -17.4193  -26.6682   21.4026 H   0  0  0  0  0  0
  -18.0311  -26.0059   22.9017 H   0  0  0  0  0  0
  -19.7922  -30.7247   24.2298 H   0  0  0  0  0  0
  -17.5003  -31.6261   24.5154 H   0  0  0  0  0  0
  -15.5344  -30.2986   23.7634 H   0  0  0  0  0  0
  -15.8662  -28.0817   22.7060 H   0  0  0  0  0  0
  -24.5915  -30.7038   25.7799 H   0  0  0  0  0  0
  -24.8901  -32.2859   26.4904 H   0  0  0  0  0  0
  -25.8082  -30.8885   27.0226 H   0  0  0  0  0  0
  -26.2818  -29.6820   24.1129 H   0  0  0  0  0  0
  -27.4073  -29.7267   25.4512 H   0  0  0  0  0  0
  -27.8652  -30.4382   23.9207 H   0  0  0  0  0  0
  -27.2710  -33.3603   26.2070 H   0  0  0  0  0  0
  -28.3847  -32.6852   25.0266 H   0  0  0  0  0  0
  -28.0749  -31.8398   26.5347 H   0  0  0  0  0  0
  -28.2599  -38.0104   24.7537 H   0  0  0  0  0  0
  -28.1092  -36.2642   24.6260 H   0  0  0  0  0  0
  -27.2316  -37.1414   25.8869 H   0  0  0  0  0  0
  -20.9296  -29.8768   21.6977 H   0  0  0  0  0  0
  -26.0193  -38.2884   24.1426 H   0  0  0  0  0  0
  -30.9867  -22.0523   20.6257 H   0  0  0  0  0  0
  -26.9609  -23.0003   21.4206 H   0  0  0  0  0  0
  -27.4252  -20.4196   24.1650 H   0  0  0  0  0  0
  -25.7643  -19.8817   23.9490 H   0  0  0  0  0  0
  -26.1964  -21.5591   23.6289 H   0  0  0  0  0  0
  -26.3603  -18.4904   18.3744 H   0  0  0  0  0  0
  -25.0430  -18.1090   19.4839 H   0  0  0  0  0  0
  -26.7145  -18.0881   20.0452 H   0  0  0  0  0  0
  -25.2600  -20.6124   17.8026 H   0  0  0  0  0  0
  -24.9876  -21.8323   19.0348 H   0  0  0  0  0  0
  -23.9495  -20.4052   18.9659 H   0  0  0  0  0  0
  -30.1739  -19.3105   22.7108 H   0  0  0  0  0  0
  -31.1439  -19.5382   21.2922 H   0  0  0  0  0  0
  -29.5074  -18.0928   19.9722 H   0  0  0  0  0  0
  -28.6292  -17.7900   21.4512 H   0  0  0  0  0  0
  -29.7116  -24.7637   21.5804 H   0  0  0  0  0  0
  -30.1805  -24.4011   19.9370 H   0  0  0  0  0  0
  -30.7893  -16.8980   22.4908 H   0  0  0  0  0  0
  -31.5223  -17.0094   20.9178 H   0  0  0  0  0  0
  -25.1801  -21.2798   21.3032 H   0  0  0  0  0  0
  -24.8140  -19.5945   21.5265 H   0  0  0  0  0  0
  -27.9072  -24.8639   19.1209 H   0  0  0  0  0  0
  -27.2995  -24.9984   20.7642 H   0  0  0  0  0  0
  -27.1771  -19.1313   22.0850 H   0  0  0  0  0  0
  -29.1146  -15.2847   21.5013 H   0  0  0  0  0  0
  -26.8111  -20.4521   19.6066 H   0  0  0  0  0  0
  1 25  1  0  0  0
  1 30  2  0  0  0
  1 86  1  0  0  0
  2  3  1  0  0  0
  2 25  1  0  0  0
  2 88  1  0  0  0
  2 89  1  0  0  0
  3  4  1  0  0  0
  3 90  1  0  0  0
  3 91  1  0  0  0
  4  5  1  0  0  0
  4 92  1  0  0  0
  4 93  1  0  0  0
  5  6  1  0  0  0
  5 26  1  0  0  0
  5 94  1  0  0  0
  6 25  1  0  0  0
  6 95  1  0  0  0
  6 96  1  0  0  0
  7  8  2  0  0  0
  7 26  1  0  0  0
  7 29  1  0  0  0
  8  9  1  0  0  0
  8 22  1  0  0  0
  9 10  1  0  0  0
  9 27  2  0  0  0
 10 11  2  0  0  0
 10 15  1  0  0  0
 11 12  1  0  0  0
 11 97  1  0  0  0
 12 13  2  0  0  0
 12 98  1  0  0  0
 13 14  1  0  0  0
 13 31  1  0  0  0
 14 15  2  0  0  0
 14 99  1  0  0  0
 15100  1  0  0  0
 16 17  2  0  0  0
 16 21  1  0  0  0
 16 31  1  0  0  0
 17 18  1  0  0  0
 17101  1  0  0  0
 18 19  2  0  0  0
 18102  1  0  0  0
 19 20  1  0  0  0
 19 24  1  0  0  0
 20 21  2  0  0  0
 20103  1  0  0  0
 21 23  1  0  0  0
 22 28  1  0  0  0
 22 32  2  0  0  0
 26 27  1  0  0  0
 28104  1  0  0  0
 28105  1  0  0  0
 29106  1  0  0  0
 29107  1  0  0  0
 33 34  1  0  0  0
 33 66  1  0  0  0
 33 70  2  0  0  0
 34 36  1  0  0  0
 34 59  1  0  0  0
 34108  1  0  0  0
 35 44  2  0  0  0
 35 45  1  0  0  0
 35 68  1  0  0  0
 36 56  1  0  0  0
 36109  1  0  0  0
 37 39  1  0  0  0
 37 47  1  0  0  0
 37 66  1  0  0  0
 37110  1  0  0  0
 38 43  2  0  0  0
 38 46  1  0  0  0
 38 47  1  0  0  0
 39 64  1  0  0  0
 39 67  2  0  0  0
 40 52  1  0  0  0
 40 53  2  0  0  0
 40 58  1  0  0  0
 41111  1  0  0  0
 41112  1  0  0  0
 41113  1  0  0  0
 41 48  1  0  0  0
 42 43  1  0  0  0
 42 66  1  0  0  0
 42114  1  0  0  0
 42115  1  0  0  0
 43 44  1  0  0  0
 44116  1  0  0  0
 45 46  2  0  0  0
 45117  1  0  0  0
 46118  1  0  0  0
 47119  1  0  0  0
 47120  1  0  0  0
 48 56  1  0  0  0
 48 65  1  0  0  0
 48121  1  0  0  0
 49 50  1  0  0  0
 49 53  1  0  0  0
 49 64  1  0  0  0
 49122  1  0  0  0
 50 51  1  0  0  0
 50123  1  0  0  0
 50124  1  0  0  0
 51 52  1  0  0  0
 51125  1  0  0  0
 51126  1  0  0  0
 52127  1  0  0  0
 52128  1  0  0  0
 53 54  1  0  0  0
 54 55  2  0  0  0
 54129  1  0  0  0
 55 57  1  0  0  0
 55130  1  0  0  0
 56 69  2  0  0  0
 57 58  2  0  0  0
 57131  1  0  0  0
 58132  1  0  0  0
 59 60  1  0  0  0
 59 61  1  0  0  0
 59 62  1  0  0  0
 60133  1  0  0  0
 60134  1  0  0  0
 60135  1  0  0  0
 61136  1  0  0  0
 61137  1  0  0  0
 61138  1  0  0  0
 62139  1  0  0  0
 62140  1  0  0  0
 62141  1  0  0  0
 63 65  1  0  0  0
 63142  1  0  0  0
 63143  1  0  0  0
 63144  1  0  0  0
 64145  1  0  0  0
 65146  1  0  0  0
 68 83  1  0  0  0
 71 73  2  0  0  0
 71 85  1  0  0  0
 71147  1  0  0  0
 72 74  2  0  0  0
 72 85  1  0  0  0
 72148  1  0  0  0
 73 74  1  0  0  0
 73 78  1  0  0  0
 74 84  1  0  0  0
 75149  1  0  0  0
 75150  1  0  0  0
 75151  1  0  0  0
 75 84  1  0  0  0
 76152  1  0  0  0
 76153  1  0  0  0
 76154  1  0  0  0
 76 87  1  0  0  0
 77 87  1  0  0  0
 77155  1  0  0  0
 77156  1  0  0  0
 77157  1  0  0  0
 78 79  1  0  0  0
 78158  1  0  0  0
 78159  1  0  0  0
 79 81  1  0  0  0
 79160  1  0  0  0
 79161  1  0  0  0
 80 83  1  0  0  0
 80 85  1  0  0  0
 80162  1  0  0  0
 80163  1  0  0  0
 81 86  1  0  0  0
 81164  1  0  0  0
 81165  1  0  0  0
 82 84  1  0  0  0
 82 87  1  0  0  0
 82166  1  0  0  0
 82167  1  0  0  0
 83168  1  0  0  0
 83169  1  0  0  0
 84170  1  0  0  0
 86171  1  0  0  0
 87172  1  0  0  0
M  CHG  1  87   1
M  ISO  4   1 100  68 101  83 101  86 100
M  END
> <chiral flag>
0

> <version>
0

> <s_m_source_file>
/data/baiqing/PycharmProjects/Reinvent-master-3.2/result/LINK_invent/BTK/process_docking_weight1_custom_sum_contain_oxygen_bond_distance_aromatic_linkinvent_7_9_3/rearranged_h_0093.sdf

> <i_m_source_file_index>
80

> <r_mmod_Potential_Energy-OPLS-2005>
-194.907821655273

> <r_mmod_Stretch_Energy-OPLS-2005>
43.6284141540527

> <r_mmod_Bend_Energy-OPLS-2005>
113.092788696289

> <r_mmod_Torsional_Energy-OPLS-2005>
227.812606811523

> <r_mmod_Improper_Torsional_Energy-OPLS-2005>
4.0368971824646

> <r_mmod_Van_der_Waal_Energy-OPLS-2005>
128.263046264648

> <r_mmod_Electrostatic_Energy-OPLS-2005>
-288.385925292969

> <r_mmod_Solvation_Energy-OPLS-2005>
-439.732330322266

> <b_mmod_Minimization_Converged-OPLS-2005>
0

> <r_mmod_RMS_Derivative-OPLS-2005>
1.43451726436615

$$$$
80
                    3D
 Structure written by MMmdl.
172180  0  0  1  0            999 V2000
  -30.6380  -14.5746   20.5421 C   0  0  0  0  0  0
  -30.4386  -12.3701   19.4209 C   0  0  0  0  0  0
  -29.4964  -12.5021   18.2040 C   0  0  0  0  0  0
  -28.0193  -12.3534   18.6224 C   0  0  0  0  0  0
  -27.6557  -13.2081   19.8665 C   0  0  2  0  0  0
  -28.7024  -13.0197   20.9867 C   0  0  0  0  0  0
  -25.2582  -13.8158   20.5681 C   0  0  0  0  0  0
  -24.1826  -13.0429   20.9186 C   0  0  0  0  0  0
  -24.6380  -11.6910   20.8751 C   0  0  0  0  0  0
  -23.9044  -10.4290   21.0411 C   0  0  0  0  0  0
  -24.3601   -9.4207   21.9182 C   0  0  0  0  0  0
  -23.6281   -8.2241   22.0751 C   0  0  0  0  0  0
  -22.4268   -8.0276   21.3541 C   0  0  0  0  0  0
  -21.9896   -9.0250   20.4645 C   0  0  0  0  0  0
  -22.7220  -10.2132   20.3060 C   0  0  0  0  0  0
  -21.6856   -6.0723   22.5277 C   0  0  0  0  0  0
  -21.4005   -6.5627   23.8207 C   0  0  0  0  0  0
  -21.3660   -5.6785   24.9176 C   0  0  0  0  0  0
  -21.6053   -4.3049   24.7229 C   0  0  0  0  0  0
  -21.8822   -3.8135   23.4354 C   0  0  0  0  0  0
  -21.9187   -4.6946   22.3409 C   0  0  0  0  0  0
  -22.7862  -13.5251   21.1858 C   0  0  0  0  0  0
  -22.1665   -4.2125   21.0987 F   0  0  0  0  0  0
  -21.5641   -3.4542   25.7750 F   0  0  0  0  0  0
  -30.0175  -13.3641   20.4233 N   0  0  0  0  0  0
  -26.2999  -12.9319   20.3344 N   0  0  0  0  0  0
  -25.9300  -11.6486   20.5750 N   0  0  0  0  0  0
  -22.0497  -12.8237   22.0417 N   0  0  0  0  0  0
  -25.4316  -15.1852   20.4089 N   0  0  0  0  0  0
  -31.7898  -14.7695   20.1483 O   0  0  0  0  0  0
  -21.6641   -6.8868   21.4237 O   0  0  0  0  0  0
  -22.3550  -14.5554   20.6713 O   0  0  0  0  0  0
  -24.6178  -31.8650   23.2020 C   0  0  0  0  0  0
  -25.9056  -32.4804   23.8337 C   0  0  1  0  0  0
  -27.2564  -27.3962   20.0996 C   0  0  0  0  0  0
  -25.5882  -33.8607   24.2270 N   0  0  0  0  0  0
  -23.4121  -30.4772   21.5455 C   0  0  2  0  0  0
  -24.8666  -28.9334   20.1204 C   0  0  0  0  0  0
  -22.7471  -29.4599   22.4979 C   0  0  0  0  0  0
  -18.0296  -28.1351   22.8491 C   0  0  0  0  0  0
  -24.1515  -36.7324   23.2638 C   0  0  0  0  0  0
  -25.9440  -30.8153   21.3638 C   0  0  0  0  0  0
  -26.0286  -29.4447   20.7130 C   0  0  0  0  0  0
  -27.2285  -28.6853   20.6942 C   0  0  0  0  0  0
  -26.0772  -26.9093   19.5016 C   0  0  0  0  0  0
  -24.8867  -27.6634   19.5143 C   0  0  0  0  0  0
  -23.6251  -29.7987   20.1667 C   0  0  0  0  0  0
  -25.4140  -36.3101   24.0321 C   0  0  1  0  0  0
  -20.5886  -28.3682   23.1286 C   0  0  2  0  0  0
  -20.6801  -26.9406   22.5418 C   0  0  0  0  0  0
  -19.5769  -26.6366   21.5228 C   0  0  0  0  0  0
  -18.1941  -26.7907   22.1620 C   0  0  0  0  0  0
  -19.1542  -28.8832   23.2896 C   0  0  0  0  0  0
  -18.9457  -30.1432   23.8908 C   0  0  0  0  0  0
  -17.6456  -30.6568   24.0544 C   0  0  0  0  0  0
  -25.9052  -34.9481   23.5106 C   0  0  0  0  0  0
  -16.5351  -29.9058   23.6299 C   0  0  0  0  0  0
  -16.7280  -28.6465   23.0335 C   0  0  0  0  0  0
  -26.4459  -31.6593   25.0683 C   0  0  0  0  0  0
  -25.3697  -31.3685   26.1398 C   0  0  0  0  0  0
  -27.0308  -30.3034   24.6089 C   0  0  0  0  0  0
  -27.6038  -32.4310   25.7427 C   0  0  0  0  0  0
  -27.5609  -37.1812   24.8463 C   0  0  0  0  0  0
  -21.4190  -29.3042   22.3730 N   0  0  0  0  0  0
  -26.4334  -37.3769   23.9382 N   0  0  0  0  0  0
  -24.6761  -31.0676   22.0954 N   0  0  0  0  0  0
  -23.4234  -28.8177   23.3062 O   0  0  0  0  0  0
  -28.4080  -26.6215   20.0629 O   0  0  0  0  0  0
  -26.5641  -34.8949   22.4680 O   0  0  0  0  0  0
  -23.5350  -32.1418   23.7367 O   0  0  0  0  0  0
  -29.8158  -20.4976   20.7177 C   0  0  0  0  0  0
  -28.8250  -21.4637   20.7062 C   0  0  0  0  0  0
  -27.6815  -20.8164   20.1069 C   0  0  0  0  0  0
  -28.0331  -19.5135   19.8245 C   0  0  0  0  0  0
  -27.2073  -18.4250   19.2054 C   0  0  0  0  0  0
  -29.7242  -22.0545   23.6658 C   0  0  0  0  0  0
  -26.2045  -22.7130   19.1427 C   0  0  0  0  0  0
  -25.4285  -21.3453   21.1307 C   0  0  0  0  0  0
  -29.9796  -22.9692   22.4549 C   0  0  0  0  0  0
  -29.0644  -24.1229   20.3573 C   0  0  0  0  0  0
  -30.1136  -18.0160   20.0292 C   0  0  0  0  0  0
  -30.1520  -17.0243   21.2459 C   0  0  0  0  0  0
  -28.4035  -25.4421   20.9085 C   0  0  0  0  0  0
  -28.9099  -22.8923   21.3316 C   0  0  1  0  0  0
  -26.2740  -21.3592   19.8525 C   0  0  0  0  0  0
  -29.3488  -19.2879   20.2056 N   0  0  0  0  0  0
  -29.8455  -15.5900   20.9718 N   0  0  0  0  0  0
  -31.4756  -12.5124   19.1088 H   0  0  0  0  0  0
  -30.3846  -11.3651   19.8421 H   0  0  0  0  0  0
  -29.7453  -11.7498   17.4540 H   0  0  0  0  0  0
  -29.6455  -13.4703   17.7241 H   0  0  0  0  0  0
  -27.8409  -11.2985   18.8359 H   0  0  0  0  0  0
  -27.3638  -12.6064   17.7885 H   0  0  0  0  0  0
  -27.6861  -14.2503   19.5491 H   0  0  0  0  0  0
  -28.7083  -11.9848   21.3325 H   0  0  0  0  0  0
  -28.4551  -13.6206   21.8632 H   0  0  0  0  0  0
  -25.2745   -9.5691   22.4756 H   0  0  0  0  0  0
  -23.9990   -7.4636   22.7477 H   0  0  0  0  0  0
  -21.0827   -8.8769   19.8956 H   0  0  0  0  0  0
  -22.3672  -10.9671   19.6178 H   0  0  0  0  0  0
  -21.1987   -7.6133   23.9698 H   0  0  0  0  0  0
  -21.1488   -6.0523   25.9075 H   0  0  0  0  0  0
  -22.0595   -2.7593   23.2869 H   0  0  0  0  0  0
  -22.4108  -11.9898   22.4806 H   0  0  0  0  0  0
  -21.1114  -13.1272   22.2609 H   0  0  0  0  0  0
  -24.6693  -15.8438   20.5256 H   0  0  0  0  0  0
  -26.2814  -15.6189   20.0740 H   0  0  0  0  0  0
  -26.7166  -32.5527   23.1135 H   0  0  0  0  0  0
  -24.9954  -33.9743   25.0360 H   0  0  0  0  0  0
  -22.7018  -31.2946   21.3990 H   0  0  0  0  0  0
  -23.3762  -35.9662   23.3298 H   0  0  0  0  0  0
  -24.3599  -36.8938   22.2051 H   0  0  0  0  0  0
  -23.7304  -37.6539   23.6671 H   0  0  0  0  0  0
  -26.0619  -31.5837   20.5982 H   0  0  0  0  0  0
  -26.8298  -30.8737   21.9839 H   0  0  0  0  0  0
  -28.1326  -29.0767   21.1405 H   0  0  0  0  0  0
  -26.0793  -25.9380   19.0272 H   0  0  0  0  0  0
  -23.9954  -27.2540   19.0594 H   0  0  0  0  0  0
  -23.7337  -30.5657   19.3995 H   0  0  0  0  0  0
  -22.7519  -29.2103   19.8750 H   0  0  0  0  0  0
  -25.1324  -36.1963   25.0810 H   0  0  0  0  0  0
  -20.9971  -28.3277   24.1409 H   0  0  0  0  0  0
  -20.5731  -26.2289   23.3621 H   0  0  0  0  0  0
  -21.6664  -26.7457   22.1187 H   0  0  0  0  0  0
  -19.6928  -25.6281   21.1244 H   0  0  0  0  0  0
  -19.6682  -27.3190   20.6763 H   0  0  0  0  0  0
  -17.4218  -26.6664   21.4014 H   0  0  0  0  0  0
  -18.0323  -26.0043   22.8992 H   0  0  0  0  0  0
  -19.7935  -30.7245   24.2285 H   0  0  0  0  0  0
  -17.5001  -31.6237   24.5175 H   0  0  0  0  0  0
  -15.5354  -30.2945   23.7625 H   0  0  0  0  0  0
  -15.8682  -28.0794   22.7020 H   0  0  0  0  0  0
  -24.5881  -30.7037   25.7669 H   0  0  0  0  0  0
  -24.8865  -32.2838   26.4837 H   0  0  0  0  0  0
  -25.8011  -30.8819   27.0157 H   0  0  0  0  0  0
  -26.2854  -29.6761   24.1174 H   0  0  0  0  0  0
  -27.4101  -29.7297   25.4545 H   0  0  0  0  0  0
  -27.8678  -30.4305   23.9215 H   0  0  0  0  0  0
  -27.2668  -33.3615   26.1999 H   0  0  0  0  0  0
  -28.3833  -32.6848   25.0236 H   0  0  0  0  0  0
  -28.0727  -31.8432   26.5332 H   0  0  0  0  0  0
  -28.2607  -38.0129   24.7497 H   0  0  0  0  0  0
  -28.1132  -36.2646   24.6307 H   0  0  0  0  0  0
  -27.2305  -37.1462   25.8863 H   0  0  0  0  0  0
  -20.9410  -29.8729   21.6887 H   0  0  0  0  0  0
  -26.0237  -38.2848   24.1357 H   0  0  0  0  0  0
  -30.8282  -20.5608   21.0977 H   0  0  0  0  0  0
  -26.1456  -18.5560   19.4115 H   0  0  0  0  0  0
  -27.4725  -17.4421   19.5888 H   0  0  0  0  0  0
  -27.3355  -18.4136   18.1229 H   0  0  0  0  0  0
  -30.5639  -22.0997   24.3614 H   0  0  0  0  0  0
  -29.6032  -21.0102   23.3759 H   0  0  0  0  0  0
  -28.8238  -22.3582   24.2034 H   0  0  0  0  0  0
  -26.8496  -22.7329   18.2641 H   0  0  0  0  0  0
  -26.4667  -23.5332   19.8033 H   0  0  0  0  0  0
  -25.1857  -22.9041   18.8023 H   0  0  0  0  0  0
  -25.3357  -20.3343   21.5319 H   0  0  0  0  0  0
  -24.4211  -21.7122   20.9338 H   0  0  0  0  0  0
  -25.8656  -21.9751   21.9030 H   0  0  0  0  0  0
  -30.9626  -22.7449   22.0393 H   0  0  0  0  0  0
  -30.0542  -23.9912   22.8283 H   0  0  0  0  0  0
  -30.1197  -24.3020   20.1495 H   0  0  0  0  0  0
  -28.6306  -23.8801   19.3909 H   0  0  0  0  0  0
  -29.7324  -17.5032   19.1472 H   0  0  0  0  0  0
  -31.1366  -18.2869   19.7674 H   0  0  0  0  0  0
  -29.4257  -17.3588   21.9874 H   0  0  0  0  0  0
  -31.1201  -17.0919   21.7438 H   0  0  0  0  0  0
  -28.9413  -25.7298   21.8136 H   0  0  0  0  0  0
  -27.3868  -25.2124   21.2304 H   0  0  0  0  0  0
  -27.9461  -23.0255   21.8237 H   0  0  0  0  0  0
  -25.7883  -20.6861   19.1473 H   0  0  0  0  0  0
  -28.9067  -15.3064   21.2105 H   0  0  0  0  0  0
  1 25  1  0  0  0
  1 30  2  0  0  0
  1 87  1  0  0  0
  2  3  1  0  0  0
  2 25  1  0  0  0
  2 88  1  0  0  0
  2 89  1  0  0  0
  3  4  1  0  0  0
  3 90  1  0  0  0
  3 91  1  0  0  0
  4  5  1  0  0  0
  4 92  1  0  0  0
  4 93  1  0  0  0
  5  6  1  0  0  0
  5 26  1  0  0  0
  5 94  1  0  0  0
  6 25  1  0  0  0
  6 95  1  0  0  0
  6 96  1  0  0  0
  7  8  2  0  0  0
  7 26  1  0  0  0
  7 29  1  0  0  0
  8  9  1  0  0  0
  8 22  1  0  0  0
  9 10  1  0  0  0
  9 27  2  0  0  0
 10 11  2  0  0  0
 10 15  1  0  0  0
 11 12  1  0  0  0
 11 97  1  0  0  0
 12 13  2  0  0  0
 12 98  1  0  0  0
 13 14  1  0  0  0
 13 31  1  0  0  0
 14 15  2  0  0  0
 14 99  1  0  0  0
 15100  1  0  0  0
 16 17  2  0  0  0
 16 21  1  0  0  0
 16 31  1  0  0  0
 17 18  1  0  0  0
 17101  1  0  0  0
 18 19  2  0  0  0
 18102  1  0  0  0
 19 20  1  0  0  0
 19 24  1  0  0  0
 20 21  2  0  0  0
 20103  1  0  0  0
 21 23  1  0  0  0
 22 28  1  0  0  0
 22 32  2  0  0  0
 26 27  1  0  0  0
 28104  1  0  0  0
 28105  1  0  0  0
 29106  1  0  0  0
 29107  1  0  0  0
 33 34  1  0  0  0
 33 66  1  0  0  0
 33 70  2  0  0  0
 34 36  1  0  0  0
 34 59  1  0  0  0
 34108  1  0  0  0
 35 44  2  0  0  0
 35 45  1  0  0  0
 35 68  1  0  0  0
 36 56  1  0  0  0
 36109  1  0  0  0
 37 39  1  0  0  0
 37 47  1  0  0  0
 37 66  1  0  0  0
 37110  1  0  0  0
 38 43  2  0  0  0
 38 46  1  0  0  0
 38 47  1  0  0  0
 39 64  1  0  0  0
 39 67  2  0  0  0
 40 52  1  0  0  0
 40 53  2  0  0  0
 40 58  1  0  0  0
 41111  1  0  0  0
 41112  1  0  0  0
 41113  1  0  0  0
 41 48  1  0  0  0
 42 43  1  0  0  0
 42 66  1  0  0  0
 42114  1  0  0  0
 42115  1  0  0  0
 43 44  1  0  0  0
 44116  1  0  0  0
 45 46  2  0  0  0
 45117  1  0  0  0
 46118  1  0  0  0
 47119  1  0  0  0
 47120  1  0  0  0
 48 56  1  0  0  0
 48 65  1  0  0  0
 48121  1  0  0  0
 49 50  1  0  0  0
 49 53  1  0  0  0
 49 64  1  0  0  0
 49122  1  0  0  0
 50 51  1  0  0  0
 50123  1  0  0  0
 50124  1  0  0  0
 51 52  1  0  0  0
 51125  1  0  0  0
 51126  1  0  0  0
 52127  1  0  0  0
 52128  1  0  0  0
 53 54  1  0  0  0
 54 55  2  0  0  0
 54129  1  0  0  0
 55 57  1  0  0  0
 55130  1  0  0  0
 56 69  2  0  0  0
 57 58  2  0  0  0
 57131  1  0  0  0
 58132  1  0  0  0
 59 60  1  0  0  0
 59 61  1  0  0  0
 59 62  1  0  0  0
 60133  1  0  0  0
 60134  1  0  0  0
 60135  1  0  0  0
 61136  1  0  0  0
 61137  1  0  0  0
 61138  1  0  0  0
 62139  1  0  0  0
 62140  1  0  0  0
 62141  1  0  0  0
 63 65  1  0  0  0
 63142  1  0  0  0
 63143  1  0  0  0
 63144  1  0  0  0
 64145  1  0  0  0
 65146  1  0  0  0
 68 83  1  0  0  0
 71 72  2  0  0  0
 71 86  1  0  0  0
 71147  1  0  0  0
 72 73  1  0  0  0
 72 84  1  0  0  0
 73 74  2  0  0  0
 73 85  1  0  0  0
 74 75  1  0  0  0
 74 86  1  0  0  0
 75148  1  0  0  0
 75149  1  0  0  0
 75150  1  0  0  0
 76 79  1  0  0  0
 76151  1  0  0  0
 76152  1  0  0  0
 76153  1  0  0  0
 77154  1  0  0  0
 77155  1  0  0  0
 77156  1  0  0  0
 77 85  1  0  0  0
 78 85  1  0  0  0
 78157  1  0  0  0
 78158  1  0  0  0
 78159  1  0  0  0
 79160  1  0  0  0
 79161  1  0  0  0
 79 84  1  0  0  0
 80 83  1  0  0  0
 80 84  1  0  0  0
 80162  1  0  0  0
 80163  1  0  0  0
 81 82  1  0  0  0
 81 86  1  0  0  0
 81164  1  0  0  0
 81165  1  0  0  0
 82 87  1  0  0  0
 82166  1  0  0  0
 82167  1  0  0  0
 83168  1  0  0  0
 83169  1  0  0  0
 84170  1  0  0  0
 85171  1  0  0  0
 87172  1  0  0  0
M  ISO  4   1 100  68 101  83 101  87 100
M  END
> <chiral flag>
0

> <version>
0

> <s_m_source_file>
/data/baiqing/PycharmProjects/Reinvent-master-3.2/result/LINK_invent/BTK/process_docking_weight1_custom_sum_contain_oxygen_bond_distance_aromatic_linkinvent_7_9_3/rearranged_h_0093.sdf

> <i_m_source_file_index>
81

> <r_mmod_Potential_Energy-OPLS-2005>
-54.4068450927734

> <r_mmod_Stretch_Energy-OPLS-2005>
56.710693359375

> <r_mmod_Bend_Energy-OPLS-2005>
128.482864379883

> <r_mmod_Torsional_Energy-OPLS-2005>
255.782562255859

> <r_mmod_Improper_Torsional_Energy-OPLS-2005>
4.1612663269043

> <r_mmod_Van_der_Waal_Energy-OPLS-2005>
112.550323486328

> <r_mmod_Electrostatic_Energy-OPLS-2005>
-435.41943359375

> <r_mmod_Solvation_Energy-OPLS-2005>
-202.063064575195

> <b_mmod_Minimization_Converged-OPLS-2005>
0

> <r_mmod_RMS_Derivative-OPLS-2005>
3.87970018386841

$$$$
81
                    3D
 Structure written by MMmdl.
151159  0  0  1  0            999 V2000
  -30.5388  -14.8959   20.4413 C   0  0  0  0  0  0
  -30.4433  -12.5544   19.4838 C   0  0  0  0  0  0
  -29.5186  -12.5191   18.2453 C   0  0  0  0  0  0
  -28.0499  -12.3120   18.6663 C   0  0  0  0  0  0
  -27.6314  -13.2377   19.8383 C   0  0  2  0  0  0
  -28.6755  -13.2321   20.9729 C   0  0  0  0  0  0
  -25.2477  -13.8189   20.5721 C   0  0  0  0  0  0
  -24.1782  -13.0430   20.9238 C   0  0  0  0  0  0
  -24.6378  -11.6912   20.8766 C   0  0  0  0  0  0
  -23.9057  -10.4288   21.0421 C   0  0  0  0  0  0
  -24.3611   -9.4202   21.9195 C   0  0  0  0  0  0
  -23.6288   -8.2233   22.0752 C   0  0  0  0  0  0
  -22.4271   -8.0270   21.3541 C   0  0  0  0  0  0
  -21.9908   -9.0244   20.4647 C   0  0  0  0  0  0
  -22.7233  -10.2127   20.3063 C   0  0  0  0  0  0
  -21.6852   -6.0735   22.5279 C   0  0  0  0  0  0
  -21.4019   -6.5639   23.8214 C   0  0  0  0  0  0
  -21.3662   -5.6788   24.9177 C   0  0  0  0  0  0
  -21.6039   -4.3049   24.7226 C   0  0  0  0  0  0
  -21.8814   -3.8144   23.4346 C   0  0  0  0  0  0
  -21.9192   -4.6964   22.3405 C   0  0  0  0  0  0
  -22.7809  -13.5216   21.1892 C   0  0  0  0  0  0
  -22.1661   -4.2147   21.0983 F   0  0  0  0  0  0
  -21.5626   -3.4536   25.7742 F   0  0  0  0  0  0
  -29.9534  -13.6389   20.3751 N   0  0  0  0  0  0
  -26.2886  -12.9397   20.3244 N   0  0  0  0  0  0
  -25.9307  -11.6536   20.5742 N   0  0  0  0  0  0
  -22.0449  -12.8211   22.0442 N   0  0  0  0  0  0
  -25.4154  -15.1922   20.4152 N   0  0  0  0  0  0
  -31.7480  -14.9881   20.2047 O   0  0  0  0  0  0
  -21.6633   -6.8872   21.4235 O   0  0  0  0  0  0
  -22.3504  -14.5519   20.6727 O   0  0  0  0  0  0
  -24.6414  -31.8458   23.1891 C   0  0  0  0  0  0
  -25.9189  -32.4701   23.8278 C   0  0  1  0  0  0
  -27.2175  -27.1624   20.1626 C   0  0  0  0  0  0
  -25.5942  -33.8508   24.2197 N   0  0  0  0  0  0
  -23.4442  -30.4644   21.5341 C   0  0  2  0  0  0
  -24.8953  -28.8923   20.1141 C   0  0  0  0  0  0
  -22.7558  -29.4552   22.4869 C   0  0  0  0  0  0
  -18.0303  -28.1392   22.8476 C   0  0  0  0  0  0
  -24.1491  -36.7268   23.2643 C   0  0  0  0  0  0
  -25.9975  -30.7290   21.3834 C   0  0  0  0  0  0
  -26.0714  -29.3406   20.7306 C   0  0  0  0  0  0
  -27.2392  -28.4928   20.7355 C   0  0  0  0  0  0
  -26.0199  -26.8057   19.5098 C   0  0  0  0  0  0
  -24.8804  -27.6369   19.4872 C   0  0  0  0  0  0
  -23.6701  -29.7914   20.1543 C   0  0  0  0  0  0
  -25.4120  -36.3042   24.0319 C   0  0  1  0  0  0
  -20.5914  -28.3719   23.1240 C   0  0  2  0  0  0
  -20.6786  -26.9421   22.5408 C   0  0  0  0  0  0
  -19.5758  -26.6380   21.5215 C   0  0  0  0  0  0
  -18.1940  -26.7930   22.1625 C   0  0  0  0  0  0
  -19.1559  -28.8874   23.2848 C   0  0  0  0  0  0
  -18.9474  -30.1470   23.8875 C   0  0  0  0  0  0
  -17.6471  -30.6591   24.0559 C   0  0  0  0  0  0
  -25.9066  -34.9415   23.5067 C   0  0  0  0  0  0
  -16.5363  -29.9084   23.6335 C   0  0  0  0  0  0
  -16.7288  -28.6501   23.0356 C   0  0  0  0  0  0
  -26.4525  -31.6563   25.0711 C   0  0  0  0  0  0
  -25.3714  -31.3744   26.1407 C   0  0  0  0  0  0
  -27.0385  -30.2960   24.6270 C   0  0  0  0  0  0
  -27.6048  -32.4333   25.7502 C   0  0  0  0  0  0
  -27.5578  -37.1793   24.8467 C   0  0  0  0  0  0
  -21.4253  -29.3049   22.3619 N   0  0  0  0  0  0
  -26.4291  -37.3748   23.9405 N   0  0  0  0  0  0
  -24.7137  -31.0340   22.0909 N   0  0  0  0  0  0
  -23.4212  -28.8102   23.3013 O   0  0  0  0  0  0
  -28.2612  -26.1787   20.1787 O   0  0  0  0  0  0
  -26.5652  -34.8911   22.4645 O   0  0  0  0  0  0
  -23.5537  -32.1322   23.7132 O   0  0  0  0  0  0
  -27.7855  -21.0426   19.9442 C   0  0  0  0  0  0
  -29.0249  -20.3964   20.2782 C   0  0  0  0  0  0
  -29.7377  -22.6559   20.7930 C   0  0  0  0  0  0
  -28.4885  -23.2984   20.4401 C   0  0  0  0  0  0
  -30.8507  -23.4749   21.4151 C   0  0  0  0  0  0
  -29.2843  -18.8037   19.9232 C   0  0  0  0  0  0
  -27.9887  -24.8188   20.8518 C   0  0  0  0  0  0
  -29.9583  -17.5808   20.8377 C   0  0  0  0  0  0
  -27.5298  -22.4066   20.0201 N   0  0  0  0  0  0
  -30.0061  -21.2812   20.6770 N   0  0  0  0  0  0
  -29.7217  -16.0431   20.5770 N   0  0  0  0  0  0
  -30.4309  -11.5949   20.0042 H   0  0  0  0  0  0
  -31.4770  -12.7184   19.1759 H   0  0  0  0  0  0
  -29.8291  -11.7271   17.5617 H   0  0  0  0  0  0
  -29.6128  -13.4561   17.6934 H   0  0  0  0  0  0
  -27.9421  -11.2707   18.9718 H   0  0  0  0  0  0
  -27.3859  -12.4486   17.8121 H   0  0  0  0  0  0
  -27.6045  -14.2452   19.4226 H   0  0  0  0  0  0
  -28.3841  -13.9203   21.7682 H   0  0  0  0  0  0
  -28.7541  -12.2441   21.4306 H   0  0  0  0  0  0
  -25.2756   -9.5683   22.4766 H   0  0  0  0  0  0
  -24.0001   -7.4628   22.7471 H   0  0  0  0  0  0
  -21.0839   -8.8766   19.8961 H   0  0  0  0  0  0
  -22.3692  -10.9663   19.6172 H   0  0  0  0  0  0
  -21.2011   -7.6146   23.9723 H   0  0  0  0  0  0
  -21.1495   -6.0521   25.9081 H   0  0  0  0  0  0
  -22.0592   -2.7606   23.2851 H   0  0  0  0  0  0
  -22.4059  -11.9877   22.4837 H   0  0  0  0  0  0
  -21.1064  -13.1244   22.2634 H   0  0  0  0  0  0
  -24.6437  -15.8412   20.5239 H   0  0  0  0  0  0
  -26.2501  -15.6324   20.0519 H   0  0  0  0  0  0
  -26.7254  -32.5329   23.1010 H   0  0  0  0  0  0
  -25.0068  -33.9618   25.0332 H   0  0  0  0  0  0
  -22.7456  -31.2892   21.3793 H   0  0  0  0  0  0
  -23.3753  -35.9600   23.3298 H   0  0  0  0  0  0
  -24.3576  -36.8904   22.2058 H   0  0  0  0  0  0
  -23.7250  -37.6465   23.6681 H   0  0  0  0  0  0
  -26.1478  -31.4819   20.6091 H   0  0  0  0  0  0
  -26.8699  -30.7823   22.0226 H   0  0  0  0  0  0
  -28.1392  -28.8333   21.2286 H   0  0  0  0  0  0
  -25.9527  -25.8392   19.0297 H   0  0  0  0  0  0
  -23.9841  -27.2891   18.9929 H   0  0  0  0  0  0
  -23.8047  -30.5641   19.3962 H   0  0  0  0  0  0
  -22.7863  -29.2297   19.8460 H   0  0  0  0  0  0
  -25.1310  -36.1875   25.0813 H   0  0  0  0  0  0
  -21.0001  -28.3303   24.1361 H   0  0  0  0  0  0
  -20.5676  -26.2328   23.3622 H   0  0  0  0  0  0
  -21.6651  -26.7423   22.1205 H   0  0  0  0  0  0
  -19.6916  -25.6285   21.1255 H   0  0  0  0  0  0
  -19.6698  -27.3180   20.6733 H   0  0  0  0  0  0
  -17.4209  -26.6673   21.4031 H   0  0  0  0  0  0
  -18.0342  -26.0081   22.9028 H   0  0  0  0  0  0
  -19.7952  -30.7290   24.2237 H   0  0  0  0  0  0
  -17.5026  -31.6269   24.5162 H   0  0  0  0  0  0
  -15.5362  -30.2978   23.7675 H   0  0  0  0  0  0
  -15.8685  -28.0813   22.7084 H   0  0  0  0  0  0
  -24.5895  -30.7087   25.7737 H   0  0  0  0  0  0
  -24.8902  -32.2922   26.4793 H   0  0  0  0  0  0
  -25.8005  -30.8948   27.0212 H   0  0  0  0  0  0
  -26.2992  -29.6686   24.1272 H   0  0  0  0  0  0
  -27.4000  -29.7258   25.4840 H   0  0  0  0  0  0
  -27.8904  -30.4206   23.9579 H   0  0  0  0  0  0
  -27.2620  -33.3637   26.2041 H   0  0  0  0  0  0
  -28.3879  -32.6884   25.0350 H   0  0  0  0  0  0
  -28.0688  -31.8482   26.5452 H   0  0  0  0  0  0
  -28.2595  -38.0090   24.7497 H   0  0  0  0  0  0
  -28.1072  -36.2617   24.6313 H   0  0  0  0  0  0
  -27.2289  -37.1464   25.8868 H   0  0  0  0  0  0
  -20.9460  -29.8765   21.6804 H   0  0  0  0  0  0
  -26.0162  -38.2822   24.1392 H   0  0  0  0  0  0
  -26.9667  -20.4485   19.5638 H   0  0  0  0  0  0
  -30.5586  -23.8162   22.4088 H   0  0  0  0  0  0
  -31.0690  -24.3509   20.8047 H   0  0  0  0  0  0
  -31.7684  -22.8948   21.5180 H   0  0  0  0  0  0
  -29.8332  -18.8188   18.9814 H   0  0  0  0  0  0
  -28.2985  -18.4370   19.6380 H   0  0  0  0  0  0
  -28.3692  -24.9559   21.8636 H   0  0  0  0  0  0
  -26.9115  -24.7372   21.0036 H   0  0  0  0  0  0
  -31.0341  -17.7484   20.8936 H   0  0  0  0  0  0
  -29.5998  -17.7339   21.8558 H   0  0  0  0  0  0
  -28.7471  -15.7895   20.6374 H   0  0  0  0  0  0
  1 25  1  0  0  0
  1 30  2  0  0  0
  1 81  1  0  0  0
  2  3  1  0  0  0
  2 25  1  0  0  0
  2 82  1  0  0  0
  2 83  1  0  0  0
  3  4  1  0  0  0
  3 84  1  0  0  0
  3 85  1  0  0  0
  4  5  1  0  0  0
  4 86  1  0  0  0
  4 87  1  0  0  0
  5  6  1  0  0  0
  5 26  1  0  0  0
  5 88  1  0  0  0
  6 25  1  0  0  0
  6 89  1  0  0  0
  6 90  1  0  0  0
  7  8  2  0  0  0
  7 26  1  0  0  0
  7 29  1  0  0  0
  8  9  1  0  0  0
  8 22  1  0  0  0
  9 10  1  0  0  0
  9 27  2  0  0  0
 10 11  2  0  0  0
 10 15  1  0  0  0
 11 12  1  0  0  0
 11 91  1  0  0  0
 12 13  2  0  0  0
 12 92  1  0  0  0
 13 14  1  0  0  0
 13 31  1  0  0  0
 14 15  2  0  0  0
 14 93  1  0  0  0
 15 94  1  0  0  0
 16 17  2  0  0  0
 16 21  1  0  0  0
 16 31  1  0  0  0
 17 18  1  0  0  0
 17 95  1  0  0  0
 18 19  2  0  0  0
 18 96  1  0  0  0
 19 20  1  0  0  0
 19 24  1  0  0  0
 20 21  2  0  0  0
 20 97  1  0  0  0
 21 23  1  0  0  0
 22 28  1  0  0  0
 22 32  2  0  0  0
 26 27  1  0  0  0
 28 98  1  0  0  0
 28 99  1  0  0  0
 29100  1  0  0  0
 29101  1  0  0  0
 33 34  1  0  0  0
 33 66  1  0  0  0
 33 70  2  0  0  0
 34 36  1  0  0  0
 34 59  1  0  0  0
 34102  1  0  0  0
 35 44  2  0  0  0
 35 45  1  0  0  0
 35 68  1  0  0  0
 36 56  1  0  0  0
 36103  1  0  0  0
 37 39  1  0  0  0
 37 47  1  0  0  0
 37 66  1  0  0  0
 37104  1  0  0  0
 38 43  2  0  0  0
 38 46  1  0  0  0
 38 47  1  0  0  0
 39 64  1  0  0  0
 39 67  2  0  0  0
 40 52  1  0  0  0
 40 53  2  0  0  0
 40 58  1  0  0  0
 41105  1  0  0  0
 41106  1  0  0  0
 41107  1  0  0  0
 41 48  1  0  0  0
 42 43  1  0  0  0
 42 66  1  0  0  0
 42108  1  0  0  0
 42109  1  0  0  0
 43 44  1  0  0  0
 44110  1  0  0  0
 45 46  2  0  0  0
 45111  1  0  0  0
 46112  1  0  0  0
 47113  1  0  0  0
 47114  1  0  0  0
 48 56  1  0  0  0
 48 65  1  0  0  0
 48115  1  0  0  0
 49 50  1  0  0  0
 49 53  1  0  0  0
 49 64  1  0  0  0
 49116  1  0  0  0
 50 51  1  0  0  0
 50117  1  0  0  0
 50118  1  0  0  0
 51 52  1  0  0  0
 51119  1  0  0  0
 51120  1  0  0  0
 52121  1  0  0  0
 52122  1  0  0  0
 53 54  1  0  0  0
 54 55  2  0  0  0
 54123  1  0  0  0
 55 57  1  0  0  0
 55124  1  0  0  0
 56 69  2  0  0  0
 57 58  2  0  0  0
 57125  1  0  0  0
 58126  1  0  0  0
 59 60  1  0  0  0
 59 61  1  0  0  0
 59 62  1  0  0  0
 60127  1  0  0  0
 60128  1  0  0  0
 60129  1  0  0  0
 61130  1  0  0  0
 61131  1  0  0  0
 61132  1  0  0  0
 62133  1  0  0  0
 62134  1  0  0  0
 62135  1  0  0  0
 63 65  1  0  0  0
 63136  1  0  0  0
 63137  1  0  0  0
 63138  1  0  0  0
 64139  1  0  0  0
 65140  1  0  0  0
 68 77  1  0  0  0
 71 72  2  0  0  0
 71 79  1  0  0  0
 71141  1  0  0  0
 72 76  1  0  0  0
 72 80  1  0  0  0
 73 74  1  0  0  0
 73 75  1  0  0  0
 73 80  2  0  0  0
 74 77  1  0  0  0
 74 79  2  0  0  0
 75142  1  0  0  0
 75143  1  0  0  0
 75144  1  0  0  0
 76 78  1  0  0  0
 76145  1  0  0  0
 76146  1  0  0  0
 77147  1  0  0  0
 77148  1  0  0  0
 78 81  1  0  0  0
 78149  1  0  0  0
 78150  1  0  0  0
 81151  1  0  0  0
M  ISO  4   1 100  68 101  77 101  81 100
M  END
> <chiral flag>
0

> <version>
0

> <s_m_source_file>
/data/baiqing/PycharmProjects/Reinvent-master-3.2/result/LINK_invent/BTK/process_docking_weight1_custom_sum_contain_oxygen_bond_distance_aromatic_linkinvent_7_9_3/rearranged_h_0093.sdf

> <i_m_source_file_index>
82

> <r_mmod_Potential_Energy-OPLS-2005>
493.975067138672

> <r_mmod_Stretch_Energy-OPLS-2005>
218.090408325195

> <r_mmod_Bend_Energy-OPLS-2005>
259.072784423828

> <r_mmod_Torsional_Energy-OPLS-2005>
236.587966918945

> <r_mmod_Improper_Torsional_Energy-OPLS-2005>
8.1905345916748

> <r_mmod_Van_der_Waal_Energy-OPLS-2005>
132.505310058594

> <r_mmod_Electrostatic_Energy-OPLS-2005>
-294.635925292969

> <r_mmod_Solvation_Energy-OPLS-2005>
-231.979736328125

> <b_mmod_Minimization_Converged-OPLS-2005>
0

> <r_mmod_RMS_Derivative-OPLS-2005>
1.54867112636566

$$$$
82
                    3D
 Structure written by MMmdl.
173181  0  0  1  0            999 V2000
  -30.5275  -14.7846   20.4386 C   0  0  0  0  0  0
  -30.4372  -12.4831   19.4652 C   0  0  0  0  0  0
  -29.5140  -12.5457   18.2262 C   0  0  0  0  0  0
  -28.0289  -12.3820   18.6267 C   0  0  0  0  0  0
  -27.6364  -13.2287   19.8672 C   0  0  2  0  0  0
  -28.6832  -13.1284   20.9928 C   0  0  0  0  0  0
  -25.2523  -13.8111   20.5854 C   0  0  0  0  0  0
  -24.1755  -13.0407   20.9148 C   0  0  0  0  0  0
  -24.6390  -11.6870   20.8740 C   0  0  0  0  0  0
  -23.9097  -10.4253   21.0382 C   0  0  0  0  0  0
  -24.3641   -9.4171   21.9156 C   0  0  0  0  0  0
  -23.6297   -8.2240   22.0759 C   0  0  0  0  0  0
  -22.4268   -8.0315   21.3550 C   0  0  0  0  0  0
  -21.9932   -9.0273   20.4627 C   0  0  0  0  0  0
  -22.7290  -10.2134   20.3010 C   0  0  0  0  0  0
  -21.6869   -6.0737   22.5258 C   0  0  0  0  0  0
  -21.4015   -6.5658   23.8191 C   0  0  0  0  0  0
  -21.3654   -5.6818   24.9161 C   0  0  0  0  0  0
  -21.6051   -4.3086   24.7218 C   0  0  0  0  0  0
  -21.8804   -3.8182   23.4343 C   0  0  0  0  0  0
  -21.9194   -4.6974   22.3397 C   0  0  0  0  0  0
  -22.7812  -13.5201   21.1829 C   0  0  0  0  0  0
  -22.1651   -4.2152   21.0984 F   0  0  0  0  0  0
  -21.5648   -3.4569   25.7741 F   0  0  0  0  0  0
  -29.9672  -13.5262   20.4031 N   0  0  0  0  0  0
  -26.2904  -12.9330   20.3335 N   0  0  0  0  0  0
  -25.9309  -11.6486   20.5742 N   0  0  0  0  0  0
  -22.0541  -12.8216   22.0468 N   0  0  0  0  0  0
  -25.4385  -15.1846   20.4700 N   0  0  0  0  0  0
  -31.7259  -14.9264   20.1730 O   0  0  0  0  0  0
  -21.6668   -6.8892   21.4228 O   0  0  0  0  0  0
  -22.3480  -14.5495   20.6687 O   0  0  0  0  0  0
  -24.6281  -31.8566   23.1989 C   0  0  0  0  0  0
  -25.9078  -32.4752   23.8386 C   0  0  1  0  0  0
  -27.2151  -27.2810   20.1426 C   0  0  0  0  0  0
  -25.5921  -33.8579   24.2301 N   0  0  0  0  0  0
  -23.4270  -30.4760   21.5397 C   0  0  2  0  0  0
  -24.8756  -28.9264   20.1123 C   0  0  0  0  0  0
  -22.7505  -29.4583   22.4902 C   0  0  0  0  0  0
  -18.0294  -28.1383   22.8463 C   0  0  0  0  0  0
  -24.1495  -36.7299   23.2653 C   0  0  0  0  0  0
  -25.9680  -30.7778   21.3734 C   0  0  0  0  0  0
  -26.0470  -29.4037   20.7160 C   0  0  0  0  0  0
  -27.2237  -28.5956   20.7118 C   0  0  0  0  0  0
  -26.0245  -26.8624   19.5111 C   0  0  0  0  0  0
  -24.8684  -27.6639   19.5023 C   0  0  0  0  0  0
  -23.6440  -29.8083   20.1583 C   0  0  0  0  0  0
  -25.4120  -36.3086   24.0336 C   0  0  1  0  0  0
  -20.5893  -28.3683   23.1258 C   0  0  2  0  0  0
  -20.6768  -26.9396   22.5402 C   0  0  0  0  0  0
  -19.5751  -26.6361   21.5203 C   0  0  0  0  0  0
  -18.1932  -26.7932   22.1611 C   0  0  0  0  0  0
  -19.1552  -28.8850   23.2858 C   0  0  0  0  0  0
  -18.9473  -30.1436   23.8874 C   0  0  0  0  0  0
  -17.6479  -30.6588   24.0548 C   0  0  0  0  0  0
  -25.9056  -34.9437   23.5123 C   0  0  0  0  0  0
  -16.5363  -29.9064   23.6344 C   0  0  0  0  0  0
  -16.7276  -28.6488   23.0353 C   0  0  0  0  0  0
  -26.4476  -31.6577   25.0770 C   0  0  0  0  0  0
  -25.3701  -31.3667   26.1484 C   0  0  0  0  0  0
  -27.0363  -30.3016   24.6248 C   0  0  0  0  0  0
  -27.6060  -32.4334   25.7532 C   0  0  0  0  0  0
  -27.5593  -37.1802   24.8460 C   0  0  0  0  0  0
  -21.4213  -29.3040   22.3647 N   0  0  0  0  0  0
  -26.4308  -37.3773   23.9396 N   0  0  0  0  0  0
  -24.6938  -31.0551   22.0937 N   0  0  0  0  0  0
  -23.4190  -28.8150   23.3042 O   0  0  0  0  0  0
  -28.3020  -26.3889   20.1748 O   0  0  0  0  0  0
  -26.5624  -34.8878   22.4671 O   0  0  0  0  0  0
  -23.5441  -32.1383   23.7283 O   0  0  0  0  0  0
  -27.5885  -20.3815   19.1815 C   0  0  0  0  0  0
  -28.6240  -19.8186   19.9499 C   0  0  0  0  0  0
  -26.7543  -19.6042   18.3826 C   0  0  0  0  0  0
  -28.7713  -18.3475   19.8971 C   0  0  0  0  0  0
  -26.9658  -18.2150   18.3562 C   0  0  0  0  0  0
  -24.9390  -21.3045   15.3665 C   0  0  0  0  0  0
  -24.7000  -17.0376   18.0128 C   0  0  0  0  0  0
  -26.8209  -16.0317   17.0025 C   0  0  0  0  0  0
  -29.4549  -20.9291   20.6995 C   0  0  0  0  0  0
  -25.6588  -20.3134   17.5954 C   0  0  0  0  0  0
  -29.8801  -17.3960   20.5469 C   0  0  0  0  0  0
  -26.1116  -20.7643   16.1987 C   0  0  0  0  0  0
  -28.7494  -22.3503   21.0988 C   0  0  0  0  0  0
  -28.7963  -23.7066   20.2099 C   0  0  0  0  0  0
  -28.0816  -25.0367   20.7804 C   0  0  0  0  0  0
  -26.1079  -17.3148   17.4512 C   0  0  0  0  0  0
  -27.9050  -17.6192   19.1389 N   0  0  0  0  0  0
  -29.6679  -15.8702   20.5698 N   0  0  0  0  0  0
  -31.4780  -12.6377   19.1769 H   0  0  0  0  0  0
  -30.3957  -11.4986   19.9331 H   0  0  0  0  0  0
  -29.7907  -11.7798   17.5026 H   0  0  0  0  0  0
  -29.6526  -13.5066   17.7289 H   0  0  0  0  0  0
  -27.8518  -11.3255   18.8259 H   0  0  0  0  0  0
  -27.3877  -12.6484   17.7832 H   0  0  0  0  0  0
  -27.6316  -14.2629   19.5427 H   0  0  0  0  0  0
  -28.7297  -12.1117   21.3832 H   0  0  0  0  0  0
  -28.4155  -13.7678   21.8354 H   0  0  0  0  0  0
  -25.2823   -9.5664   22.4646 H   0  0  0  0  0  0
  -24.0042   -7.4618   22.7422 H   0  0  0  0  0  0
  -21.0913   -8.8790   19.8844 H   0  0  0  0  0  0
  -22.3839  -10.9656   19.6037 H   0  0  0  0  0  0
  -21.2025   -7.6178   23.9686 H   0  0  0  0  0  0
  -21.1476   -6.0583   25.9054 H   0  0  0  0  0  0
  -22.0590   -2.7643   23.2868 H   0  0  0  0  0  0
  -22.4334  -11.9917   22.4788 H   0  0  0  0  0  0
  -21.1143  -13.1129   22.2761 H   0  0  0  0  0  0
  -24.6569  -15.8271   20.5234 H   0  0  0  0  0  0
  -26.2929  -15.6346   20.1671 H   0  0  0  0  0  0
  -26.7145  -32.5405   23.1144 H   0  0  0  0  0  0
  -25.0026  -33.9734   25.0425 H   0  0  0  0  0  0
  -22.7220  -31.2973   21.3934 H   0  0  0  0  0  0
  -23.3765  -35.9639   23.3304 H   0  0  0  0  0  0
  -24.3595  -36.8948   22.2083 H   0  0  0  0  0  0
  -23.7245  -37.6480   23.6694 H   0  0  0  0  0  0
  -26.1048  -31.5453   20.6115 H   0  0  0  0  0  0
  -26.8422  -30.8253   22.0072 H   0  0  0  0  0  0
  -28.1266  -28.9599   21.1831 H   0  0  0  0  0  0
  -25.9728  -25.8861   19.0496 H   0  0  0  0  0  0
  -23.9657  -27.2909   19.0405 H   0  0  0  0  0  0
  -23.7599  -30.5799   19.3984 H   0  0  0  0  0  0
  -22.7648  -29.2375   19.8571 H   0  0  0  0  0  0
  -25.1289  -36.1975   25.0842 H   0  0  0  0  0  0
  -20.9971  -28.3253   24.1393 H   0  0  0  0  0  0
  -20.5669  -26.2283   23.3591 H   0  0  0  0  0  0
  -21.6625  -26.7411   22.1203 H   0  0  0  0  0  0
  -19.6904  -25.6275   21.1230 H   0  0  0  0  0  0
  -19.6708  -27.3153   20.6723 H   0  0  0  0  0  0
  -17.4202  -26.6682   21.3993 H   0  0  0  0  0  0
  -18.0321  -26.0086   22.9013 H   0  0  0  0  0  0
  -19.7945  -30.7247   24.2248 H   0  0  0  0  0  0
  -17.5031  -31.6264   24.5138 H   0  0  0  0  0  0
  -15.5354  -30.2941   23.7699 H   0  0  0  0  0  0
  -15.8687  -28.0778   22.7096 H   0  0  0  0  0  0
  -24.5932  -30.6971   25.7763 H   0  0  0  0  0  0
  -24.8807  -32.2783   26.4936 H   0  0  0  0  0  0
  -25.8040  -30.8830   27.0247 H   0  0  0  0  0  0
  -26.2946  -29.6737   24.1293 H   0  0  0  0  0  0
  -27.4061  -29.7342   25.4799 H   0  0  0  0  0  0
  -27.8820  -30.4326   23.9494 H   0  0  0  0  0  0
  -27.2717  -33.3689   26.2061 H   0  0  0  0  0  0
  -28.3895  -32.6818   25.0342 H   0  0  0  0  0  0
  -28.0692  -31.8469   26.5486 H   0  0  0  0  0  0
  -28.2565  -38.0132   24.7534 H   0  0  0  0  0  0
  -28.1142  -36.2664   24.6275 H   0  0  0  0  0  0
  -27.2306  -37.1411   25.8857 H   0  0  0  0  0  0
  -20.9413  -29.8747   21.6830 H   0  0  0  0  0  0
  -26.0203  -38.2862   24.1379 H   0  0  0  0  0  0
  -27.4243  -21.4478   19.1670 H   0  0  0  0  0  0
  -25.2420  -21.5766   14.3531 H   0  0  0  0  0  0
  -24.4951  -22.1834   15.8312 H   0  0  0  0  0  0
  -24.1483  -20.5602   15.2852 H   0  0  0  0  0  0
  -23.9554  -17.6636   17.5239 H   0  0  0  0  0  0
  -24.6433  -17.2486   19.0791 H   0  0  0  0  0  0
  -24.3961  -16.0033   17.8469 H   0  0  0  0  0  0
  -27.8073  -16.2507   16.5976 H   0  0  0  0  0  0
  -26.2494  -15.5087   16.2372 H   0  0  0  0  0  0
  -26.9412  -15.3577   17.8420 H   0  0  0  0  0  0
  -30.3680  -21.1217   20.1364 H   0  0  0  0  0  0
  -29.7898  -20.4649   21.6248 H   0  0  0  0  0  0
  -25.3289  -21.1870   18.1599 H   0  0  0  0  0  0
  -24.7827  -19.6776   17.5089 H   0  0  0  0  0  0
  -30.0263  -17.7304   21.5762 H   0  0  0  0  0  0
  -30.8164  -17.6011   20.0256 H   0  0  0  0  0  0
  -26.8968  -21.5194   16.2734 H   0  0  0  0  0  0
  -26.5585  -19.9163   15.6798 H   0  0  0  0  0  0
  -29.2602  -22.6438   22.0129 H   0  0  0  0  0  0
  -27.7294  -22.1555   21.4310 H   0  0  0  0  0  0
  -28.3731  -23.5067   19.2244 H   0  0  0  0  0  0
  -29.8442  -23.9541   20.0370 H   0  0  0  0  0  0
  -27.0098  -24.8321   20.8602 H   0  0  0  0  0  0
  -28.4146  -25.1373   21.8155 H   0  0  0  0  0  0
  -25.9614  -17.8624   16.5223 H   0  0  0  0  0  0
  -28.6963  -15.6206   20.6528 H   0  0  0  0  0  0
  1 25  1  0  0  0
  1 30  2  0  0  0
  1 88  1  0  0  0
  2  3  1  0  0  0
  2 25  1  0  0  0
  2 89  1  0  0  0
  2 90  1  0  0  0
  3  4  1  0  0  0
  3 91  1  0  0  0
  3 92  1  0  0  0
  4  5  1  0  0  0
  4 93  1  0  0  0
  4 94  1  0  0  0
  5  6  1  0  0  0
  5 26  1  0  0  0
  5 95  1  0  0  0
  6 25  1  0  0  0
  6 96  1  0  0  0
  6 97  1  0  0  0
  7  8  2  0  0  0
  7 26  1  0  0  0
  7 29  1  0  0  0
  8  9  1  0  0  0
  8 22  1  0  0  0
  9 10  1  0  0  0
  9 27  2  0  0  0
 10 11  2  0  0  0
 10 15  1  0  0  0
 11 12  1  0  0  0
 11 98  1  0  0  0
 12 13  2  0  0  0
 12 99  1  0  0  0
 13 14  1  0  0  0
 13 31  1  0  0  0
 14 15  2  0  0  0
 14100  1  0  0  0
 15101  1  0  0  0
 16 17  2  0  0  0
 16 21  1  0  0  0
 16 31  1  0  0  0
 17 18  1  0  0  0
 17102  1  0  0  0
 18 19  2  0  0  0
 18103  1  0  0  0
 19 20  1  0  0  0
 19 24  1  0  0  0
 20 21  2  0  0  0
 20104  1  0  0  0
 21 23  1  0  0  0
 22 28  1  0  0  0
 22 32  2  0  0  0
 26 27  1  0  0  0
 28105  1  0  0  0
 28106  1  0  0  0
 29107  1  0  0  0
 29108  1  0  0  0
 33 34  1  0  0  0
 33 66  1  0  0  0
 33 70  2  0  0  0
 34 36  1  0  0  0
 34 59  1  0  0  0
 34109  1  0  0  0
 35 44  2  0  0  0
 35 45  1  0  0  0
 35 68  1  0  0  0
 36 56  1  0  0  0
 36110  1  0  0  0
 37 39  1  0  0  0
 37 47  1  0  0  0
 37 66  1  0  0  0
 37111  1  0  0  0
 38 43  2  0  0  0
 38 46  1  0  0  0
 38 47  1  0  0  0
 39 64  1  0  0  0
 39 67  2  0  0  0
 40 52  1  0  0  0
 40 53  2  0  0  0
 40 58  1  0  0  0
 41112  1  0  0  0
 41113  1  0  0  0
 41114  1  0  0  0
 41 48  1  0  0  0
 42 43  1  0  0  0
 42 66  1  0  0  0
 42115  1  0  0  0
 42116  1  0  0  0
 43 44  1  0  0  0
 44117  1  0  0  0
 45 46  2  0  0  0
 45118  1  0  0  0
 46119  1  0  0  0
 47120  1  0  0  0
 47121  1  0  0  0
 48 56  1  0  0  0
 48 65  1  0  0  0
 48122  1  0  0  0
 49 50  1  0  0  0
 49 53  1  0  0  0
 49 64  1  0  0  0
 49123  1  0  0  0
 50 51  1  0  0  0
 50124  1  0  0  0
 50125  1  0  0  0
 51 52  1  0  0  0
 51126  1  0  0  0
 51127  1  0  0  0
 52128  1  0  0  0
 52129  1  0  0  0
 53 54  1  0  0  0
 54 55  2  0  0  0
 54130  1  0  0  0
 55 57  1  0  0  0
 55131  1  0  0  0
 56 69  2  0  0  0
 57 58  2  0  0  0
 57132  1  0  0  0
 58133  1  0  0  0
 59 60  1  0  0  0
 59 61  1  0  0  0
 59 62  1  0  0  0
 60134  1  0  0  0
 60135  1  0  0  0
 60136  1  0  0  0
 61137  1  0  0  0
 61138  1  0  0  0
 61139  1  0  0  0
 62140  1  0  0  0
 62141  1  0  0  0
 62142  1  0  0  0
 63 65  1  0  0  0
 63143  1  0  0  0
 63144  1  0  0  0
 63145  1  0  0  0
 64146  1  0  0  0
 65147  1  0  0  0
 68 85  1  0  0  0
 71 72  2  0  0  0
 71 73  1  0  0  0
 71148  1  0  0  0
 72 74  1  0  0  0
 72 79  1  0  0  0
 73 75  2  0  0  0
 73 80  1  0  0  0
 74 81  1  0  0  0
 74 87  2  0  0  0
 75 86  1  0  0  0
 75 87  1  0  0  0
 76 82  1  0  0  0
 76149  1  0  0  0
 76150  1  0  0  0
 76151  1  0  0  0
 77152  1  0  0  0
 77153  1  0  0  0
 77154  1  0  0  0
 77 86  1  0  0  0
 78 86  1  0  0  0
 78155  1  0  0  0
 78156  1  0  0  0
 78157  1  0  0  0
 79 83  1  0  0  0
 79158  1  0  0  0
 79159  1  0  0  0
 80 82  1  0  0  0
 80160  1  0  0  0
 80161  1  0  0  0
 81 88  1  0  0  0
 81162  1  0  0  0
 81163  1  0  0  0
 82164  1  0  0  0
 82165  1  0  0  0
 83 84  1  0  0  0
 83166  1  0  0  0
 83167  1  0  0  0
 84 85  1  0  0  0
 84168  1  0  0  0
 84169  1  0  0  0
 85170  1  0  0  0
 85171  1  0  0  0
 86172  1  0  0  0
 88173  1  0  0  0
M  ISO  4   1 100  68 101  85 101  88 100
M  END
> <chiral flag>
0

> <version>
0

> <s_m_source_file>
/data/baiqing/PycharmProjects/Reinvent-master-3.2/result/LINK_invent/BTK/process_docking_weight1_custom_sum_contain_oxygen_bond_distance_aromatic_linkinvent_7_9_3/rearranged_h_0093.sdf

> <i_m_source_file_index>
83

> <r_mmod_Potential_Energy-OPLS-2005>
-67.6992263793945

> <r_mmod_Stretch_Energy-OPLS-2005>
131.784118652344

> <r_mmod_Bend_Energy-OPLS-2005>
198.173126220703

> <r_mmod_Torsional_Energy-OPLS-2005>
244.728576660156

> <r_mmod_Improper_Torsional_Energy-OPLS-2005>
4.89874458312988

> <r_mmod_Van_der_Waal_Energy-OPLS-2005>
133.107482910156

> <r_mmod_Electrostatic_Energy-OPLS-2005>
-676.073059082031

> <r_mmod_Solvation_Energy-OPLS-2005>
-197.623504638672

> <b_mmod_Minimization_Converged-OPLS-2005>
0

> <r_mmod_RMS_Derivative-OPLS-2005>
6.33793115615845

$$$$
83
                    3D
 Structure written by MMmdl.
184192  0  0  1  0            999 V2000
  -30.7727  -14.3917   20.6350 C   0  0  0  0  0  0
  -30.4036  -12.2851   19.4125 C   0  0  0  0  0  0
  -29.4818  -12.5078   18.1994 C   0  0  0  0  0  0
  -28.0074  -12.3657   18.6167 C   0  0  0  0  0  0
  -27.6615  -13.2062   19.8741 C   0  0  2  0  0  0
  -28.6989  -12.9865   20.9981 C   0  0  0  0  0  0
  -25.2587  -13.8158   20.5681 C   0  0  0  0  0  0
  -24.1822  -13.0438   20.9175 C   0  0  0  0  0  0
  -24.6372  -11.6907   20.8727 C   0  0  0  0  0  0
  -23.9036  -10.4298   21.0400 C   0  0  0  0  0  0
  -24.3599   -9.4222   21.9177 C   0  0  0  0  0  0
  -23.6287   -8.2248   22.0752 C   0  0  0  0  0  0
  -22.4269   -8.0268   21.3543 C   0  0  0  0  0  0
  -21.9893   -9.0241   20.4640 C   0  0  0  0  0  0
  -22.7218  -10.2131   20.3048 C   0  0  0  0  0  0
  -21.6847   -6.0733   22.5271 C   0  0  0  0  0  0
  -21.4021   -6.5635   23.8208 C   0  0  0  0  0  0
  -21.3666   -5.6797   24.9164 C   0  0  0  0  0  0
  -21.6035   -4.3049   24.7221 C   0  0  0  0  0  0
  -21.8822   -3.8146   23.4343 C   0  0  0  0  0  0
  -21.9198   -4.6964   22.3395 C   0  0  0  0  0  0
  -22.7850  -13.5244   21.1844 C   0  0  0  0  0  0
  -22.1659   -4.2139   21.0976 F   0  0  0  0  0  0
  -21.5634   -3.4534   25.7740 F   0  0  0  0  0  0
  -30.0369  -13.2631   20.4497 N   0  0  0  0  0  0
  -26.3020  -12.9335   20.3382 N   0  0  0  0  0  0
  -25.9298  -11.6491   20.5761 N   0  0  0  0  0  0
  -22.0494  -12.8222   22.0393 N   0  0  0  0  0  0
  -25.4316  -15.1879   20.4099 N   0  0  0  0  0  0
  -31.8316  -14.6016   20.0402 O   0  0  0  0  0  0
  -21.6633   -6.8867   21.4230 O   0  0  0  0  0  0
  -22.3533  -14.5565   20.6711 O   0  0  0  0  0  0
  -24.6120  -31.8704   23.2158 C   0  0  0  0  0  0
  -25.9027  -32.4836   23.8430 C   0  0  1  0  0  0
  -27.2202  -27.4337   20.0957 C   0  0  0  0  0  0
  -25.5883  -33.8635   24.2364 N   0  0  0  0  0  0
  -23.4012  -30.4981   21.5545 C   0  0  2  0  0  0
  -24.8416  -28.9702   20.1139 C   0  0  0  0  0  0
  -22.7406  -29.4676   22.4989 C   0  0  0  0  0  0
  -18.0281  -28.1380   22.8477 C   0  0  0  0  0  0
  -24.1458  -36.7319   23.2642 C   0  0  0  0  0  0
  -25.9299  -30.8332   21.3703 C   0  0  0  0  0  0
  -26.0028  -29.4702   20.7160 C   0  0  0  0  0  0
  -27.1935  -28.7089   20.7050 C   0  0  0  0  0  0
  -26.0455  -26.9688   19.4543 C   0  0  0  0  0  0
  -24.8574  -27.7178   19.4827 C   0  0  0  0  0  0
  -23.6095  -29.8414   20.1646 C   0  0  0  0  0  0
  -25.4086  -36.3140   24.0357 C   0  0  1  0  0  0
  -20.5856  -28.3671   23.1323 C   0  0  2  0  0  0
  -20.6768  -26.9414   22.5400 C   0  0  0  0  0  0
  -19.5752  -26.6405   21.5189 C   0  0  0  0  0  0
  -18.1932  -26.7929   22.1609 C   0  0  0  0  0  0
  -19.1524  -28.8842   23.2881 C   0  0  0  0  0  0
  -18.9456  -30.1446   23.8897 C   0  0  0  0  0  0
  -17.6473  -30.6573   24.0579 C   0  0  0  0  0  0
  -25.9029  -34.9495   23.5168 C   0  0  0  0  0  0
  -16.5358  -29.9084   23.6318 C   0  0  0  0  0  0
  -16.7276  -28.6502   23.0344 C   0  0  0  0  0  0
  -26.4469  -31.6627   25.0757 C   0  0  0  0  0  0
  -25.3729  -31.3719   26.1515 C   0  0  0  0  0  0
  -27.0330  -30.3089   24.6136 C   0  0  0  0  0  0
  -27.6052  -32.4358   25.7489 C   0  0  0  0  0  0
  -27.5586  -37.1811   24.8462 C   0  0  0  0  0  0
  -21.4135  -29.3049   22.3733 N   0  0  0  0  0  0
  -26.4280  -37.3835   23.9429 N   0  0  0  0  0  0
  -24.6667  -31.0793   22.1061 N   0  0  0  0  0  0
  -23.4174  -28.8221   23.3036 O   0  0  0  0  0  0
  -28.3874  -26.6950   20.1414 O   0  0  0  0  0  0
  -26.5589  -34.8944   22.4727 O   0  0  0  0  0  0
  -23.5312  -32.1482   23.7552 O   0  0  0  0  0  0
  -30.3995  -18.7310   22.8899 C   0  0  0  0  0  0
  -29.9331  -19.2124   24.1434 C   0  0  0  0  0  0
  -30.4775  -17.3678   22.9313 C   0  0  0  0  0  0
  -29.6522  -18.1096   24.9063 C   0  0  0  0  0  0
  -30.7380  -16.2634   29.3970 C   0  0  0  0  0  0
  -28.5399  -17.5143   29.3336 C   0  0  0  0  0  0
  -27.9358  -22.3548   20.8387 C   0  0  0  0  0  0
  -27.0195  -23.7458   22.7395 C   0  0  0  0  0  0
  -29.9697  -15.6012   24.6924 C   0  0  0  0  0  0
  -29.8201  -20.6707   24.5343 C   0  0  0  0  0  0
  -29.0998  -18.0158   26.2997 C   0  0  0  0  0  0
  -31.0829  -16.4573   21.8985 C   0  0  0  0  0  0
  -28.7407  -21.4292   23.7409 C   0  0  0  0  0  0
  -30.1569  -17.6651   27.3630 C   0  0  0  0  0  0
  -29.2912  -22.6510   22.9621 C   0  0  0  0  0  0
  -28.9736  -24.6289   21.3987 C   0  0  0  0  0  0
  -28.2593  -25.2640   20.1800 C   0  0  0  0  0  0
  -29.6054  -16.7843   28.5005 C   0  0  0  0  0  0
  -28.3010  -23.3409   21.9764 C   0  0  0  0  0  0
  -30.0142  -16.9706   24.1829 N   0  0  0  0  0  0
  -30.2936  -15.2901   21.5076 N   0  0  0  0  0  0
  -31.4507  -12.3563   19.1123 H   0  0  0  0  0  0
  -30.2782  -11.2727   19.8023 H   0  0  0  0  0  0
  -29.7162  -11.7918   17.4105 H   0  0  0  0  0  0
  -29.6527  -13.4986   17.7757 H   0  0  0  0  0  0
  -27.8221  -11.3098   18.8169 H   0  0  0  0  0  0
  -27.3502  -12.6349   17.7898 H   0  0  0  0  0  0
  -27.7076  -14.2553   19.5798 H   0  0  0  0  0  0
  -28.6610  -11.9543   21.3505 H   0  0  0  0  0  0
  -28.4557  -13.5990   21.8670 H   0  0  0  0  0  0
  -25.2739   -9.5694   22.4750 H   0  0  0  0  0  0
  -23.9991   -7.4636   22.7472 H   0  0  0  0  0  0
  -21.0826   -8.8755   19.8940 H   0  0  0  0  0  0
  -22.3668  -10.9665   19.6152 H   0  0  0  0  0  0
  -21.2011   -7.6139   23.9703 H   0  0  0  0  0  0
  -21.1486   -6.0520   25.9068 H   0  0  0  0  0  0
  -22.0599   -2.7599   23.2842 H   0  0  0  0  0  0
  -22.4113  -11.9862   22.4750 H   0  0  0  0  0  0
  -21.1110  -13.1245   22.2619 H   0  0  0  0  0  0
  -24.6719  -15.8501   20.5238 H   0  0  0  0  0  0
  -26.2955  -15.6232   20.1090 H   0  0  0  0  0  0
  -26.7085  -32.5558   23.1180 H   0  0  0  0  0  0
  -25.0037  -33.9784   25.0522 H   0  0  0  0  0  0
  -22.6904  -31.3165   21.4184 H   0  0  0  0  0  0
  -23.3735  -35.9639   23.3298 H   0  0  0  0  0  0
  -24.3571  -36.8937   22.2062 H   0  0  0  0  0  0
  -23.7179  -37.6521   23.6639 H   0  0  0  0  0  0
  -26.0438  -31.5989   20.6011 H   0  0  0  0  0  0
  -26.8151  -30.8803   21.9917 H   0  0  0  0  0  0
  -28.0905  -29.0841   21.1781 H   0  0  0  0  0  0
  -26.0179  -26.0325   18.9129 H   0  0  0  0  0  0
  -23.9644  -27.3362   19.0045 H   0  0  0  0  0  0
  -23.7369  -30.6219   19.4148 H   0  0  0  0  0  0
  -22.7286  -29.2754   19.8572 H   0  0  0  0  0  0
  -25.1240  -36.2045   25.0855 H   0  0  0  0  0  0
  -20.9920  -28.3227   24.1461 H   0  0  0  0  0  0
  -20.5693  -26.2269   23.3585 H   0  0  0  0  0  0
  -21.6645  -26.7502   22.1188 H   0  0  0  0  0  0
  -19.6927  -25.6326   21.1213 H   0  0  0  0  0  0
  -19.6686  -27.3232   20.6728 H   0  0  0  0  0  0
  -17.4212  -26.6692   21.4000 H   0  0  0  0  0  0
  -18.0321  -26.0048   22.8976 H   0  0  0  0  0  0
  -19.7947  -30.7239   24.2259 H   0  0  0  0  0  0
  -17.5047  -31.6258   24.5191 H   0  0  0  0  0  0
  -15.5363  -30.3015   23.7628 H   0  0  0  0  0  0
  -15.8674  -28.0839   22.7052 H   0  0  0  0  0  0
  -24.5887  -30.7084   25.7854 H   0  0  0  0  0  0
  -24.8914  -32.2852   26.5008 H   0  0  0  0  0  0
  -25.8079  -30.8866   27.0259 H   0  0  0  0  0  0
  -26.2907  -29.6816   24.1208 H   0  0  0  0  0  0
  -27.4139  -29.7372   25.4605 H   0  0  0  0  0  0
  -27.8686  -30.4432   23.9279 H   0  0  0  0  0  0
  -27.2701  -33.3656   26.2089 H   0  0  0  0  0  0
  -28.3822  -32.6944   25.0284 H   0  0  0  0  0  0
  -28.0758  -31.8482   26.5380 H   0  0  0  0  0  0
  -28.2590  -38.0130   24.7590 H   0  0  0  0  0  0
  -28.1102  -36.2682   24.6176 H   0  0  0  0  0  0
  -27.2321  -37.1327   25.8869 H   0  0  0  0  0  0
  -20.9312  -29.8777   21.6956 H   0  0  0  0  0  0
  -26.0178  -38.2904   24.1510 H   0  0  0  0  0  0
  -30.7096  -19.3416   22.0513 H   0  0  0  0  0  0
  -30.3590  -15.5604   30.1399 H   0  0  0  0  0  0
  -31.2358  -17.0752   29.9291 H   0  0  0  0  0  0
  -31.4927  -15.7352   28.8144 H   0  0  0  0  0  0
  -28.1448  -16.8695   30.1190 H   0  0  0  0  0  0
  -27.6926  -17.8239   28.7214 H   0  0  0  0  0  0
  -28.9451  -18.4080   29.8091 H   0  0  0  0  0  0
  -27.2148  -22.7680   20.1346 H   0  0  0  0  0  0
  -27.4729  -21.4434   21.2095 H   0  0  0  0  0  0
  -28.8177  -22.0611   20.2695 H   0  0  0  0  0  0
  -27.2611  -24.3951   23.5830 H   0  0  0  0  0  0
  -26.4866  -22.8772   23.1301 H   0  0  0  0  0  0
  -26.3088  -24.2891   22.1169 H   0  0  0  0  0  0
  -29.7550  -14.8831   23.9071 H   0  0  0  0  0  0
  -29.1885  -15.4807   25.4409 H   0  0  0  0  0  0
  -30.9282  -15.3479   25.1451 H   0  0  0  0  0  0
  -30.7984  -21.1336   24.3982 H   0  0  0  0  0  0
  -29.6167  -20.7575   25.6010 H   0  0  0  0  0  0
  -28.2884  -17.2903   26.3074 H   0  0  0  0  0  0
  -28.6102  -18.9490   26.5772 H   0  0  0  0  0  0
  -32.0489  -16.1132   22.2710 H   0  0  0  0  0  0
  -31.3004  -17.0400   21.0009 H   0  0  0  0  0  0
  -27.9678  -21.7574   24.4369 H   0  0  0  0  0  0
  -28.2511  -20.7275   23.0699 H   0  0  0  0  0  0
  -30.6168  -18.5763   27.7495 H   0  0  0  0  0  0
  -30.9675  -17.1180   26.8820 H   0  0  0  0  0  0
  -30.1860  -22.3354   22.4216 H   0  0  0  0  0  0
  -29.6423  -23.3830   23.6904 H   0  0  0  0  0  0
  -30.0089  -24.4180   21.1276 H   0  0  0  0  0  0
  -29.0373  -25.3748   22.1910 H   0  0  0  0  0  0
  -27.2234  -24.9467   20.2248 H   0  0  0  0  0  0
  -28.6560  -24.8570   19.2498 H   0  0  0  0  0  0
  -29.1371  -15.9083   28.0472 H   0  0  0  0  0  0
  -29.3992  -15.1315   21.9438 H   0  0  0  0  0  0
  1 25  1  0  0  0
  1 30  2  0  0  0
  1 91  1  0  0  0
  2  3  1  0  0  0
  2 25  1  0  0  0
  2 92  1  0  0  0
  2 93  1  0  0  0
  3  4  1  0  0  0
  3 94  1  0  0  0
  3 95  1  0  0  0
  4  5  1  0  0  0
  4 96  1  0  0  0
  4 97  1  0  0  0
  5  6  1  0  0  0
  5 26  1  0  0  0
  5 98  1  0  0  0
  6 25  1  0  0  0
  6 99  1  0  0  0
  6100  1  0  0  0
  7  8  2  0  0  0
  7 26  1  0  0  0
  7 29  1  0  0  0
  8  9  1  0  0  0
  8 22  1  0  0  0
  9 10  1  0  0  0
  9 27  2  0  0  0
 10 11  2  0  0  0
 10 15  1  0  0  0
 11 12  1  0  0  0
 11101  1  0  0  0
 12 13  2  0  0  0
 12102  1  0  0  0
 13 14  1  0  0  0
 13 31  1  0  0  0
 14 15  2  0  0  0
 14103  1  0  0  0
 15104  1  0  0  0
 16 17  2  0  0  0
 16 21  1  0  0  0
 16 31  1  0  0  0
 17 18  1  0  0  0
 17105  1  0  0  0
 18 19  2  0  0  0
 18106  1  0  0  0
 19 20  1  0  0  0
 19 24  1  0  0  0
 20 21  2  0  0  0
 20107  1  0  0  0
 21 23  1  0  0  0
 22 28  1  0  0  0
 22 32  2  0  0  0
 26 27  1  0  0  0
 28108  1  0  0  0
 28109  1  0  0  0
 29110  1  0  0  0
 29111  1  0  0  0
 33 34  1  0  0  0
 33 66  1  0  0  0
 33 70  2  0  0  0
 34 36  1  0  0  0
 34 59  1  0  0  0
 34112  1  0  0  0
 35 44  2  0  0  0
 35 45  1  0  0  0
 35 68  1  0  0  0
 36 56  1  0  0  0
 36113  1  0  0  0
 37 39  1  0  0  0
 37 47  1  0  0  0
 37 66  1  0  0  0
 37114  1  0  0  0
 38 43  2  0  0  0
 38 46  1  0  0  0
 38 47  1  0  0  0
 39 64  1  0  0  0
 39 67  2  0  0  0
 40 52  1  0  0  0
 40 53  2  0  0  0
 40 58  1  0  0  0
 41115  1  0  0  0
 41116  1  0  0  0
 41117  1  0  0  0
 41 48  1  0  0  0
 42 43  1  0  0  0
 42 66  1  0  0  0
 42118  1  0  0  0
 42119  1  0  0  0
 43 44  1  0  0  0
 44120  1  0  0  0
 45 46  2  0  0  0
 45121  1  0  0  0
 46122  1  0  0  0
 47123  1  0  0  0
 47124  1  0  0  0
 48 56  1  0  0  0
 48 65  1  0  0  0
 48125  1  0  0  0
 49 50  1  0  0  0
 49 53  1  0  0  0
 49 64  1  0  0  0
 49126  1  0  0  0
 50 51  1  0  0  0
 50127  1  0  0  0
 50128  1  0  0  0
 51 52  1  0  0  0
 51129  1  0  0  0
 51130  1  0  0  0
 52131  1  0  0  0
 52132  1  0  0  0
 53 54  1  0  0  0
 54 55  2  0  0  0
 54133  1  0  0  0
 55 57  1  0  0  0
 55134  1  0  0  0
 56 69  2  0  0  0
 57 58  2  0  0  0
 57135  1  0  0  0
 58136  1  0  0  0
 59 60  1  0  0  0
 59 61  1  0  0  0
 59 62  1  0  0  0
 60137  1  0  0  0
 60138  1  0  0  0
 60139  1  0  0  0
 61140  1  0  0  0
 61141  1  0  0  0
 61142  1  0  0  0
 62143  1  0  0  0
 62144  1  0  0  0
 62145  1  0  0  0
 63 65  1  0  0  0
 63146  1  0  0  0
 63147  1  0  0  0
 63148  1  0  0  0
 64149  1  0  0  0
 65150  1  0  0  0
 68 87  1  0  0  0
 71 72  1  0  0  0
 71 73  2  0  0  0
 71151  1  0  0  0
 72 74  2  0  0  0
 72 80  1  0  0  0
 73 82  1  0  0  0
 73 90  1  0  0  0
 74 81  1  0  0  0
 74 90  1  0  0  0
 75152  1  0  0  0
 75153  1  0  0  0
 75154  1  0  0  0
 75 88  1  0  0  0
 76 88  1  0  0  0
 76155  1  0  0  0
 76156  1  0  0  0
 76157  1  0  0  0
 77158  1  0  0  0
 77159  1  0  0  0
 77160  1  0  0  0
 77 89  1  0  0  0
 78 89  1  0  0  0
 78161  1  0  0  0
 78162  1  0  0  0
 78163  1  0  0  0
 79 90  1  0  0  0
 79164  1  0  0  0
 79165  1  0  0  0
 79166  1  0  0  0
 80 83  1  0  0  0
 80167  1  0  0  0
 80168  1  0  0  0
 81 84  1  0  0  0
 81169  1  0  0  0
 81170  1  0  0  0
 82 91  1  0  0  0
 82171  1  0  0  0
 82172  1  0  0  0
 83 85  1  0  0  0
 83173  1  0  0  0
 83174  1  0  0  0
 84 88  1  0  0  0
 84175  1  0  0  0
 84176  1  0  0  0
 85 89  1  0  0  0
 85177  1  0  0  0
 85178  1  0  0  0
 86 87  1  0  0  0
 86 89  1  0  0  0
 86179  1  0  0  0
 86180  1  0  0  0
 87181  1  0  0  0
 87182  1  0  0  0
 88183  1  0  0  0
 91184  1  0  0  0
M  ISO  4   1 100  68 101  87 101  91 100
M  END
> <chiral flag>
0

> <version>
0

> <s_m_source_file>
/data/baiqing/PycharmProjects/Reinvent-master-3.2/result/LINK_invent/BTK/process_docking_weight1_custom_sum_contain_oxygen_bond_distance_aromatic_linkinvent_7_9_3/rearranged_h_0093.sdf

> <i_m_source_file_index>
84

> <r_mmod_Potential_Energy-OPLS-2005>
-79.3796157836914

> <r_mmod_Stretch_Energy-OPLS-2005>
37.2742614746094

> <r_mmod_Bend_Energy-OPLS-2005>
111.848281860352

> <r_mmod_Torsional_Energy-OPLS-2005>
247.192489624023

> <r_mmod_Improper_Torsional_Energy-OPLS-2005>
2.18586206436157

> <r_mmod_Van_der_Waal_Energy-OPLS-2005>
148.79150390625

> <r_mmod_Electrostatic_Energy-OPLS-2005>
-448.570037841797

> <r_mmod_Solvation_Energy-OPLS-2005>
-189.56575012207

> <b_mmod_Minimization_Converged-OPLS-2005>
0

> <r_mmod_RMS_Derivative-OPLS-2005>
3.68179845809937

$$$$
84
                    3D
 Structure written by MMmdl.
154162  0  0  1  0            999 V2000
  -30.6232  -14.7539   20.4521 C   0  0  0  0  0  0
  -30.4271  -12.4604   19.4840 C   0  0  0  0  0  0
  -29.5126  -12.5062   18.2417 C   0  0  0  0  0  0
  -28.0396  -12.3274   18.6542 C   0  0  0  0  0  0
  -27.6361  -13.2352   19.8473 C   0  0  2  0  0  0
  -28.6787  -13.1974   20.9864 C   0  0  0  0  0  0
  -25.2468  -13.8161   20.5688 C   0  0  0  0  0  0
  -24.1770  -13.0405   20.9219 C   0  0  0  0  0  0
  -24.6386  -11.6892   20.8766 C   0  0  0  0  0  0
  -23.9076  -10.4274   21.0428 C   0  0  0  0  0  0
  -24.3631   -9.4191   21.9199 C   0  0  0  0  0  0
  -23.6310   -8.2227   22.0763 C   0  0  0  0  0  0
  -22.4287   -8.0275   21.3553 C   0  0  0  0  0  0
  -21.9919   -9.0255   20.4669 C   0  0  0  0  0  0
  -22.7247  -10.2131   20.3075 C   0  0  0  0  0  0
  -21.6856   -6.0740   22.5278 C   0  0  0  0  0  0
  -21.4030   -6.5648   23.8212 C   0  0  0  0  0  0
  -21.3662   -5.6804   24.9177 C   0  0  0  0  0  0
  -21.6034   -4.3059   24.7230 C   0  0  0  0  0  0
  -21.8816   -3.8156   23.4347 C   0  0  0  0  0  0
  -21.9194   -4.6968   22.3405 C   0  0  0  0  0  0
  -22.7796  -13.5200   21.1884 C   0  0  0  0  0  0
  -22.1649   -4.2156   21.0980 F   0  0  0  0  0  0
  -21.5625   -3.4536   25.7735 F   0  0  0  0  0  0
  -29.9806  -13.5369   20.4000 N   0  0  0  0  0  0
  -26.2899  -12.9389   20.3248 N   0  0  0  0  0  0
  -25.9317  -11.6531   20.5744 N   0  0  0  0  0  0
  -22.0434  -12.8166   22.0417 N   0  0  0  0  0  0
  -25.4129  -15.1885   20.4124 N   0  0  0  0  0  0
  -31.8175  -14.8197   20.1504 O   0  0  0  0  0  0
  -21.6645   -6.8879   21.4248 O   0  0  0  0  0  0
  -22.3497  -14.5534   20.6775 O   0  0  0  0  0  0
  -24.6289  -31.8566   23.1991 C   0  0  0  0  0  0
  -25.9117  -32.4771   23.8332 C   0  0  1  0  0  0
  -27.2241  -27.2804   20.1421 C   0  0  0  0  0  0
  -25.5918  -33.8567   24.2266 N   0  0  0  0  0  0
  -23.4251  -30.4763   21.5427 C   0  0  2  0  0  0
  -24.8748  -28.9192   20.1172 C   0  0  0  0  0  0
  -22.7496  -29.4603   22.4941 C   0  0  0  0  0  0
  -18.0287  -28.1385   22.8502 C   0  0  0  0  0  0
  -24.1489  -36.7277   23.2639 C   0  0  0  0  0  0
  -25.9681  -30.7780   21.3729 C   0  0  0  0  0  0
  -26.0453  -29.3987   20.7211 C   0  0  0  0  0  0
  -27.2274  -28.5938   20.7169 C   0  0  0  0  0  0
  -26.0347  -26.8569   19.5165 C   0  0  0  0  0  0
  -24.8736  -27.6558   19.5031 C   0  0  0  0  0  0
  -23.6439  -29.8045   20.1604 C   0  0  0  0  0  0
  -25.4114  -36.3076   24.0332 C   0  0  1  0  0  0
  -20.5889  -28.3690   23.1295 C   0  0  2  0  0  0
  -20.6765  -26.9415   22.5411 C   0  0  0  0  0  0
  -19.5745  -26.6393   21.5207 C   0  0  0  0  0  0
  -18.1931  -26.7930   22.1631 C   0  0  0  0  0  0
  -19.1540  -28.8854   23.2893 C   0  0  0  0  0  0
  -18.9459  -30.1449   23.8914 C   0  0  0  0  0  0
  -17.6456  -30.6586   24.0567 C   0  0  0  0  0  0
  -25.9054  -34.9445   23.5109 C   0  0  0  0  0  0
  -16.5348  -29.9083   23.6328 C   0  0  0  0  0  0
  -16.7272  -28.6497   23.0366 C   0  0  0  0  0  0
  -26.4498  -31.6588   25.0709 C   0  0  0  0  0  0
  -25.3732  -31.3711   26.1436 C   0  0  0  0  0  0
  -27.0341  -30.3021   24.6143 C   0  0  0  0  0  0
  -27.6064  -32.4323   25.7477 C   0  0  0  0  0  0
  -27.5589  -37.1799   24.8476 C   0  0  0  0  0  0
  -21.4207  -29.3027   22.3677 N   0  0  0  0  0  0
  -26.4300  -37.3773   23.9415 N   0  0  0  0  0  0
  -24.6930  -31.0542   22.0957 N   0  0  0  0  0  0
  -23.4205  -28.8153   23.3046 O   0  0  0  0  0  0
  -28.3226  -26.4009   20.1419 O   0  0  0  0  0  0
  -26.5628  -34.8923   22.4681 O   0  0  0  0  0  0
  -23.5445  -32.1369   23.7303 O   0  0  0  0  0  0
  -29.9192  -19.9898   20.9078 C   0  0  0  0  0  0
  -29.6084  -18.6870   20.4863 C   0  0  0  0  0  0
  -27.9439  -20.1505   19.9627 C   0  0  0  0  0  0
  -26.6174  -20.6353   19.4701 C   0  0  0  0  0  0
  -30.4474  -17.3409   20.5210 C   0  0  0  0  0  0
  -28.6169  -23.6549   20.0994 C   0  0  0  0  0  0
  -28.6848  -22.3527   21.0642 C   0  0  0  0  0  0
  -28.1671  -25.0561   20.7823 C   0  0  0  0  0  0
  -28.8828  -20.8836   20.5961 N   0  0  0  0  0  0
  -28.3784  -18.8662   19.8906 N   0  3  0  0  0  0
  -29.8890  -15.9215   20.6243 N   0  0  0  0  0  0
  -31.4694  -12.5754   19.1835 H   0  0  0  0  0  0
  -30.3656  -11.4881   19.9765 H   0  0  0  0  0  0
  -29.8020  -11.7307   17.5314 H   0  0  0  0  0  0
  -29.6410  -13.4582   17.7241 H   0  0  0  0  0  0
  -27.9056  -11.2805   18.9274 H   0  0  0  0  0  0
  -27.3823  -12.5053   17.8032 H   0  0  0  0  0  0
  -27.6190  -14.2512   19.4535 H   0  0  0  0  0  0
  -28.7120  -12.2139   21.4558 H   0  0  0  0  0  0
  -28.4108  -13.9040   21.7737 H   0  0  0  0  0  0
  -25.2782   -9.5660   22.4776 H   0  0  0  0  0  0
  -24.0019   -7.4613   22.7462 H   0  0  0  0  0  0
  -21.0855   -8.8787   19.8966 H   0  0  0  0  0  0
  -22.3707  -10.9683   19.6186 H   0  0  0  0  0  0
  -21.2034   -7.6160   23.9719 H   0  0  0  0  0  0
  -21.1494   -6.0534   25.9077 H   0  0  0  0  0  0
  -22.0604   -2.7618   23.2843 H   0  0  0  0  0  0
  -22.4033  -11.9797   22.4761 H   0  0  0  0  0  0
  -21.1042  -13.1182   22.2609 H   0  0  0  0  0  0
  -26.2464  -15.6283   20.0488 H   0  0  0  0  0  0
  -24.6522  -15.8406   20.5679 H   0  0  0  0  0  0
  -26.7188  -32.5434   23.1082 H   0  0  0  0  0  0
  -25.0040  -33.9702   25.0393 H   0  0  0  0  0  0
  -22.7199  -31.2966   21.3955 H   0  0  0  0  0  0
  -23.3760  -35.9605   23.3303 H   0  0  0  0  0  0
  -24.3580  -36.8889   22.2055 H   0  0  0  0  0  0
  -23.7228  -37.6475   23.6653 H   0  0  0  0  0  0
  -26.0979  -31.5387   20.6019 H   0  0  0  0  0  0
  -26.8494  -30.8339   22.0003 H   0  0  0  0  0  0
  -28.1289  -28.9620   21.1865 H   0  0  0  0  0  0
  -26.0033  -25.8853   19.0441 H   0  0  0  0  0  0
  -23.9786  -27.2827   19.0253 H   0  0  0  0  0  0
  -23.7656  -30.5771   19.4008 H   0  0  0  0  0  0
  -22.7651  -29.2328   19.8581 H   0  0  0  0  0  0
  -25.1294  -36.1942   25.0827 H   0  0  0  0  0  0
  -20.9985  -28.3250   24.1417 H   0  0  0  0  0  0
  -20.5656  -26.2295   23.3606 H   0  0  0  0  0  0
  -21.6634  -26.7424   22.1213 H   0  0  0  0  0  0
  -19.6891  -25.6304   21.1232 H   0  0  0  0  0  0
  -19.6673  -27.3210   20.6744 H   0  0  0  0  0  0
  -17.4192  -26.6695   21.4036 H   0  0  0  0  0  0
  -18.0332  -26.0054   22.9014 H   0  0  0  0  0  0
  -19.7924  -30.7266   24.2309 H   0  0  0  0  0  0
  -17.4998  -31.6276   24.5156 H   0  0  0  0  0  0
  -15.5347  -30.2994   23.7622 H   0  0  0  0  0  0
  -15.8676  -28.0804   22.7094 H   0  0  0  0  0  0
  -24.5928  -30.7040   25.7758 H   0  0  0  0  0  0
  -24.8892  -32.2859   26.4872 H   0  0  0  0  0  0
  -25.8066  -30.8895   27.0209 H   0  0  0  0  0  0
  -26.2906  -29.6781   24.1171 H   0  0  0  0  0  0
  -27.4058  -29.7275   25.4634 H   0  0  0  0  0  0
  -27.8766  -30.4328   23.9350 H   0  0  0  0  0  0
  -27.2698  -33.3635   26.2046 H   0  0  0  0  0  0
  -28.3875  -32.6858   25.0299 H   0  0  0  0  0  0
  -28.0714  -31.8436   26.5397 H   0  0  0  0  0  0
  -28.2621  -38.0084   24.7517 H   0  0  0  0  0  0
  -28.1078  -36.2618   24.6317 H   0  0  0  0  0  0
  -27.2310  -37.1465   25.8882 H   0  0  0  0  0  0
  -20.9398  -29.8749   21.6880 H   0  0  0  0  0  0
  -26.0183  -38.2855   24.1402 H   0  0  0  0  0  0
  -30.8011  -20.3332   21.4335 H   0  0  0  0  0  0
  -26.1520  -19.8614   18.8602 H   0  0  0  0  0  0
  -26.7590  -21.5323   18.8704 H   0  0  0  0  0  0
  -25.9876  -20.8556   20.3312 H   0  0  0  0  0  0
  -31.0690  -17.3582   19.6240 H   0  0  0  0  0  0
  -31.1585  -17.4461   21.3412 H   0  0  0  0  0  0
  -27.9391  -23.4578   19.2701 H   0  0  0  0  0  0
  -29.5998  -23.7945   19.6508 H   0  0  0  0  0  0
  -27.7652  -22.3409   21.6506 H   0  0  0  0  0  0
  -29.4731  -22.5334   21.7965 H   0  0  0  0  0  0
  -27.1383  -24.9380   21.1255 H   0  0  0  0  0  0
  -28.7428  -25.1458   21.7043 H   0  0  0  0  0  0
  -27.8536  -18.1278   19.4387 H   0  0  0  0  0  0
  -28.9096  -15.8279   20.8352 H   0  0  0  0  0  0
  1 25  1  0  0  0
  1 30  2  0  0  0
  1 81  1  0  0  0
  2  3  1  0  0  0
  2 25  1  0  0  0
  2 82  1  0  0  0
  2 83  1  0  0  0
  3  4  1  0  0  0
  3 84  1  0  0  0
  3 85  1  0  0  0
  4  5  1  0  0  0
  4 86  1  0  0  0
  4 87  1  0  0  0
  5  6  1  0  0  0
  5 26  1  0  0  0
  5 88  1  0  0  0
  6 25  1  0  0  0
  6 89  1  0  0  0
  6 90  1  0  0  0
  7  8  2  0  0  0
  7 26  1  0  0  0
  7 29  1  0  0  0
  8  9  1  0  0  0
  8 22  1  0  0  0
  9 10  1  0  0  0
  9 27  2  0  0  0
 10 11  2  0  0  0
 10 15  1  0  0  0
 11 12  1  0  0  0
 11 91  1  0  0  0
 12 13  2  0  0  0
 12 92  1  0  0  0
 13 14  1  0  0  0
 13 31  1  0  0  0
 14 15  2  0  0  0
 14 93  1  0  0  0
 15 94  1  0  0  0
 16 17  2  0  0  0
 16 21  1  0  0  0
 16 31  1  0  0  0
 17 18  1  0  0  0
 17 95  1  0  0  0
 18 19  2  0  0  0
 18 96  1  0  0  0
 19 20  1  0  0  0
 19 24  1  0  0  0
 20 21  2  0  0  0
 20 97  1  0  0  0
 21 23  1  0  0  0
 22 28  1  0  0  0
 22 32  2  0  0  0
 26 27  1  0  0  0
 28 98  1  0  0  0
 28 99  1  0  0  0
 29100  1  0  0  0
 29101  1  0  0  0
 33 34  1  0  0  0
 33 66  1  0  0  0
 33 70  2  0  0  0
 34 36  1  0  0  0
 34 59  1  0  0  0
 34102  1  0  0  0
 35 44  2  0  0  0
 35 45  1  0  0  0
 35 68  1  0  0  0
 36 56  1  0  0  0
 36103  1  0  0  0
 37 39  1  0  0  0
 37 47  1  0  0  0
 37 66  1  0  0  0
 37104  1  0  0  0
 38 43  2  0  0  0
 38 46  1  0  0  0
 38 47  1  0  0  0
 39 64  1  0  0  0
 39 67  2  0  0  0
 40 52  1  0  0  0
 40 53  2  0  0  0
 40 58  1  0  0  0
 41105  1  0  0  0
 41106  1  0  0  0
 41107  1  0  0  0
 41 48  1  0  0  0
 42 43  1  0  0  0
 42 66  1  0  0  0
 42108  1  0  0  0
 42109  1  0  0  0
 43 44  1  0  0  0
 44110  1  0  0  0
 45 46  2  0  0  0
 45111  1  0  0  0
 46112  1  0  0  0
 47113  1  0  0  0
 47114  1  0  0  0
 48 56  1  0  0  0
 48 65  1  0  0  0
 48115  1  0  0  0
 49 50  1  0  0  0
 49 53  1  0  0  0
 49 64  1  0  0  0
 49116  1  0  0  0
 50 51  1  0  0  0
 50117  1  0  0  0
 50118  1  0  0  0
 51 52  1  0  0  0
 51119  1  0  0  0
 51120  1  0  0  0
 52121  1  0  0  0
 52122  1  0  0  0
 53 54  1  0  0  0
 54 55  2  0  0  0
 54123  1  0  0  0
 55 57  1  0  0  0
 55124  1  0  0  0
 56 69  2  0  0  0
 57 58  2  0  0  0
 57125  1  0  0  0
 58126  1  0  0  0
 59 60  1  0  0  0
 59 61  1  0  0  0
 59 62  1  0  0  0
 60127  1  0  0  0
 60128  1  0  0  0
 60129  1  0  0  0
 61130  1  0  0  0
 61131  1  0  0  0
 61132  1  0  0  0
 62133  1  0  0  0
 62134  1  0  0  0
 62135  1  0  0  0
 63 65  1  0  0  0
 63136  1  0  0  0
 63137  1  0  0  0
 63138  1  0  0  0
 64139  1  0  0  0
 65140  1  0  0  0
 68 78  1  0  0  0
 71 72  2  0  0  0
 71 79  1  0  0  0
 71141  1  0  0  0
 72 75  1  0  0  0
 72 80  1  0  0  0
 73 74  1  0  0  0
 73 79  1  0  0  0
 73 80  2  0  0  0
 74142  1  0  0  0
 74143  1  0  0  0
 74144  1  0  0  0
 75 81  1  0  0  0
 75145  1  0  0  0
 75146  1  0  0  0
 76 77  1  0  0  0
 76 78  1  0  0  0
 76147  1  0  0  0
 76148  1  0  0  0
 77 79  1  0  0  0
 77149  1  0  0  0
 77150  1  0  0  0
 78151  1  0  0  0
 78152  1  0  0  0
 80153  1  0  0  0
 81154  1  0  0  0
M  CHG  1  80   1
M  ISO  4   1 100  68 101  78 101  81 100
M  END
> <chiral flag>
0

> <version>
0

> <s_m_source_file>
/data/baiqing/PycharmProjects/Reinvent-master-3.2/result/LINK_invent/BTK/process_docking_weight1_custom_sum_contain_oxygen_bond_distance_aromatic_linkinvent_7_9_3/rearranged_h_0093.sdf

> <i_m_source_file_index>
85

> <r_mmod_Potential_Energy-OPLS-2005>
-0.341849386692047

> <r_mmod_Stretch_Energy-OPLS-2005>
115.70703125

> <r_mmod_Bend_Energy-OPLS-2005>
175.548385620117

> <r_mmod_Torsional_Energy-OPLS-2005>
236.483825683594

> <r_mmod_Improper_Torsional_Energy-OPLS-2005>
6.26282691955566

> <r_mmod_Van_der_Waal_Energy-OPLS-2005>
112.080543518066

> <r_mmod_Electrostatic_Energy-OPLS-2005>
-287.697814941406

> <r_mmod_Solvation_Energy-OPLS-2005>
-441.533050537109

> <b_mmod_Minimization_Converged-OPLS-2005>
0

> <r_mmod_RMS_Derivative-OPLS-2005>
2.08360958099365

$$$$
85
                    3D
 Structure written by MMmdl.
181189  0  0  1  0            999 V2000
  -30.7265  -14.4984   20.6293 C   0  0  0  0  0  0
  -30.4182  -12.3488   19.4326 C   0  0  0  0  0  0
  -29.4922  -12.5143   18.2124 C   0  0  0  0  0  0
  -28.0173  -12.3530   18.6253 C   0  0  0  0  0  0
  -27.6524  -13.2008   19.8711 C   0  0  2  0  0  0
  -28.6938  -13.0326   21.0002 C   0  0  0  0  0  0
  -25.2557  -13.8137   20.5694 C   0  0  0  0  0  0
  -24.1813  -13.0418   20.9175 C   0  0  0  0  0  0
  -24.6366  -11.6884   20.8739 C   0  0  0  0  0  0
  -23.9039  -10.4276   21.0403 C   0  0  0  0  0  0
  -24.3594   -9.4196   21.9182 C   0  0  0  0  0  0
  -23.6274   -8.2232   22.0754 C   0  0  0  0  0  0
  -22.4262   -8.0272   21.3540 C   0  0  0  0  0  0
  -21.9895   -9.0243   20.4635 C   0  0  0  0  0  0
  -22.7218  -10.2119   20.3043 C   0  0  0  0  0  0
  -21.6847   -6.0723   22.5267 C   0  0  0  0  0  0
  -21.4013   -6.5631   23.8202 C   0  0  0  0  0  0
  -21.3659   -5.6795   24.9169 C   0  0  0  0  0  0
  -21.6046   -4.3057   24.7223 C   0  0  0  0  0  0
  -21.8820   -3.8143   23.4344 C   0  0  0  0  0  0
  -21.9188   -4.6956   22.3395 C   0  0  0  0  0  0
  -22.7837  -13.5218   21.1842 C   0  0  0  0  0  0
  -22.1658   -4.2136   21.0976 F   0  0  0  0  0  0
  -21.5630   -3.4542   25.7742 F   0  0  0  0  0  0
  -30.0231  -13.3423   20.4490 N   0  0  0  0  0  0
  -26.2971  -12.9284   20.3355 N   0  0  0  0  0  0
  -25.9284  -11.6455   20.5766 N   0  0  0  0  0  0
  -22.0497  -12.8204   22.0397 N   0  0  0  0  0  0
  -25.4254  -15.1865   20.4136 N   0  0  0  0  0  0
  -31.8183  -14.6914   20.0853 O   0  0  0  0  0  0
  -21.6627   -6.8870   21.4233 O   0  0  0  0  0  0
  -22.3523  -14.5532   20.6699 O   0  0  0  0  0  0
  -24.6121  -31.8686   23.2060 C   0  0  0  0  0  0
  -25.9002  -32.4837   23.8365 C   0  0  1  0  0  0
  -27.2474  -27.4262   20.0983 C   0  0  0  0  0  0
  -25.5850  -33.8633   24.2285 N   0  0  0  0  0  0
  -23.4020  -30.4878   21.5462 C   0  0  2  0  0  0
  -24.8508  -28.9439   20.1225 C   0  0  0  0  0  0
  -22.7392  -29.4651   22.4970 C   0  0  0  0  0  0
  -18.0259  -28.1365   22.8483 C   0  0  0  0  0  0
  -24.1487  -36.7335   23.2631 C   0  0  0  0  0  0
  -25.9318  -30.8293   21.3621 C   0  0  0  0  0  0
  -26.0098  -29.4609   20.7131 C   0  0  0  0  0  0
  -27.2059  -28.7091   20.6940 C   0  0  0  0  0  0
  -26.0627  -26.9155   19.5171 C   0  0  0  0  0  0
  -24.8719  -27.6698   19.5253 C   0  0  0  0  0  0
  -23.6136  -29.8130   20.1648 C   0  0  0  0  0  0
  -25.4113  -36.3129   24.0323 C   0  0  1  0  0  0
  -20.5849  -28.3663   23.1310 C   0  0  2  0  0  0
  -20.6767  -26.9407   22.5410 C   0  0  0  0  0  0
  -19.5736  -26.6383   21.5209 C   0  0  0  0  0  0
  -18.1913  -26.7904   22.1628 C   0  0  0  0  0  0
  -19.1512  -28.8823   23.2894 C   0  0  0  0  0  0
  -18.9461  -30.1425   23.8916 C   0  0  0  0  0  0
  -17.6474  -30.6585   24.0553 C   0  0  0  0  0  0
  -25.9038  -34.9489   23.5118 C   0  0  0  0  0  0
  -16.5356  -29.9107   23.6304 C   0  0  0  0  0  0
  -16.7257  -28.6511   23.0339 C   0  0  0  0  0  0
  -26.4410  -31.6633   25.0707 C   0  0  0  0  0  0
  -25.3642  -31.3772   26.1437 C   0  0  0  0  0  0
  -27.0231  -30.3053   24.6117 C   0  0  0  0  0  0
  -27.5966  -32.4367   25.7492 C   0  0  0  0  0  0
  -27.5586  -37.1820   24.8447 C   0  0  0  0  0  0
  -21.4119  -29.3041   22.3727 N   0  0  0  0  0  0
  -26.4296  -37.3819   23.9398 N   0  0  0  0  0  0
  -24.6664  -31.0772   22.0965 N   0  0  0  0  0  0
  -23.4178  -28.8201   23.3002 O   0  0  0  0  0  0
  -28.4608  -26.7616   20.0782 O   0  0  0  0  0  0
  -26.5646  -34.8944   22.4708 O   0  0  0  0  0  0
  -23.5308  -32.1448   23.7442 O   0  0  0  0  0  0
  -27.0066  -18.6990   18.1345 C   0  0  0  0  0  0
  -27.2219  -19.8625   18.9078 C   0  0  0  0  0  0
  -27.9702  -17.7900   18.4601 C   0  0  0  0  0  0
  -28.3078  -19.6518   19.7131 C   0  0  0  0  0  0
  -28.9913  -17.1890   14.0483 C   0  0  0  0  0  0
  -26.7721  -16.5431   15.0531 C   0  0  0  0  0  0
  -29.2827  -22.8089   22.8527 C   0  0  0  0  0  0
  -31.0581  -15.8286   22.6391 C   0  0  0  0  0  0
  -28.2137  -16.4388   17.8452 C   0  0  0  0  0  0
  -28.9575  -20.6383   20.6563 C   0  0  0  0  0  0
  -28.9102  -16.4676   16.4710 C   0  0  0  0  0  0
  -28.3521  -22.0784   20.5881 C   0  0  0  0  0  0
  -28.4568  -24.6030   21.2681 C   0  0  0  0  0  0
  -29.8061  -17.5983   20.2008 C   0  0  0  0  0  0
  -29.2526  -16.4603   21.1172 C   0  0  0  0  0  0
  -28.5544  -25.3349   19.9063 C   0  0  0  0  0  0
  -28.1461  -17.1768   15.3306 C   0  0  0  0  0  0
  -29.1126  -23.1870   21.3674 C   0  0  1  0  0  0
  -28.7317  -18.3266   19.5033 N   0  0  0  0  0  0
  -30.2286  -15.4137   21.5049 N   0  0  0  0  0  0
  -31.4612  -12.4529   19.1297 H   0  0  0  0  0  0
  -30.3306  -11.3432   19.8475 H   0  0  0  0  0  0
  -29.7468  -11.7811   17.4457 H   0  0  0  0  0  0
  -29.6460  -13.4955   17.7602 H   0  0  0  0  0  0
  -27.8460  -11.2966   18.8364 H   0  0  0  0  0  0
  -27.3631  -12.6086   17.7909 H   0  0  0  0  0  0
  -27.6716  -14.2351   19.5459 H   0  0  0  0  0  0
  -28.6848  -12.0116   21.3841 H   0  0  0  0  0  0
  -28.4334  -13.6677   21.8475 H   0  0  0  0  0  0
  -25.2730   -9.5678   22.4768 H   0  0  0  0  0  0
  -23.9974   -7.4630   22.7486 H   0  0  0  0  0  0
  -21.0824   -8.8757   19.8950 H   0  0  0  0  0  0
  -22.3673  -10.9657   19.6157 H   0  0  0  0  0  0
  -21.2013   -7.6147   23.9697 H   0  0  0  0  0  0
  -21.1485   -6.0527   25.9067 H   0  0  0  0  0  0
  -22.0604   -2.7602   23.2847 H   0  0  0  0  0  0
  -22.4132  -11.9856   22.4758 H   0  0  0  0  0  0
  -21.1105  -13.1201   22.2613 H   0  0  0  0  0  0
  -24.6554  -15.8351   20.5323 H   0  0  0  0  0  0
  -26.2762  -15.6425   20.1127 H   0  0  0  0  0  0
  -26.7089  -32.5544   23.1146 H   0  0  0  0  0  0
  -24.9841  -33.9768   25.0321 H   0  0  0  0  0  0
  -22.6898  -31.3031   21.4009 H   0  0  0  0  0  0
  -23.3751  -35.9662   23.3281 H   0  0  0  0  0  0
  -24.3557  -36.8989   22.2041 H   0  0  0  0  0  0
  -23.7243  -37.6530   23.6675 H   0  0  0  0  0  0
  -26.0425  -31.5940   20.5918 H   0  0  0  0  0  0
  -26.8199  -30.8832   21.9810 H   0  0  0  0  0  0
  -28.1065  -29.1096   21.1386 H   0  0  0  0  0  0
  -26.0409  -25.9478   19.0395 H   0  0  0  0  0  0
  -23.9783  -27.2624   19.0718 H   0  0  0  0  0  0
  -23.7237  -30.5835   19.4008 H   0  0  0  0  0  0
  -22.7387  -29.2307   19.8718 H   0  0  0  0  0  0
  -25.1302  -36.1986   25.0821 H   0  0  0  0  0  0
  -20.9926  -28.3269   24.1435 H   0  0  0  0  0  0
  -20.5687  -26.2289   23.3597 H   0  0  0  0  0  0
  -21.6643  -26.7478   22.1201 H   0  0  0  0  0  0
  -19.6915  -25.6305   21.1222 H   0  0  0  0  0  0
  -19.6662  -27.3198   20.6741 H   0  0  0  0  0  0
  -17.4180  -26.6599   21.4043 H   0  0  0  0  0  0
  -18.0339  -26.0044   22.9029 H   0  0  0  0  0  0
  -19.7949  -30.7189   24.2332 H   0  0  0  0  0  0
  -17.5056  -31.6265   24.5164 H   0  0  0  0  0  0
  -15.5368  -30.3047   23.7605 H   0  0  0  0  0  0
  -15.8635  -28.0858   22.7065 H   0  0  0  0  0  0
  -24.5780  -30.7181   25.7755 H   0  0  0  0  0  0
  -24.8847  -32.2934   26.4879 H   0  0  0  0  0  0
  -25.7920  -30.8911   27.0208 H   0  0  0  0  0  0
  -26.2810  -29.6863   24.1055 H   0  0  0  0  0  0
  -27.3832  -29.7244   25.4620 H   0  0  0  0  0  0
  -27.8716  -30.4331   23.9392 H   0  0  0  0  0  0
  -27.2563  -33.3657   26.2081 H   0  0  0  0  0  0
  -28.3766  -32.6966   25.0330 H   0  0  0  0  0  0
  -28.0633  -31.8482   26.5393 H   0  0  0  0  0  0
  -28.2603  -38.0128   24.7551 H   0  0  0  0  0  0
  -28.1102  -36.2657   24.6248 H   0  0  0  0  0  0
  -27.2276  -37.1458   25.8843 H   0  0  0  0  0  0
  -20.9282  -29.8788   21.6970 H   0  0  0  0  0  0
  -26.0187  -38.2900   24.1417 H   0  0  0  0  0  0
  -26.2418  -18.5569   17.3839 H   0  0  0  0  0  0
  -26.6456  -20.7761   18.8544 H   0  0  0  0  0  0
  -28.4828  -17.7245   13.2463 H   0  0  0  0  0  0
  -29.1917  -16.1769   13.6954 H   0  0  0  0  0  0
  -29.9505  -17.6815   14.2082 H   0  0  0  0  0  0
  -26.2865  -17.0174   14.2001 H   0  0  0  0  0  0
  -26.0973  -16.6534   15.9026 H   0  0  0  0  0  0
  -26.8613  -15.4781   14.8352 H   0  0  0  0  0  0
  -29.8401  -21.8817   22.9797 H   0  0  0  0  0  0
  -28.3172  -22.6856   23.3443 H   0  0  0  0  0  0
  -29.8352  -23.5749   23.3996 H   0  0  0  0  0  0
  -30.4489  -16.2262   23.4520 H   0  0  0  0  0  0
  -31.7653  -16.6018   22.3362 H   0  0  0  0  0  0
  -31.6287  -14.9921   23.0466 H   0  0  0  0  0  0
  -27.2674  -15.9046   17.7716 H   0  0  0  0  0  0
  -28.8359  -15.8253   18.4892 H   0  0  0  0  0  0
  -30.0222  -20.6933   20.4325 H   0  0  0  0  0  0
  -28.8775  -20.2550   21.6727 H   0  0  0  0  0  0
  -29.1138  -15.4382   16.1725 H   0  0  0  0  0  0
  -29.8872  -16.9378   16.5943 H   0  0  0  0  0  0
  -27.3151  -22.0450   20.9236 H   0  0  0  0  0  0
  -28.3158  -22.3851   19.5430 H   0  0  0  0  0  0
  -27.4159  -24.5703   21.5939 H   0  0  0  0  0  0
  -28.9644  -25.2455   21.9891 H   0  0  0  0  0  0
  -30.4846  -17.2014   19.4445 H   0  0  0  0  0  0
  -30.4002  -18.2978   20.7890 H   0  0  0  0  0  0
  -28.3999  -15.9793   20.6510 H   0  0  0  0  0  0
  -28.8294  -16.9184   22.0120 H   0  0  0  0  0  0
  -27.8713  -24.9242   19.1668 H   0  0  0  0  0  0
  -29.5476  -25.1583   19.4920 H   0  0  0  0  0  0
  -27.9890  -18.2182   15.6141 H   0  0  0  0  0  0
  -30.1186  -23.2574   20.9461 H   0  0  0  0  0  0
  1 25  1  0  0  0
  1 30  2  0  0  0
  1 90  1  0  0  0
  2  3  1  0  0  0
  2 25  1  0  0  0
  2 91  1  0  0  0
  2 92  1  0  0  0
  3  4  1  0  0  0
  3 93  1  0  0  0
  3 94  1  0  0  0
  4  5  1  0  0  0
  4 95  1  0  0  0
  4 96  1  0  0  0
  5  6  1  0  0  0
  5 26  1  0  0  0
  5 97  1  0  0  0
  6 25  1  0  0  0
  6 98  1  0  0  0
  6 99  1  0  0  0
  7  8  2  0  0  0
  7 26  1  0  0  0
  7 29  1  0  0  0
  8  9  1  0  0  0
  8 22  1  0  0  0
  9 10  1  0  0  0
  9 27  2  0  0  0
 10 11  2  0  0  0
 10 15  1  0  0  0
 11 12  1  0  0  0
 11100  1  0  0  0
 12 13  2  0  0  0
 12101  1  0  0  0
 13 14  1  0  0  0
 13 31  1  0  0  0
 14 15  2  0  0  0
 14102  1  0  0  0
 15103  1  0  0  0
 16 17  2  0  0  0
 16 21  1  0  0  0
 16 31  1  0  0  0
 17 18  1  0  0  0
 17104  1  0  0  0
 18 19  2  0  0  0
 18105  1  0  0  0
 19 20  1  0  0  0
 19 24  1  0  0  0
 20 21  2  0  0  0
 20106  1  0  0  0
 21 23  1  0  0  0
 22 28  1  0  0  0
 22 32  2  0  0  0
 26 27  1  0  0  0
 28107  1  0  0  0
 28108  1  0  0  0
 29109  1  0  0  0
 29110  1  0  0  0
 33 34  1  0  0  0
 33 66  1  0  0  0
 33 70  2  0  0  0
 34 36  1  0  0  0
 34 59  1  0  0  0
 34111  1  0  0  0
 35 44  2  0  0  0
 35 45  1  0  0  0
 35 68  1  0  0  0
 36 56  1  0  0  0
 36112  1  0  0  0
 37 39  1  0  0  0
 37 47  1  0  0  0
 37 66  1  0  0  0
 37113  1  0  0  0
 38 43  2  0  0  0
 38 46  1  0  0  0
 38 47  1  0  0  0
 39 64  1  0  0  0
 39 67  2  0  0  0
 40 52  1  0  0  0
 40 53  2  0  0  0
 40 58  1  0  0  0
 41114  1  0  0  0
 41115  1  0  0  0
 41116  1  0  0  0
 41 48  1  0  0  0
 42 43  1  0  0  0
 42 66  1  0  0  0
 42117  1  0  0  0
 42118  1  0  0  0
 43 44  1  0  0  0
 44119  1  0  0  0
 45 46  2  0  0  0
 45120  1  0  0  0
 46121  1  0  0  0
 47122  1  0  0  0
 47123  1  0  0  0
 48 56  1  0  0  0
 48 65  1  0  0  0
 48124  1  0  0  0
 49 50  1  0  0  0
 49 53  1  0  0  0
 49 64  1  0  0  0
 49125  1  0  0  0
 50 51  1  0  0  0
 50126  1  0  0  0
 50127  1  0  0  0
 51 52  1  0  0  0
 51128  1  0  0  0
 51129  1  0  0  0
 52130  1  0  0  0
 52131  1  0  0  0
 53 54  1  0  0  0
 54 55  2  0  0  0
 54132  1  0  0  0
 55 57  1  0  0  0
 55133  1  0  0  0
 56 69  2  0  0  0
 57 58  2  0  0  0
 57134  1  0  0  0
 58135  1  0  0  0
 59 60  1  0  0  0
 59 61  1  0  0  0
 59 62  1  0  0  0
 60136  1  0  0  0
 60137  1  0  0  0
 60138  1  0  0  0
 61139  1  0  0  0
 61140  1  0  0  0
 61141  1  0  0  0
 62142  1  0  0  0
 62143  1  0  0  0
 62144  1  0  0  0
 63 65  1  0  0  0
 63145  1  0  0  0
 63146  1  0  0  0
 63147  1  0  0  0
 64148  1  0  0  0
 65149  1  0  0  0
 68 86  1  0  0  0
 71 72  1  0  0  0
 71 73  2  0  0  0
 71150  1  0  0  0
 72 74  2  0  0  0
 72151  1  0  0  0
 73 79  1  0  0  0
 73 89  1  0  0  0
 74 80  1  0  0  0
 74 89  1  0  0  0
 75152  1  0  0  0
 75153  1  0  0  0
 75154  1  0  0  0
 75 87  1  0  0  0
 76 87  1  0  0  0
 76155  1  0  0  0
 76156  1  0  0  0
 76157  1  0  0  0
 77158  1  0  0  0
 77159  1  0  0  0
 77160  1  0  0  0
 77 88  1  0  0  0
 78 90  1  0  0  0
 78161  1  0  0  0
 78162  1  0  0  0
 78163  1  0  0  0
 79 81  1  0  0  0
 79164  1  0  0  0
 79165  1  0  0  0
 80 82  1  0  0  0
 80166  1  0  0  0
 80167  1  0  0  0
 81 87  1  0  0  0
 81168  1  0  0  0
 81169  1  0  0  0
 82 88  1  0  0  0
 82170  1  0  0  0
 82171  1  0  0  0
 83 86  1  0  0  0
 83 88  1  0  0  0
 83172  1  0  0  0
 83173  1  0  0  0
 84 85  1  0  0  0
 84 89  1  0  0  0
 84174  1  0  0  0
 84175  1  0  0  0
 85 90  1  0  0  0
 85176  1  0  0  0
 85177  1  0  0  0
 86178  1  0  0  0
 86179  1  0  0  0
 87180  1  0  0  0
 88181  1  0  0  0
M  ISO  4   1 100  68 101  86 101  90 100
M  END
> <chiral flag>
0

> <version>
0

> <s_m_source_file>
/data/baiqing/PycharmProjects/Reinvent-master-3.2/result/LINK_invent/BTK/process_docking_weight1_custom_sum_contain_oxygen_bond_distance_aromatic_linkinvent_7_9_3/rearranged_h_0093.sdf

> <i_m_source_file_index>
86

> <r_mmod_Potential_Energy-OPLS-2005>
120.47046661377

> <r_mmod_Stretch_Energy-OPLS-2005>
45.330005645752

> <r_mmod_Bend_Energy-OPLS-2005>
126.244537353516

> <r_mmod_Torsional_Energy-OPLS-2005>
305.394958496094

> <r_mmod_Improper_Torsional_Energy-OPLS-2005>
4.15404987335205

> <r_mmod_Van_der_Waal_Energy-OPLS-2005>
109.55899810791

> <r_mmod_Electrostatic_Energy-OPLS-2005>
-308.922241210938

> <r_mmod_Solvation_Energy-OPLS-2005>
-176.237243652344

> <b_mmod_Minimization_Converged-OPLS-2005>
0

> <r_mmod_RMS_Derivative-OPLS-2005>
2.30415964126587

$$$$
86
                    3D
 Structure written by MMmdl.
159167  0  0  1  0            999 V2000
  -30.6482  -14.6794   20.4678 C   0  0  0  0  0  0
  -30.4258  -12.4092   19.4627 C   0  0  0  0  0  0
  -29.5004  -12.4968   18.2297 C   0  0  0  0  0  0
  -28.0283  -12.3299   18.6517 C   0  0  0  0  0  0
  -27.6479  -13.2263   19.8600 C   0  0  2  0  0  0
  -28.6974  -13.1385   20.9912 C   0  0  0  0  0  0
  -25.2533  -13.8205   20.5706 C   0  0  0  0  0  0
  -24.1813  -13.0451   20.9213 C   0  0  0  0  0  0
  -24.6399  -11.6935   20.8765 C   0  0  0  0  0  0
  -23.9072  -10.4310   21.0422 C   0  0  0  0  0  0
  -24.3620   -9.4227   21.9203 C   0  0  0  0  0  0
  -23.6295   -8.2258   22.0767 C   0  0  0  0  0  0
  -22.4278   -8.0293   21.3547 C   0  0  0  0  0  0
  -21.9922   -9.0267   20.4647 C   0  0  0  0  0  0
  -22.7254  -10.2150   20.3066 C   0  0  0  0  0  0
  -21.6852   -6.0742   22.5278 C   0  0  0  0  0  0
  -21.4017   -6.5646   23.8217 C   0  0  0  0  0  0
  -21.3659   -5.6799   24.9177 C   0  0  0  0  0  0
  -21.6039   -4.3062   24.7232 C   0  0  0  0  0  0
  -21.8820   -3.8157   23.4349 C   0  0  0  0  0  0
  -21.9194   -4.6966   22.3404 C   0  0  0  0  0  0
  -22.7838  -13.5243   21.1863 C   0  0  0  0  0  0
  -22.1662   -4.2157   21.0980 F   0  0  0  0  0  0
  -21.5623   -3.4548   25.7746 F   0  0  0  0  0  0
  -30.0032  -13.4687   20.4058 N   0  0  0  0  0  0
  -26.2970  -12.9401   20.3350 N   0  0  0  0  0  0
  -25.9337  -11.6550   20.5820 N   0  0  0  0  0  0
  -22.0470  -12.8208   22.0397 N   0  0  0  0  0  0
  -25.4218  -15.1922   20.4104 N   0  0  0  0  0  0
  -31.8257  -14.7783   20.1165 O   0  0  0  0  0  0
  -21.6637   -6.8888   21.4241 O   0  0  0  0  0  0
  -22.3532  -14.5560   20.6736 O   0  0  0  0  0  0
  -24.6296  -31.8560   23.1944 C   0  0  0  0  0  0
  -25.9122  -32.4753   23.8284 C   0  0  1  0  0  0
  -27.2181  -27.2803   20.1344 C   0  0  0  0  0  0
  -25.5924  -33.8551   24.2237 N   0  0  0  0  0  0
  -23.4241  -30.4768   21.5392 C   0  0  2  0  0  0
  -24.8712  -28.9219   20.1119 C   0  0  0  0  0  0
  -22.7494  -29.4598   22.4911 C   0  0  0  0  0  0
  -18.0301  -28.1384   22.8483 C   0  0  0  0  0  0
  -24.1501  -36.7267   23.2640 C   0  0  0  0  0  0
  -25.9668  -30.7769   21.3668 C   0  0  0  0  0  0
  -26.0424  -29.3987   20.7149 C   0  0  0  0  0  0
  -27.2234  -28.5919   20.7090 C   0  0  0  0  0  0
  -26.0251  -26.8590   19.5106 C   0  0  0  0  0  0
  -24.8657  -27.6588   19.4988 C   0  0  0  0  0  0
  -23.6426  -29.8097   20.1566 C   0  0  0  0  0  0
  -25.4125  -36.3054   24.0330 C   0  0  1  0  0  0
  -20.5903  -28.3696   23.1273 C   0  0  2  0  0  0
  -20.6798  -26.9423   22.5392 C   0  0  0  0  0  0
  -19.5767  -26.6398   21.5200 C   0  0  0  0  0  0
  -18.1942  -26.7931   22.1614 C   0  0  0  0  0  0
  -19.1555  -28.8852   23.2871 C   0  0  0  0  0  0
  -18.9478  -30.1459   23.8891 C   0  0  0  0  0  0
  -17.6480  -30.6587   24.0570 C   0  0  0  0  0  0
  -25.9064  -34.9440   23.5087 C   0  0  0  0  0  0
  -16.5370  -29.9085   23.6339 C   0  0  0  0  0  0
  -16.7287  -28.6507   23.0351 C   0  0  0  0  0  0
  -26.4504  -31.6557   25.0650 C   0  0  0  0  0  0
  -25.3722  -31.3618   26.1342 C   0  0  0  0  0  0
  -27.0397  -30.3017   24.6056 C   0  0  0  0  0  0
  -27.6049  -32.4296   25.7439 C   0  0  0  0  0  0
  -27.5582  -37.1792   24.8476 C   0  0  0  0  0  0
  -21.4202  -29.3044   22.3655 N   0  0  0  0  0  0
  -26.4294  -37.3758   23.9411 N   0  0  0  0  0  0
  -24.6922  -31.0550   22.0905 N   0  0  0  0  0  0
  -23.4204  -28.8136   23.2996 O   0  0  0  0  0  0
  -28.3143  -26.3989   20.1429 O   0  0  0  0  0  0
  -26.5655  -34.8917   22.4663 O   0  0  0  0  0  0
  -23.5447  -32.1386   23.7259 O   0  0  0  0  0  0
  -28.1028  -23.6420   18.6469 C   0  0  0  0  0  0
  -28.2624  -22.4491   17.9173 C   0  0  0  0  0  0
  -28.9872  -22.4943   20.5959 C   0  0  0  0  0  0
  -28.4622  -23.7142   20.0013 C   0  0  0  0  0  0
  -28.7895  -21.2694   18.4956 C   0  0  0  0  0  0
  -29.1681  -21.2446   19.8712 C   0  0  0  0  0  0
  -27.6262  -19.3945   17.2282 C   0  0  0  0  0  0
  -28.9626  -20.0728   17.5649 C   0  0  0  0  0  0
  -29.9256  -19.9801   20.4880 C   0  0  0  0  0  0
  -28.1385  -25.0558   20.7815 C   0  0  0  0  0  0
  -29.3276  -18.4772   20.5548 C   0  0  0  0  0  0
  -30.3812  -17.2585   20.6899 C   0  0  0  0  0  0
  -29.9048  -15.8130   20.7307 N   0  0  0  0  0  0
  -31.4695  -12.5059   19.1583 H   0  0  0  0  0  0
  -30.3445  -11.4293   19.9347 H   0  0  0  0  0  0
  -29.7661  -11.7317   17.4983 H   0  0  0  0  0  0
  -29.6339  -13.4584   17.7316 H   0  0  0  0  0  0
  -27.8795  -11.2809   18.9110 H   0  0  0  0  0  0
  -27.3657  -12.5287   17.8091 H   0  0  0  0  0  0
  -27.6514  -14.2504   19.4876 H   0  0  0  0  0  0
  -28.7197  -12.1396   21.4280 H   0  0  0  0  0  0
  -28.4510  -13.8223   21.8044 H   0  0  0  0  0  0
  -25.2757   -9.5701   22.4795 H   0  0  0  0  0  0
  -24.0000   -7.4652   22.7500 H   0  0  0  0  0  0
  -21.0859   -8.8791   19.8947 H   0  0  0  0  0  0
  -22.3716  -10.9692   19.6179 H   0  0  0  0  0  0
  -21.2017   -7.6154   23.9720 H   0  0  0  0  0  0
  -21.1471   -6.0529   25.9079 H   0  0  0  0  0  0
  -22.0595   -2.7616   23.2854 H   0  0  0  0  0  0
  -22.4060  -11.9826   22.4714 H   0  0  0  0  0  0
  -21.1110  -13.1256   22.2655 H   0  0  0  0  0  0
  -24.6503  -15.8428   20.5150 H   0  0  0  0  0  0
  -26.2664  -15.6325   20.0683 H   0  0  0  0  0  0
  -26.7166  -32.5430   23.1010 H   0  0  0  0  0  0
  -25.0060  -33.9669   25.0369 H   0  0  0  0  0  0
  -22.7179  -31.2964   21.3907 H   0  0  0  0  0  0
  -23.3774  -35.9583   23.3285 H   0  0  0  0  0  0
  -24.3589  -36.8915   22.2056 H   0  0  0  0  0  0
  -23.7257  -37.6456   23.6687 H   0  0  0  0  0  0
  -26.0952  -31.5324   20.5904 H   0  0  0  0  0  0
  -26.8481  -30.8359   21.9942 H   0  0  0  0  0  0
  -28.1257  -28.9549   21.1817 H   0  0  0  0  0  0
  -25.9830  -25.8854   19.0440 H   0  0  0  0  0  0
  -23.9667  -27.2856   19.0267 H   0  0  0  0  0  0
  -23.7699  -30.5838   19.3981 H   0  0  0  0  0  0
  -22.7603  -29.2439   19.8515 H   0  0  0  0  0  0
  -25.1309  -36.1886   25.0824 H   0  0  0  0  0  0
  -20.9998  -28.3279   24.1395 H   0  0  0  0  0  0
  -20.5734  -26.2291   23.3583 H   0  0  0  0  0  0
  -21.6663  -26.7462   22.1172 H   0  0  0  0  0  0
  -19.6930  -25.6311   21.1227 H   0  0  0  0  0  0
  -19.6702  -27.3211   20.6730 H   0  0  0  0  0  0
  -17.4211  -26.6676   21.4014 H   0  0  0  0  0  0
  -18.0339  -26.0069   22.9012 H   0  0  0  0  0  0
  -19.7955  -30.7274   24.2257 H   0  0  0  0  0  0
  -17.5040  -31.6270   24.5168 H   0  0  0  0  0  0
  -15.5377  -30.2990   23.7670 H   0  0  0  0  0  0
  -15.8687  -28.0842   22.7057 H   0  0  0  0  0  0
  -24.5980  -30.6885   25.7632 H   0  0  0  0  0  0
  -24.8786  -32.2727   26.4735 H   0  0  0  0  0  0
  -25.8038  -30.8823   27.0137 H   0  0  0  0  0  0
  -26.2968  -29.6711   24.1146 H   0  0  0  0  0  0
  -27.4259  -29.7301   25.4505 H   0  0  0  0  0  0
  -27.8744  -30.4378   23.9172 H   0  0  0  0  0  0
  -27.2695  -33.3667   26.1901 H   0  0  0  0  0  0
  -28.3919  -32.6738   25.0288 H   0  0  0  0  0  0
  -28.0637  -31.8468   26.5441 H   0  0  0  0  0  0
  -28.2568  -38.0123   24.7579 H   0  0  0  0  0  0
  -28.1125  -36.2653   24.6269 H   0  0  0  0  0  0
  -27.2287  -37.1408   25.8875 H   0  0  0  0  0  0
  -20.9380  -29.8769   21.6871 H   0  0  0  0  0  0
  -26.0169  -38.2823   24.1420 H   0  0  0  0  0  0
  -27.6877  -24.5121   18.1587 H   0  0  0  0  0  0
  -27.9737  -22.4538   16.8753 H   0  0  0  0  0  0
  -29.2803  -22.5261   21.6364 H   0  0  0  0  0  0
  -27.7867  -18.4701   16.6711 H   0  0  0  0  0  0
  -27.0028  -20.0437   16.6127 H   0  0  0  0  0  0
  -27.0631  -19.1489   18.1289 H   0  0  0  0  0  0
  -29.6739  -19.3504   17.9588 H   0  0  0  0  0  0
  -29.4142  -20.4235   16.6353 H   0  0  0  0  0  0
  -30.2550  -20.2517   21.4916 H   0  0  0  0  0  0
  -30.8539  -19.9100   19.9188 H   0  0  0  0  0  0
  -28.7249  -25.0591   21.7004 H   0  0  0  0  0  0
  -27.1064  -24.9522   21.1195 H   0  0  0  0  0  0
  -28.7150  -18.2833   19.6777 H   0  0  0  0  0  0
  -28.6283  -18.4318   21.3909 H   0  0  0  0  0  0
  -30.9726  -17.4161   21.5937 H   0  0  0  0  0  0
  -31.0993  -17.3411   19.8725 H   0  0  0  0  0  0
  -28.9386  -15.6555   20.9710 H   0  0  0  0  0  0
  1 25  1  0  0  0
  1 30  2  0  0  0
  1 83  1  0  0  0
  2  3  1  0  0  0
  2 25  1  0  0  0
  2 84  1  0  0  0
  2 85  1  0  0  0
  3  4  1  0  0  0
  3 86  1  0  0  0
  3 87  1  0  0  0
  4  5  1  0  0  0
  4 88  1  0  0  0
  4 89  1  0  0  0
  5  6  1  0  0  0
  5 26  1  0  0  0
  5 90  1  0  0  0
  6 25  1  0  0  0
  6 91  1  0  0  0
  6 92  1  0  0  0
  7  8  2  0  0  0
  7 26  1  0  0  0
  7 29  1  0  0  0
  8  9  1  0  0  0
  8 22  1  0  0  0
  9 10  1  0  0  0
  9 27  2  0  0  0
 10 11  2  0  0  0
 10 15  1  0  0  0
 11 12  1  0  0  0
 11 93  1  0  0  0
 12 13  2  0  0  0
 12 94  1  0  0  0
 13 14  1  0  0  0
 13 31  1  0  0  0
 14 15  2  0  0  0
 14 95  1  0  0  0
 15 96  1  0  0  0
 16 17  2  0  0  0
 16 21  1  0  0  0
 16 31  1  0  0  0
 17 18  1  0  0  0
 17 97  1  0  0  0
 18 19  2  0  0  0
 18 98  1  0  0  0
 19 20  1  0  0  0
 19 24  1  0  0  0
 20 21  2  0  0  0
 20 99  1  0  0  0
 21 23  1  0  0  0
 22 28  1  0  0  0
 22 32  2  0  0  0
 26 27  1  0  0  0
 28100  1  0  0  0
 28101  1  0  0  0
 29102  1  0  0  0
 29103  1  0  0  0
 33 34  1  0  0  0
 33 66  1  0  0  0
 33 70  2  0  0  0
 34 36  1  0  0  0
 34 59  1  0  0  0
 34104  1  0  0  0
 35 44  2  0  0  0
 35 45  1  0  0  0
 35 68  1  0  0  0
 36 56  1  0  0  0
 36105  1  0  0  0
 37 39  1  0  0  0
 37 47  1  0  0  0
 37 66  1  0  0  0
 37106  1  0  0  0
 38 43  2  0  0  0
 38 46  1  0  0  0
 38 47  1  0  0  0
 39 64  1  0  0  0
 39 67  2  0  0  0
 40 52  1  0  0  0
 40 53  2  0  0  0
 40 58  1  0  0  0
 41107  1  0  0  0
 41108  1  0  0  0
 41109  1  0  0  0
 41 48  1  0  0  0
 42 43  1  0  0  0
 42 66  1  0  0  0
 42110  1  0  0  0
 42111  1  0  0  0
 43 44  1  0  0  0
 44112  1  0  0  0
 45 46  2  0  0  0
 45113  1  0  0  0
 46114  1  0  0  0
 47115  1  0  0  0
 47116  1  0  0  0
 48 56  1  0  0  0
 48 65  1  0  0  0
 48117  1  0  0  0
 49 50  1  0  0  0
 49 53  1  0  0  0
 49 64  1  0  0  0
 49118  1  0  0  0
 50 51  1  0  0  0
 50119  1  0  0  0
 50120  1  0  0  0
 51 52  1  0  0  0
 51121  1  0  0  0
 51122  1  0  0  0
 52123  1  0  0  0
 52124  1  0  0  0
 53 54  1  0  0  0
 54 55  2  0  0  0
 54125  1  0  0  0
 55 57  1  0  0  0
 55126  1  0  0  0
 56 69  2  0  0  0
 57 58  2  0  0  0
 57127  1  0  0  0
 58128  1  0  0  0
 59 60  1  0  0  0
 59 61  1  0  0  0
 59 62  1  0  0  0
 60129  1  0  0  0
 60130  1  0  0  0
 60131  1  0  0  0
 61132  1  0  0  0
 61133  1  0  0  0
 61134  1  0  0  0
 62135  1  0  0  0
 62136  1  0  0  0
 62137  1  0  0  0
 63 65  1  0  0  0
 63138  1  0  0  0
 63139  1  0  0  0
 63140  1  0  0  0
 64141  1  0  0  0
 65142  1  0  0  0
 68 80  1  0  0  0
 71 72  2  0  0  0
 71 74  1  0  0  0
 71143  1  0  0  0
 72 75  1  0  0  0
 72144  1  0  0  0
 73 74  2  0  0  0
 73 76  1  0  0  0
 73145  1  0  0  0
 74 80  1  0  0  0
 75 76  2  0  0  0
 75 78  1  0  0  0
 76 79  1  0  0  0
 77 78  1  0  0  0
 77146  1  0  0  0
 77147  1  0  0  0
 77148  1  0  0  0
 78149  1  0  0  0
 78150  1  0  0  0
 79 81  1  0  0  0
 79151  1  0  0  0
 79152  1  0  0  0
 80153  1  0  0  0
 80154  1  0  0  0
 81 82  1  0  0  0
 81155  1  0  0  0
 81156  1  0  0  0
 82 83  1  0  0  0
 82157  1  0  0  0
 82158  1  0  0  0
 83159  1  0  0  0
M  ISO  4   1 100  68 101  80 101  83 100
M  END
> <chiral flag>
0

> <version>
0

> <s_m_source_file>
/data/baiqing/PycharmProjects/Reinvent-master-3.2/result/LINK_invent/BTK/process_docking_weight1_custom_sum_contain_oxygen_bond_distance_aromatic_linkinvent_7_9_3/rearranged_h_0093.sdf

> <i_m_source_file_index>
87

> <r_mmod_Potential_Energy-OPLS-2005>
126.426620483398

> <r_mmod_Stretch_Energy-OPLS-2005>
111.457336425781

> <r_mmod_Bend_Energy-OPLS-2005>
150.750946044922

> <r_mmod_Torsional_Energy-OPLS-2005>
234.476043701172

> <r_mmod_Improper_Torsional_Energy-OPLS-2005>
5.55350303649902

> <r_mmod_Van_der_Waal_Energy-OPLS-2005>
133.479476928711

> <r_mmod_Electrostatic_Energy-OPLS-2005>
-371.423736572266

> <r_mmod_Solvation_Energy-OPLS-2005>
-203.30583190918

> <b_mmod_Minimization_Converged-OPLS-2005>
0

> <r_mmod_RMS_Derivative-OPLS-2005>
2.9112503528595

$$$$
87
                    3D
 Structure written by MMmdl.
166174  0  0  1  0            999 V2000
  -30.7101  -14.4967   20.5777 C   0  0  0  0  0  0
  -30.4241  -12.3258   19.4247 C   0  0  0  0  0  0
  -29.4973  -12.5040   18.2063 C   0  0  0  0  0  0
  -28.0177  -12.3599   18.6195 C   0  0  0  0  0  0
  -27.6621  -13.2078   19.8716 C   0  0  2  0  0  0
  -28.7047  -13.0134   20.9937 C   0  0  0  0  0  0
  -25.2595  -13.8168   20.5647 C   0  0  0  0  0  0
  -24.1832  -13.0458   20.9150 C   0  0  0  0  0  0
  -24.6393  -11.6922   20.8733 C   0  0  0  0  0  0
  -23.9060  -10.4308   21.0402 C   0  0  0  0  0  0
  -24.3621   -9.4225   21.9172 C   0  0  0  0  0  0
  -23.6303   -8.2258   22.0749 C   0  0  0  0  0  0
  -22.4278   -8.0294   21.3546 C   0  0  0  0  0  0
  -21.9912   -9.0261   20.4645 C   0  0  0  0  0  0
  -22.7238  -10.2141   20.3047 C   0  0  0  0  0  0
  -21.6860   -6.0748   22.5271 C   0  0  0  0  0  0
  -21.4016   -6.5642   23.8205 C   0  0  0  0  0  0
  -21.3659   -5.6790   24.9159 C   0  0  0  0  0  0
  -21.6047   -4.3056   24.7210 C   0  0  0  0  0  0
  -21.8818   -3.8154   23.4331 C   0  0  0  0  0  0
  -21.9190   -4.6974   22.3391 C   0  0  0  0  0  0
  -22.7853  -13.5273   21.1814 C   0  0  0  0  0  0
  -22.1657   -4.2160   21.0969 F   0  0  0  0  0  0
  -21.5630   -3.4539   25.7727 F   0  0  0  0  0  0
  -30.0287  -13.3242   20.4321 N   0  0  0  0  0  0
  -26.3041  -12.9342   20.3364 N   0  0  0  0  0  0
  -25.9325  -11.6506   20.5767 N   0  0  0  0  0  0
  -22.0481  -12.8274   22.0372 N   0  0  0  0  0  0
  -25.4355  -15.1874   20.4033 N   0  0  0  0  0  0
  -31.8448  -14.6566   20.1243 O   0  0  0  0  0  0
  -21.6640   -6.8896   21.4239 O   0  0  0  0  0  0
  -22.3552  -14.5597   20.6689 O   0  0  0  0  0  0
  -24.6193  -31.8640   23.2060 C   0  0  0  0  0  0
  -25.9073  -32.4795   23.8371 C   0  0  1  0  0  0
  -27.2379  -27.3813   20.0996 C   0  0  0  0  0  0
  -25.5920  -33.8597   24.2304 N   0  0  0  0  0  0
  -23.4092  -30.4864   21.5468 C   0  0  2  0  0  0
  -24.8540  -28.9399   20.1174 C   0  0  0  0  0  0
  -22.7428  -29.4652   22.4974 C   0  0  0  0  0  0
  -18.0277  -28.1381   22.8488 C   0  0  0  0  0  0
  -24.1485  -36.7289   23.2637 C   0  0  0  0  0  0
  -25.9436  -30.8097   21.3694 C   0  0  0  0  0  0
  -26.0164  -29.4406   20.7145 C   0  0  0  0  0  0
  -27.2055  -28.6687   20.7002 C   0  0  0  0  0  0
  -26.0466  -26.9017   19.5064 C   0  0  0  0  0  0
  -24.8666  -27.6715   19.5129 C   0  0  0  0  0  0
  -23.6197  -29.8138   20.1637 C   0  0  0  0  0  0
  -25.4109  -36.3089   24.0333 C   0  0  1  0  0  0
  -20.5869  -28.3679   23.1299 C   0  0  2  0  0  0
  -20.6771  -26.9413   22.5406 C   0  0  0  0  0  0
  -19.5750  -26.6387   21.5205 C   0  0  0  0  0  0
  -18.1928  -26.7925   22.1616 C   0  0  0  0  0  0
  -19.1524  -28.8847   23.2887 C   0  0  0  0  0  0
  -18.9458  -30.1449   23.8900 C   0  0  0  0  0  0
  -17.6461  -30.6591   24.0560 C   0  0  0  0  0  0
  -25.9044  -34.9460   23.5115 C   0  0  0  0  0  0
  -16.5347  -29.9086   23.6332 C   0  0  0  0  0  0
  -16.7267  -28.6497   23.0360 C   0  0  0  0  0  0
  -26.4486  -31.6598   25.0726 C   0  0  0  0  0  0
  -25.3740  -31.3727   26.1470 C   0  0  0  0  0  0
  -27.0337  -30.3034   24.6156 C   0  0  0  0  0  0
  -27.6056  -32.4333   25.7488 C   0  0  0  0  0  0
  -27.5579  -37.1796   24.8465 C   0  0  0  0  0  0
  -21.4154  -29.3041   22.3704 N   0  0  0  0  0  0
  -26.4289  -37.3781   23.9413 N   0  0  0  0  0  0
  -24.6754  -31.0695   22.0982 N   0  0  0  0  0  0
  -23.4176  -28.8202   23.3041 O   0  0  0  0  0  0
  -28.4299  -26.6645   20.1203 O   0  0  0  0  0  0
  -26.5598  -34.8921   22.4673 O   0  0  0  0  0  0
  -23.5375  -32.1425   23.7423 O   0  0  0  0  0  0
  -29.6114  -19.2102   21.6654 C   0  0  0  0  0  0
  -29.2976  -19.7180   19.5282 C   0  0  0  0  0  0
  -29.9996  -18.1008   20.9520 C   0  0  0  0  0  0
  -29.7987  -18.4353   19.5729 C   0  0  0  0  0  0
  -31.6137  -17.6722   18.0215 C   0  0  0  0  0  0
  -29.2419  -17.8852   17.1671 C   0  0  0  0  0  0
  -29.6774  -24.5781   21.8003 C   0  0  0  0  0  0
  -30.6102  -16.8214   21.5519 C   0  0  0  0  0  0
  -28.8796  -22.7393   20.2062 C   0  0  0  0  0  0
  -28.7100  -21.5605   21.2283 C   0  0  0  0  0  0
  -28.5554  -25.2961   19.6395 C   0  0  0  0  0  0
  -30.1252  -17.5628   18.3789 C   0  0  0  0  0  0
  -28.6118  -24.1934   20.7549 C   0  0  2  0  0  0
  -29.2020  -20.2274   20.8095 N   0  0  0  0  0  0
  -30.0389  -15.5165   21.1552 N   0  0  0  0  0  0
  -31.4678  -12.4289   19.1208 H   0  0  0  0  0  0
  -30.3334  -11.3190   19.8348 H   0  0  0  0  0  0
  -29.7469  -11.7738   17.4337 H   0  0  0  0  0  0
  -29.6589  -13.4878   17.7634 H   0  0  0  0  0  0
  -27.8252  -11.3036   18.8137 H   0  0  0  0  0  0
  -27.3710  -12.6329   17.7854 H   0  0  0  0  0  0
  -27.7064  -14.2533   19.5650 H   0  0  0  0  0  0
  -28.6874  -11.9832   21.3536 H   0  0  0  0  0  0
  -28.4667  -13.6294   21.8620 H   0  0  0  0  0  0
  -25.2764   -9.5710   22.4746 H   0  0  0  0  0  0
  -24.0009   -7.4660   22.7478 H   0  0  0  0  0  0
  -21.0843   -8.8785   19.8966 H   0  0  0  0  0  0
  -22.3694  -10.9676   19.6161 H   0  0  0  0  0  0
  -21.2006   -7.6148   23.9717 H   0  0  0  0  0  0
  -21.1487   -6.0509   25.9064 H   0  0  0  0  0  0
  -22.0604   -2.7624   23.2813 H   0  0  0  0  0  0
  -22.4099  -11.9953   22.4786 H   0  0  0  0  0  0
  -21.1101  -13.1323   22.2575 H   0  0  0  0  0  0
  -24.6771  -15.8485   20.5236 H   0  0  0  0  0  0
  -26.2961  -15.6229   20.0956 H   0  0  0  0  0  0
  -26.7137  -32.5479   23.1119 H   0  0  0  0  0  0
  -25.0107  -33.9759   25.0474 H   0  0  0  0  0  0
  -22.7001  -31.3046   21.4027 H   0  0  0  0  0  0
  -23.3755  -35.9614   23.3306 H   0  0  0  0  0  0
  -24.3573  -36.8900   22.2050 H   0  0  0  0  0  0
  -23.7232  -37.6492   23.6649 H   0  0  0  0  0  0
  -26.0705  -31.5753   20.6027 H   0  0  0  0  0  0
  -26.8263  -30.8557   21.9963 H   0  0  0  0  0  0
  -28.1040  -29.0520   21.1634 H   0  0  0  0  0  0
  -25.9894  -25.9327   19.0372 H   0  0  0  0  0  0
  -23.9696  -27.2762   19.0562 H   0  0  0  0  0  0
  -23.7336  -30.5850   19.4012 H   0  0  0  0  0  0
  -22.7425  -29.2358   19.8673 H   0  0  0  0  0  0
  -25.1286  -36.1943   25.0826 H   0  0  0  0  0  0
  -20.9957  -28.3250   24.1419 H   0  0  0  0  0  0
  -20.5677  -26.2291   23.3598 H   0  0  0  0  0  0
  -21.6644  -26.7459   22.1202 H   0  0  0  0  0  0
  -19.6918  -25.6297   21.1238 H   0  0  0  0  0  0
  -19.6688  -27.3193   20.6730 H   0  0  0  0  0  0
  -17.4199  -26.6672   21.4017 H   0  0  0  0  0  0
  -18.0332  -26.0063   22.9010 H   0  0  0  0  0  0
  -19.7937  -30.7259   24.2273 H   0  0  0  0  0  0
  -17.5022  -31.6272   24.5157 H   0  0  0  0  0  0
  -15.5353  -30.2993   23.7660 H   0  0  0  0  0  0
  -15.8662  -28.0815   22.7091 H   0  0  0  0  0  0
  -24.5902  -30.7087   25.7804 H   0  0  0  0  0  0
  -24.8946  -32.2893   26.4916 H   0  0  0  0  0  0
  -25.8083  -30.8892   27.0230 H   0  0  0  0  0  0
  -26.2909  -29.6780   24.1191 H   0  0  0  0  0  0
  -27.4068  -29.7289   25.4644 H   0  0  0  0  0  0
  -27.8756  -30.4340   23.9354 H   0  0  0  0  0  0
  -27.2673  -33.3630   26.2077 H   0  0  0  0  0  0
  -28.3857  -32.6906   25.0310 H   0  0  0  0  0  0
  -28.0737  -31.8457   26.5395 H   0  0  0  0  0  0
  -28.2595  -38.0096   24.7523 H   0  0  0  0  0  0
  -28.1076  -36.2628   24.6273 H   0  0  0  0  0  0
  -27.2298  -37.1430   25.8868 H   0  0  0  0  0  0
  -20.9326  -29.8747   21.6904 H   0  0  0  0  0  0
  -26.0172  -38.2856   24.1423 H   0  0  0  0  0  0
  -29.6143  -19.3806   22.7349 H   0  0  0  0  0  0
  -29.0158  -20.3264   18.6798 H   0  0  0  0  0  0
  -32.2424  -17.3980   18.8690 H   0  0  0  0  0  0
  -31.8782  -18.6888   17.7303 H   0  0  0  0  0  0
  -31.8735  -17.0105   17.1948 H   0  0  0  0  0  0
  -28.1852  -17.8069   17.4218 H   0  0  0  0  0  0
  -29.4350  -17.1951   16.3454 H   0  0  0  0  0  0
  -29.4278  -18.8945   16.7977 H   0  0  0  0  0  0
  -29.6712  -23.9095   22.6598 H   0  0  0  0  0  0
  -29.5067  -25.5832   22.1867 H   0  0  0  0  0  0
  -30.6792  -24.5560   21.3696 H   0  0  0  0  0  0
  -30.5237  -16.8889   22.6373 H   0  0  0  0  0  0
  -31.6832  -16.8492   21.3511 H   0  0  0  0  0  0
  -28.2019  -22.5522   19.3724 H   0  0  0  0  0  0
  -29.8845  -22.7003   19.7854 H   0  0  0  0  0  0
  -27.6561  -21.4602   21.4899 H   0  0  0  0  0  0
  -29.2198  -21.8029   22.1592 H   0  0  0  0  0  0
  -27.8281  -25.0330   18.8744 H   0  0  0  0  0  0
  -29.5079  -25.2674   19.1082 H   0  0  0  0  0  0
  -29.9199  -16.5310   18.6596 H   0  0  0  0  0  0
  -27.6408  -24.1888   21.2524 H   0  0  0  0  0  0
  -29.0924  -15.3298   21.4482 H   0  0  0  0  0  0
  1 25  1  0  0  0
  1 30  2  0  0  0
  1 85  1  0  0  0
  2  3  1  0  0  0
  2 25  1  0  0  0
  2 86  1  0  0  0
  2 87  1  0  0  0
  3  4  1  0  0  0
  3 88  1  0  0  0
  3 89  1  0  0  0
  4  5  1  0  0  0
  4 90  1  0  0  0
  4 91  1  0  0  0
  5  6  1  0  0  0
  5 26  1  0  0  0
  5 92  1  0  0  0
  6 25  1  0  0  0
  6 93  1  0  0  0
  6 94  1  0  0  0
  7  8  2  0  0  0
  7 26  1  0  0  0
  7 29  1  0  0  0
  8  9  1  0  0  0
  8 22  1  0  0  0
  9 10  1  0  0  0
  9 27  2  0  0  0
 10 11  2  0  0  0
 10 15  1  0  0  0
 11 12  1  0  0  0
 11 95  1  0  0  0
 12 13  2  0  0  0
 12 96  1  0  0  0
 13 14  1  0  0  0
 13 31  1  0  0  0
 14 15  2  0  0  0
 14 97  1  0  0  0
 15 98  1  0  0  0
 16 17  2  0  0  0
 16 21  1  0  0  0
 16 31  1  0  0  0
 17 18  1  0  0  0
 17 99  1  0  0  0
 18 19  2  0  0  0
 18100  1  0  0  0
 19 20  1  0  0  0
 19 24  1  0  0  0
 20 21  2  0  0  0
 20101  1  0  0  0
 21 23  1  0  0  0
 22 28  1  0  0  0
 22 32  2  0  0  0
 26 27  1  0  0  0
 28102  1  0  0  0
 28103  1  0  0  0
 29104  1  0  0  0
 29105  1  0  0  0
 33 34  1  0  0  0
 33 66  1  0  0  0
 33 70  2  0  0  0
 34 36  1  0  0  0
 34 59  1  0  0  0
 34106  1  0  0  0
 35 44  2  0  0  0
 35 45  1  0  0  0
 35 68  1  0  0  0
 36 56  1  0  0  0
 36107  1  0  0  0
 37 39  1  0  0  0
 37 47  1  0  0  0
 37 66  1  0  0  0
 37108  1  0  0  0
 38 43  2  0  0  0
 38 46  1  0  0  0
 38 47  1  0  0  0
 39 64  1  0  0  0
 39 67  2  0  0  0
 40 52  1  0  0  0
 40 53  2  0  0  0
 40 58  1  0  0  0
 41109  1  0  0  0
 41110  1  0  0  0
 41111  1  0  0  0
 41 48  1  0  0  0
 42 43  1  0  0  0
 42 66  1  0  0  0
 42112  1  0  0  0
 42113  1  0  0  0
 43 44  1  0  0  0
 44114  1  0  0  0
 45 46  2  0  0  0
 45115  1  0  0  0
 46116  1  0  0  0
 47117  1  0  0  0
 47118  1  0  0  0
 48 56  1  0  0  0
 48 65  1  0  0  0
 48119  1  0  0  0
 49 50  1  0  0  0
 49 53  1  0  0  0
 49 64  1  0  0  0
 49120  1  0  0  0
 50 51  1  0  0  0
 50121  1  0  0  0
 50122  1  0  0  0
 51 52  1  0  0  0
 51123  1  0  0  0
 51124  1  0  0  0
 52125  1  0  0  0
 52126  1  0  0  0
 53 54  1  0  0  0
 54 55  2  0  0  0
 54127  1  0  0  0
 55 57  1  0  0  0
 55128  1  0  0  0
 56 69  2  0  0  0
 57 58  2  0  0  0
 57129  1  0  0  0
 58130  1  0  0  0
 59 60  1  0  0  0
 59 61  1  0  0  0
 59 62  1  0  0  0
 60131  1  0  0  0
 60132  1  0  0  0
 60133  1  0  0  0
 61134  1  0  0  0
 61135  1  0  0  0
 61136  1  0  0  0
 62137  1  0  0  0
 62138  1  0  0  0
 62139  1  0  0  0
 63 65  1  0  0  0
 63140  1  0  0  0
 63141  1  0  0  0
 63142  1  0  0  0
 64143  1  0  0  0
 65144  1  0  0  0
 68 81  1  0  0  0
 71 73  2  0  0  0
 71 84  1  0  0  0
 71145  1  0  0  0
 72 74  2  0  0  0
 72 84  1  0  0  0
 72146  1  0  0  0
 73 74  1  0  0  0
 73 78  1  0  0  0
 74 82  1  0  0  0
 75147  1  0  0  0
 75148  1  0  0  0
 75149  1  0  0  0
 75 82  1  0  0  0
 76 82  1  0  0  0
 76150  1  0  0  0
 76151  1  0  0  0
 76152  1  0  0  0
 77153  1  0  0  0
 77154  1  0  0  0
 77155  1  0  0  0
 77 83  1  0  0  0
 78 85  1  0  0  0
 78156  1  0  0  0
 78157  1  0  0  0
 79 80  1  0  0  0
 79 83  1  0  0  0
 79158  1  0  0  0
 79159  1  0  0  0
 80 84  1  0  0  0
 80160  1  0  0  0
 80161  1  0  0  0
 81 83  1  0  0  0
 81162  1  0  0  0
 81163  1  0  0  0
 82164  1  0  0  0
 83165  1  0  0  0
 85166  1  0  0  0
M  ISO  4   1 100  68 101  81 101  85 100
M  END
> <chiral flag>
0

> <version>
0

> <s_m_source_file>
/data/baiqing/PycharmProjects/Reinvent-master-3.2/result/LINK_invent/BTK/process_docking_weight1_custom_sum_contain_oxygen_bond_distance_aromatic_linkinvent_7_9_3/rearranged_h_0093.sdf

> <i_m_source_file_index>
88

> <r_mmod_Potential_Energy-OPLS-2005>
-117.327842712402

> <r_mmod_Stretch_Energy-OPLS-2005>
47.9239463806152

> <r_mmod_Bend_Energy-OPLS-2005>
125.294998168945

> <r_mmod_Torsional_Energy-OPLS-2005>
207.294418334961

> <r_mmod_Improper_Torsional_Energy-OPLS-2005>
2.85952258110046

> <r_mmod_Van_der_Waal_Energy-OPLS-2005>
118.176231384277

> <r_mmod_Electrostatic_Energy-OPLS-2005>
-436.579162597656

> <r_mmod_Solvation_Energy-OPLS-2005>
-200.875930786133

> <b_mmod_Minimization_Converged-OPLS-2005>
0

> <r_mmod_RMS_Derivative-OPLS-2005>
2.2545804977417

$$$$
88
                    3D
 Structure written by MMmdl.
172180  0  0  1  0            999 V2000
  -30.6360  -14.5507   20.4585 C   0  0  0  0  0  0
  -30.4150  -12.3175   19.4537 C   0  0  0  0  0  0
  -29.5075  -12.5097   18.2169 C   0  0  0  0  0  0
  -28.0249  -12.3588   18.6165 C   0  0  0  0  0  0
  -27.6491  -13.2082   19.8637 C   0  0  2  0  0  0
  -28.6888  -13.0462   20.9966 C   0  0  0  0  0  0
  -25.2516  -13.8161   20.5659 C   0  0  0  0  0  0
  -24.1786  -13.0432   20.9172 C   0  0  0  0  0  0
  -24.6344  -11.6916   20.8704 C   0  0  0  0  0  0
  -23.9030  -10.4299   21.0402 C   0  0  0  0  0  0
  -24.3590   -9.4222   21.9192 C   0  0  0  0  0  0
  -23.6264   -8.2261   22.0801 C   0  0  0  0  0  0
  -22.4237   -8.0295   21.3597 C   0  0  0  0  0  0
  -21.9859   -9.0265   20.4689 C   0  0  0  0  0  0
  -22.7194  -10.2130   20.3078 C   0  0  0  0  0  0
  -21.6855   -6.0721   22.5295 C   0  0  0  0  0  0
  -21.4030   -6.5639   23.8220 C   0  0  0  0  0  0
  -21.3663   -5.6792   24.9197 C   0  0  0  0  0  0
  -21.6042   -4.3055   24.7239 C   0  0  0  0  0  0
  -21.8809   -3.8132   23.4352 C   0  0  0  0  0  0
  -21.9170   -4.6966   22.3411 C   0  0  0  0  0  0
  -22.7794  -13.5260   21.1826 C   0  0  0  0  0  0
  -22.1647   -4.2147   21.0986 F   0  0  0  0  0  0
  -21.5618   -3.4545   25.7748 F   0  0  0  0  0  0
  -30.0164  -13.3387   20.4385 N   0  0  0  0  0  0
  -26.2947  -12.9312   20.3285 N   0  0  0  0  0  0
  -25.9247  -11.6481   20.5685 N   0  0  0  0  0  0
  -22.0373  -12.8305   22.0384 N   0  0  0  0  0  0
  -25.4198  -15.1899   20.4113 N   0  0  0  0  0  0
  -31.8133  -14.6984   20.1307 O   0  0  0  0  0  0
  -21.6632   -6.8860   21.4252 O   0  0  0  0  0  0
  -22.3533  -14.5566   20.6651 O   0  0  0  0  0  0
  -24.6186  -31.8668   23.2067 C   0  0  0  0  0  0
  -25.9065  -32.4807   23.8386 C   0  0  1  0  0  0
  -27.2093  -27.3859   20.1067 C   0  0  0  0  0  0
  -25.5924  -33.8607   24.2340 N   0  0  0  0  0  0
  -23.4089  -30.4896   21.5499 C   0  0  2  0  0  0
  -24.8484  -28.9579   20.1085 C   0  0  0  0  0  0
  -22.7480  -29.4612   22.4982 C   0  0  0  0  0  0
  -18.0297  -28.1365   22.8482 C   0  0  0  0  0  0
  -24.1489  -36.7321   23.2636 C   0  0  0  0  0  0
  -25.9402  -30.8210   21.3600 C   0  0  0  0  0  0
  -26.0150  -29.4508   20.7091 C   0  0  0  0  0  0
  -27.2008  -28.6727   20.7043 C   0  0  0  0  0  0
  -26.0273  -26.9267   19.4848 C   0  0  0  0  0  0
  -24.8524  -27.6967   19.4927 C   0  0  0  0  0  0
  -23.6177  -29.8343   20.1596 C   0  0  0  0  0  0
  -25.4107  -36.3103   24.0329 C   0  0  1  0  0  0
  -20.5891  -28.3631   23.1316 C   0  0  2  0  0  0
  -20.6767  -26.9364   22.5417 C   0  0  0  0  0  0
  -19.5739  -26.6349   21.5213 C   0  0  0  0  0  0
  -18.1921  -26.7911   22.1626 C   0  0  0  0  0  0
  -19.1553  -28.8808   23.2886 C   0  0  0  0  0  0
  -18.9473  -30.1424   23.8884 C   0  0  0  0  0  0
  -17.6477  -30.6549   24.0550 C   0  0  0  0  0  0
  -25.9035  -34.9465   23.5132 C   0  0  0  0  0  0
  -16.5365  -29.9063   23.6319 C   0  0  0  0  0  0
  -16.7282  -28.6485   23.0318 C   0  0  0  0  0  0
  -26.4491  -31.6567   25.0708 C   0  0  0  0  0  0
  -25.3782  -31.3679   26.1479 C   0  0  0  0  0  0
  -27.0266  -30.3000   24.6006 C   0  0  0  0  0  0
  -27.6060  -32.4271   25.7500 C   0  0  0  0  0  0
  -27.5573  -37.1819   24.8458 C   0  0  0  0  0  0
  -21.4187  -29.3014   22.3742 N   0  0  0  0  0  0
  -26.4287  -37.3786   23.9402 N   0  0  0  0  0  0
  -24.6761  -31.0722   22.0986 N   0  0  0  0  0  0
  -23.4246  -28.8142   23.3014 O   0  0  0  0  0  0
  -28.3212  -26.5590   20.1783 O   0  0  0  0  0  0
  -26.5572  -34.8914   22.4683 O   0  0  0  0  0  0
  -23.5376  -32.1431   23.7452 O   0  0  0  0  0  0
  -30.2989  -19.4399   20.1295 C   0  0  0  0  0  0
  -29.8358  -18.1907   20.4859 C   0  0  0  0  0  0
  -29.1881  -19.6925   22.0257 C   0  0  0  0  0  0
  -25.5856  -22.6828   23.7485 C   0  0  0  0  0  0
  -26.6951  -21.3372   25.5864 C   0  0  0  0  0  0
  -27.7330  -25.5006   22.2715 C   0  0  0  0  0  0
  -29.9713  -16.8635   19.7643 C   0  0  0  0  0  0
  -28.6070  -20.2472   23.2915 C   0  0  0  0  0  0
  -27.1559  -20.7569   23.1605 C   0  0  0  0  0  0
  -29.0098  -22.8012   21.1555 C   0  0  0  0  0  0
  -29.2650  -24.2473   20.6151 C   0  0  0  0  0  0
  -30.2077  -21.8088   21.0799 C   0  0  0  0  0  0
  -26.8347  -21.8862   24.1599 C   0  0  0  0  0  0
  -28.0787  -25.2522   20.7869 C   0  0  2  0  0  0
  -29.8708  -20.3520   21.0693 N   0  0  0  0  0  0
  -29.1397  -18.4022   21.6511 N   0  3  0  0  0  0
  -29.7967  -15.6121   20.5357 N   0  0  0  0  0  0
  -31.4713  -12.3896   19.1844 H   0  0  0  0  0  0
  -30.2800  -11.3188   19.8717 H   0  0  0  0  0  0
  -29.7577  -11.7927   17.4347 H   0  0  0  0  0  0
  -29.6789  -13.4946   17.7808 H   0  0  0  0  0  0
  -27.8312  -11.3039   18.8131 H   0  0  0  0  0  0
  -27.3841  -12.6277   17.7747 H   0  0  0  0  0  0
  -27.6689  -14.2464   19.5381 H   0  0  0  0  0  0
  -28.6684  -12.0335   21.4009 H   0  0  0  0  0  0
  -28.4582  -13.6983   21.8394 H   0  0  0  0  0  0
  -25.2735   -9.5715   22.4780 H   0  0  0  0  0  0
  -24.0006   -7.4634   22.7508 H   0  0  0  0  0  0
  -21.0794   -8.8768   19.8977 H   0  0  0  0  0  0
  -22.3656  -10.9680   19.6199 H   0  0  0  0  0  0
  -21.2053   -7.6157   23.9740 H   0  0  0  0  0  0
  -21.1497   -6.0523   25.9098 H   0  0  0  0  0  0
  -22.0559   -2.7607   23.2844 H   0  0  0  0  0  0
  -22.3931  -12.0028   22.4917 H   0  0  0  0  0  0
  -21.1018  -13.1487   22.2550 H   0  0  0  0  0  0
  -24.6348  -15.8250   20.5108 H   0  0  0  0  0  0
  -26.2482  -15.6438   20.0498 H   0  0  0  0  0  0
  -26.7135  -32.5505   23.1153 H   0  0  0  0  0  0
  -25.0112  -33.9772   25.0511 H   0  0  0  0  0  0
  -22.6958  -31.3055   21.4180 H   0  0  0  0  0  0
  -23.3727  -35.9677   23.3327 H   0  0  0  0  0  0
  -24.3587  -36.8910   22.2044 H   0  0  0  0  0  0
  -23.7264  -37.6548   23.6634 H   0  0  0  0  0  0
  -26.0406  -31.5812   20.5839 H   0  0  0  0  0  0
  -26.8349  -30.8885   21.9681 H   0  0  0  0  0  0
  -28.0946  -29.0331   21.1949 H   0  0  0  0  0  0
  -25.9915  -25.9585   19.0071 H   0  0  0  0  0  0
  -23.9561  -27.3179   19.0203 H   0  0  0  0  0  0
  -23.7344  -30.6177   19.4084 H   0  0  0  0  0  0
  -22.7379  -29.2641   19.8552 H   0  0  0  0  0  0
  -25.1279  -36.1979   25.0814 H   0  0  0  0  0  0
  -20.9968  -28.3166   24.1445 H   0  0  0  0  0  0
  -20.5650  -26.2239   23.3609 H   0  0  0  0  0  0
  -21.6643  -26.7380   22.1231 H   0  0  0  0  0  0
  -19.6893  -25.6261   21.1233 H   0  0  0  0  0  0
  -19.6668  -27.3166   20.6748 H   0  0  0  0  0  0
  -17.4201  -26.6656   21.4023 H   0  0  0  0  0  0
  -18.0307  -26.0058   22.9024 H   0  0  0  0  0  0
  -19.7940  -30.7241   24.2266 H   0  0  0  0  0  0
  -17.5016  -31.6245   24.5139 H   0  0  0  0  0  0
  -15.5354  -30.2946   23.7624 H   0  0  0  0  0  0
  -15.8699  -28.0792   22.7023 H   0  0  0  0  0  0
  -24.5933  -30.7031   25.7862 H   0  0  0  0  0  0
  -24.9008  -32.2843   26.4945 H   0  0  0  0  0  0
  -25.8165  -30.8858   27.0225 H   0  0  0  0  0  0
  -26.2747  -29.6815   24.1070 H   0  0  0  0  0  0
  -27.4092  -29.7151   25.4384 H   0  0  0  0  0  0
  -27.8579  -30.4340   23.9076 H   0  0  0  0  0  0
  -27.2654  -33.3563   26.2082 H   0  0  0  0  0  0
  -28.3882  -32.6833   25.0344 H   0  0  0  0  0  0
  -28.0695  -31.8379   26.5427 H   0  0  0  0  0  0
  -28.2607  -38.0104   24.7482 H   0  0  0  0  0  0
  -28.1051  -36.2632   24.6301 H   0  0  0  0  0  0
  -27.2296  -37.1496   25.8865 H   0  0  0  0  0  0
  -20.9347  -29.8805   21.7027 H   0  0  0  0  0  0
  -26.0178  -38.2868   24.1393 H   0  0  0  0  0  0
  -30.8980  -19.7345   19.2799 H   0  0  0  0  0  0
  -25.4752  -23.5724   24.3714 H   0  0  0  0  0  0
  -24.6761  -22.0902   23.8521 H   0  0  0  0  0  0
  -25.6456  -23.0220   22.7137 H   0  0  0  0  0  0
  -26.6593  -22.1420   26.3206 H   0  0  0  0  0  0
  -27.5370  -20.6990   25.8547 H   0  0  0  0  0  0
  -25.7874  -20.7433   25.6962 H   0  0  0  0  0  0
  -27.5593  -24.5842   22.8304 H   0  0  0  0  0  0
  -26.8239  -26.0921   22.3798 H   0  0  0  0  0  0
  -28.5318  -26.0494   22.7653 H   0  0  0  0  0  0
  -30.9194  -16.8707   19.2251 H   0  0  0  0  0  0
  -29.2127  -16.8564   18.9769 H   0  0  0  0  0  0
  -29.2782  -21.0412   23.6202 H   0  0  0  0  0  0
  -28.6788  -19.4591   24.0401 H   0  0  0  0  0  0
  -26.4490  -19.9321   23.2619 H   0  0  0  0  0  0
  -27.0077  -21.1392   22.1526 H   0  0  0  0  0  0
  -28.1515  -22.3732   20.6392 H   0  0  0  0  0  0
  -28.7392  -22.8821   22.2041 H   0  0  0  0  0  0
  -29.4917  -24.1606   19.5519 H   0  0  0  0  0  0
  -30.1598  -24.6558   21.0831 H   0  0  0  0  0  0
  -30.8822  -21.9846   21.9188 H   0  0  0  0  0  0
  -30.7959  -22.0054   20.1832 H   0  0  0  0  0  0
  -27.6630  -22.5953   24.1553 H   0  0  0  0  0  0
  -27.2277  -24.7582   20.3155 H   0  0  0  0  0  0
  -28.6638  -17.6781   22.1762 H   0  0  0  0  0  0
  -28.8435  -15.3757   20.7558 H   0  0  0  0  0  0
  1 25  1  0  0  0
  1 30  2  0  0  0
  1 87  1  0  0  0
  2  3  1  0  0  0
  2 25  1  0  0  0
  2 88  1  0  0  0
  2 89  1  0  0  0
  3  4  1  0  0  0
  3 90  1  0  0  0
  3 91  1  0  0  0
  4  5  1  0  0  0
  4 92  1  0  0  0
  4 93  1  0  0  0
  5  6  1  0  0  0
  5 26  1  0  0  0
  5 94  1  0  0  0
  6 25  1  0  0  0
  6 95  1  0  0  0
  6 96  1  0  0  0
  7  8  2  0  0  0
  7 26  1  0  0  0
  7 29  1  0  0  0
  8  9  1  0  0  0
  8 22  1  0  0  0
  9 10  1  0  0  0
  9 27  2  0  0  0
 10 11  2  0  0  0
 10 15  1  0  0  0
 11 12  1  0  0  0
 11 97  1  0  0  0
 12 13  2  0  0  0
 12 98  1  0  0  0
 13 14  1  0  0  0
 13 31  1  0  0  0
 14 15  2  0  0  0
 14 99  1  0  0  0
 15100  1  0  0  0
 16 17  2  0  0  0
 16 21  1  0  0  0
 16 31  1  0  0  0
 17 18  1  0  0  0
 17101  1  0  0  0
 18 19  2  0  0  0
 18102  1  0  0  0
 19 20  1  0  0  0
 19 24  1  0  0  0
 20 21  2  0  0  0
 20103  1  0  0  0
 21 23  1  0  0  0
 22 28  1  0  0  0
 22 32  2  0  0  0
 26 27  1  0  0  0
 28104  1  0  0  0
 28105  1  0  0  0
 29106  1  0  0  0
 29107  1  0  0  0
 33 34  1  0  0  0
 33 66  1  0  0  0
 33 70  2  0  0  0
 34 36  1  0  0  0
 34 59  1  0  0  0
 34108  1  0  0  0
 35 44  2  0  0  0
 35 45  1  0  0  0
 35 68  1  0  0  0
 36 56  1  0  0  0
 36109  1  0  0  0
 37 39  1  0  0  0
 37 47  1  0  0  0
 37 66  1  0  0  0
 37110  1  0  0  0
 38 43  2  0  0  0
 38 46  1  0  0  0
 38 47  1  0  0  0
 39 64  1  0  0  0
 39 67  2  0  0  0
 40 52  1  0  0  0
 40 53  2  0  0  0
 40 58  1  0  0  0
 41111  1  0  0  0
 41112  1  0  0  0
 41113  1  0  0  0
 41 48  1  0  0  0
 42 43  1  0  0  0
 42 66  1  0  0  0
 42114  1  0  0  0
 42115  1  0  0  0
 43 44  1  0  0  0
 44116  1  0  0  0
 45 46  2  0  0  0
 45117  1  0  0  0
 46118  1  0  0  0
 47119  1  0  0  0
 47120  1  0  0  0
 48 56  1  0  0  0
 48 65  1  0  0  0
 48121  1  0  0  0
 49 50  1  0  0  0
 49 53  1  0  0  0
 49 64  1  0  0  0
 49122  1  0  0  0
 50 51  1  0  0  0
 50123  1  0  0  0
 50124  1  0  0  0
 51 52  1  0  0  0
 51125  1  0  0  0
 51126  1  0  0  0
 52127  1  0  0  0
 52128  1  0  0  0
 53 54  1  0  0  0
 54 55  2  0  0  0
 54129  1  0  0  0
 55 57  1  0  0  0
 55130  1  0  0  0
 56 69  2  0  0  0
 57 58  2  0  0  0
 57131  1  0  0  0
 58132  1  0  0  0
 59 60  1  0  0  0
 59 61  1  0  0  0
 59 62  1  0  0  0
 60133  1  0  0  0
 60134  1  0  0  0
 60135  1  0  0  0
 61136  1  0  0  0
 61137  1  0  0  0
 61138  1  0  0  0
 62139  1  0  0  0
 62140  1  0  0  0
 62141  1  0  0  0
 63 65  1  0  0  0
 63142  1  0  0  0
 63143  1  0  0  0
 63144  1  0  0  0
 64145  1  0  0  0
 65146  1  0  0  0
 68 84  1  0  0  0
 71 72  2  0  0  0
 71 85  1  0  0  0
 71147  1  0  0  0
 72 77  1  0  0  0
 72 86  1  0  0  0
 73 78  1  0  0  0
 73 85  1  0  0  0
 73 86  2  0  0  0
 74148  1  0  0  0
 74149  1  0  0  0
 74150  1  0  0  0
 74 83  1  0  0  0
 75 83  1  0  0  0
 75151  1  0  0  0
 75152  1  0  0  0
 75153  1  0  0  0
 76154  1  0  0  0
 76155  1  0  0  0
 76156  1  0  0  0
 76 84  1  0  0  0
 77 87  1  0  0  0
 77157  1  0  0  0
 77158  1  0  0  0
 78 79  1  0  0  0
 78159  1  0  0  0
 78160  1  0  0  0
 79 83  1  0  0  0
 79161  1  0  0  0
 79162  1  0  0  0
 80 81  1  0  0  0
 80 82  1  0  0  0
 80163  1  0  0  0
 80164  1  0  0  0
 81 84  1  0  0  0
 81165  1  0  0  0
 81166  1  0  0  0
 82 85  1  0  0  0
 82167  1  0  0  0
 82168  1  0  0  0
 83169  1  0  0  0
 84170  1  0  0  0
 86171  1  0  0  0
 87172  1  0  0  0
M  CHG  1  86   1
M  ISO  4   1 100  68 101  84 101  87 100
M  END
> <chiral flag>
0

> <version>
0

> <s_m_source_file>
/data/baiqing/PycharmProjects/Reinvent-master-3.2/result/LINK_invent/BTK/process_docking_weight1_custom_sum_contain_oxygen_bond_distance_aromatic_linkinvent_7_9_3/rearranged_h_0093.sdf

> <i_m_source_file_index>
89

> <r_mmod_Potential_Energy-OPLS-2005>
-135.875411987305

> <r_mmod_Stretch_Energy-OPLS-2005>
45.756031036377

> <r_mmod_Bend_Energy-OPLS-2005>
106.557106018066

> <r_mmod_Torsional_Energy-OPLS-2005>
260.592834472656

> <r_mmod_Improper_Torsional_Energy-OPLS-2005>
11.3256750106812

> <r_mmod_Van_der_Waal_Energy-OPLS-2005>
120.731307983398

> <r_mmod_Electrostatic_Energy-OPLS-2005>
-291.102996826172

> <r_mmod_Solvation_Energy-OPLS-2005>
-420.5712890625

> <b_mmod_Minimization_Converged-OPLS-2005>
0

> <r_mmod_RMS_Derivative-OPLS-2005>
5.87574815750122

$$$$
89
                    3D
 Structure written by MMmdl.
173181  0  0  1  0            999 V2000
  -30.6256  -14.7512   20.4721 C   0  0  0  0  0  0
  -30.4353  -12.4656   19.4871 C   0  0  0  0  0  0
  -29.5043  -12.4503   18.2549 C   0  0  0  0  0  0
  -28.0486  -12.2455   18.7016 C   0  0  0  0  0  0
  -27.6414  -13.2101   19.8442 C   0  0  2  0  0  0
  -28.6818  -13.1846   20.9870 C   0  0  0  0  0  0
  -25.2531  -13.8129   20.5620 C   0  0  0  0  0  0
  -24.1809  -13.0450   20.9175 C   0  0  0  0  0  0
  -24.6377  -11.6893   20.8809 C   0  0  0  0  0  0
  -23.9061  -10.4290   21.0487 C   0  0  0  0  0  0
  -24.3610   -9.4171   21.9229 C   0  0  0  0  0  0
  -23.6248   -8.2222   22.0785 C   0  0  0  0  0  0
  -22.4222   -8.0297   21.3575 C   0  0  0  0  0  0
  -21.9896   -9.0299   20.4679 C   0  0  0  0  0  0
  -22.7266  -10.2155   20.3093 C   0  0  0  0  0  0
  -21.6819   -6.0736   22.5279 C   0  0  0  0  0  0
  -21.4021   -6.5640   23.8226 C   0  0  0  0  0  0
  -21.3647   -5.6785   24.9182 C   0  0  0  0  0  0
  -21.6021   -4.3049   24.7238 C   0  0  0  0  0  0
  -21.8807   -3.8146   23.4365 C   0  0  0  0  0  0
  -21.9182   -4.6959   22.3415 C   0  0  0  0  0  0
  -22.7834  -13.5256   21.1858 C   0  0  0  0  0  0
  -22.1627   -4.2141   21.0988 F   0  0  0  0  0  0
  -21.5642   -3.4537   25.7764 F   0  0  0  0  0  0
  -29.9856  -13.5339   20.4056 N   0  0  0  0  0  0
  -26.2933  -12.9293   20.3247 N   0  0  0  0  0  0
  -25.9296  -11.6473   20.5818 N   0  0  0  0  0  0
  -22.0463  -12.8293   22.0412 N   0  0  0  0  0  0
  -25.4271  -15.1851   20.3967 N   0  0  0  0  0  0
  -31.8104  -14.8393   20.1302 O   0  0  0  0  0  0
  -21.6607   -6.8890   21.4237 O   0  0  0  0  0  0
  -22.3536  -14.5564   20.6693 O   0  0  0  0  0  0
  -24.6342  -31.8569   23.2022 C   0  0  0  0  0  0
  -25.9187  -32.4764   23.8339 C   0  0  1  0  0  0
  -27.2053  -27.2422   20.1324 C   0  0  0  0  0  0
  -25.5965  -33.8560   24.2261 N   0  0  0  0  0  0
  -23.4297  -30.4831   21.5474 C   0  0  2  0  0  0
  -24.8738  -28.9350   20.1111 C   0  0  0  0  0  0
  -22.7505  -29.4614   22.4916 C   0  0  0  0  0  0
  -18.0303  -28.1389   22.8472 C   0  0  0  0  0  0
  -24.1491  -36.7256   23.2625 C   0  0  0  0  0  0
  -25.9836  -30.7660   21.3843 C   0  0  0  0  0  0
  -26.0518  -29.3929   20.7140 C   0  0  0  0  0  0
  -27.2254  -28.5660   20.7028 C   0  0  0  0  0  0
  -26.0011  -26.8660   19.4938 C   0  0  0  0  0  0
  -24.8571  -27.6800   19.4863 C   0  0  0  0  0  0
  -23.6471  -29.8229   20.1609 C   0  0  0  0  0  0
  -25.4122  -36.3055   24.0316 C   0  0  1  0  0  0
  -20.5898  -28.3684   23.1256 C   0  0  2  0  0  0
  -20.6783  -26.9416   22.5369 C   0  0  0  0  0  0
  -19.5760  -26.6395   21.5165 C   0  0  0  0  0  0
  -18.1953  -26.7935   22.1605 C   0  0  0  0  0  0
  -19.1562  -28.8864   23.2856 C   0  0  0  0  0  0
  -18.9466  -30.1452   23.8866 C   0  0  0  0  0  0
  -17.6463  -30.6590   24.0554 C   0  0  0  0  0  0
  -25.9073  -34.9430   23.5086 C   0  0  0  0  0  0
  -16.5355  -29.9064   23.6347 C   0  0  0  0  0  0
  -16.7282  -28.6498   23.0356 C   0  0  0  0  0  0
  -26.4524  -31.6599   25.0758 C   0  0  0  0  0  0
  -25.3712  -31.3776   26.1456 C   0  0  0  0  0  0
  -27.0386  -30.2997   24.6324 C   0  0  0  0  0  0
  -27.6090  -32.4336   25.7505 C   0  0  0  0  0  0
  -27.5596  -37.1782   24.8477 C   0  0  0  0  0  0
  -21.4217  -29.3046   22.3662 N   0  0  0  0  0  0
  -26.4303  -37.3760   23.9427 N   0  0  0  0  0  0
  -24.7028  -31.0501   22.1005 N   0  0  0  0  0  0
  -23.4216  -28.8162   23.3025 O   0  0  0  0  0  0
  -28.2761  -26.3113   20.1903 O   0  0  0  0  0  0
  -26.5630  -34.8914   22.4661 O   0  0  0  0  0  0
  -23.5493  -32.1393   23.7301 O   0  0  0  0  0  0
  -27.5805  -21.6012   22.2056 C   0  0  0  0  0  0
  -27.1468  -20.8474   23.3074 C   0  0  0  0  0  0
  -28.4037  -21.0411   21.1999 C   0  0  0  0  0  0
  -27.6345  -19.5338   23.4280 C   0  0  0  0  0  0
  -28.7158  -19.6021   21.3307 C   0  0  0  0  0  0
  -27.3954  -18.6934   24.6691 C   0  0  0  0  0  0
  -25.7322  -23.2458   27.6885 C   0  0  0  0  0  0
  -28.0236  -17.8480   19.5660 C   0  0  0  0  0  0
  -26.0909  -21.4332   24.2524 C   0  0  0  0  0  0
  -28.7530  -22.0677   20.0502 C   0  0  0  0  0  0
  -25.4262  -22.8489   26.2379 C   0  0  0  0  0  0
  -26.6040  -22.1860   25.4921 C   0  0  0  0  0  0
  -29.0581  -23.6462   20.3568 C   0  0  0  0  0  0
  -30.2837  -17.3742   20.6426 C   0  0  0  0  0  0
  -27.9508  -24.8282   20.2441 C   0  0  0  0  0  0
  -29.2172  -18.5437   20.2482 C   0  0  1  0  0  0
  -28.3601  -18.9397   22.4564 N   0  0  0  0  0  0
  -29.8790  -15.8884   20.7299 N   0  0  0  0  0  0
  -31.4716  -12.5979   19.1720 H   0  0  0  0  0  0
  -30.4017  -11.5103   20.0088 H   0  0  0  0  0  0
  -29.8017  -11.6361   17.5930 H   0  0  0  0  0  0
  -29.5983  -13.3739   17.6804 H   0  0  0  0  0  0
  -27.9832  -11.2175   19.0671 H   0  0  0  0  0  0
  -27.3619  -12.3049   17.8574 H   0  0  0  0  0  0
  -27.6351  -14.2153   19.4190 H   0  0  0  0  0  0
  -28.7248  -12.1968   21.4483 H   0  0  0  0  0  0
  -28.4003  -13.8812   21.7785 H   0  0  0  0  0  0
  -25.2776   -9.5598   22.4798 H   0  0  0  0  0  0
  -23.9932   -7.4595   22.7504 H   0  0  0  0  0  0
  -21.0830   -8.8883   19.8973 H   0  0  0  0  0  0
  -22.3788  -10.9723   19.6197 H   0  0  0  0  0  0
  -21.2005   -7.6152   23.9734 H   0  0  0  0  0  0
  -21.1470   -6.0525   25.9091 H   0  0  0  0  0  0
  -22.0590   -2.7606   23.2892 H   0  0  0  0  0  0
  -22.4040  -11.9956   22.4853 H   0  0  0  0  0  0
  -21.1109  -13.1403   22.2649 H   0  0  0  0  0  0
  -24.6699  -15.8461   20.5263 H   0  0  0  0  0  0
  -26.2793  -15.6183   20.0702 H   0  0  0  0  0  0
  -26.7269  -32.5379   23.1081 H   0  0  0  0  0  0
  -25.0112  -33.9700   25.0393 H   0  0  0  0  0  0
  -22.7277  -31.3084   21.4067 H   0  0  0  0  0  0
  -23.3764  -35.9582   23.3297 H   0  0  0  0  0  0
  -24.3573  -36.8863   22.2039 H   0  0  0  0  0  0
  -23.7244  -37.6458   23.6645 H   0  0  0  0  0  0
  -26.1407  -31.5390   20.6301 H   0  0  0  0  0  0
  -26.8519  -30.7965   22.0325 H   0  0  0  0  0  0
  -28.1318  -28.9222   21.1714 H   0  0  0  0  0  0
  -25.8920  -25.9139   18.9977 H   0  0  0  0  0  0
  -23.9556  -27.3224   19.0088 H   0  0  0  0  0  0
  -23.7750  -30.6073   19.4136 H   0  0  0  0  0  0
  -22.7662  -29.2581   19.8464 H   0  0  0  0  0  0
  -25.1311  -36.1876   25.0804 H   0  0  0  0  0  0
  -20.9966  -28.3234   24.1380 H   0  0  0  0  0  0
  -20.5658  -26.2294   23.3559 H   0  0  0  0  0  0
  -21.6658  -26.7456   22.1174 H   0  0  0  0  0  0
  -19.6920  -25.6297   21.1217 H   0  0  0  0  0  0
  -19.6687  -27.3178   20.6671 H   0  0  0  0  0  0
  -17.4206  -26.6637   21.4031 H   0  0  0  0  0  0
  -18.0413  -26.0074   22.9014 H   0  0  0  0  0  0
  -19.7933  -30.7289   24.2221 H   0  0  0  0  0  0
  -17.5014  -31.6267   24.5159 H   0  0  0  0  0  0
  -15.5352  -30.2956   23.7697 H   0  0  0  0  0  0
  -15.8682  -28.0794   22.7089 H   0  0  0  0  0  0
  -24.5852  -30.7206   25.7725 H   0  0  0  0  0  0
  -24.8955  -32.2963   26.4892 H   0  0  0  0  0  0
  -25.7956  -30.8888   27.0227 H   0  0  0  0  0  0
  -26.3011  -29.6729   24.1323 H   0  0  0  0  0  0
  -27.3981  -29.7310   25.4905 H   0  0  0  0  0  0
  -27.8918  -30.4232   23.9660 H   0  0  0  0  0  0
  -27.2722  -33.3605   26.2144 H   0  0  0  0  0  0
  -28.3849  -32.6950   25.0303 H   0  0  0  0  0  0
  -28.0845  -31.8446   26.5355 H   0  0  0  0  0  0
  -28.2614  -38.0078   24.7553 H   0  0  0  0  0  0
  -28.1096  -36.2627   24.6266 H   0  0  0  0  0  0
  -27.2336  -37.1381   25.8881 H   0  0  0  0  0  0
  -20.9418  -29.8734   21.6819 H   0  0  0  0  0  0
  -26.0173  -38.2835   24.1412 H   0  0  0  0  0  0
  -27.2253  -22.6168   22.1069 H   0  0  0  0  0  0
  -26.3458  -18.6713   24.9574 H   0  0  0  0  0  0
  -27.9730  -19.0883   25.5083 H   0  0  0  0  0  0
  -27.7154  -17.6628   24.5211 H   0  0  0  0  0  0
  -24.8108  -23.5215   28.2059 H   0  0  0  0  0  0
  -26.4104  -24.0963   27.7513 H   0  0  0  0  0  0
  -26.1694  -22.4097   28.2338 H   0  0  0  0  0  0
  -28.3589  -17.2407   18.7227 H   0  0  0  0  0  0
  -27.2770  -18.5573   19.2128 H   0  0  0  0  0  0
  -27.5327  -17.1769   20.2723 H   0  0  0  0  0  0
  -25.4148  -20.6409   24.5762 H   0  0  0  0  0  0
  -25.4645  -22.1111   23.6651 H   0  0  0  0  0  0
  -27.9775  -22.0099   19.2874 H   0  0  0  0  0  0
  -29.6434  -21.6588   19.5728 H   0  0  0  0  0  0
  -25.0888  -23.7250   25.6816 H   0  0  0  0  0  0
  -24.5830  -22.1582   26.2583 H   0  0  0  0  0  0
  -27.3244  -22.9525   25.2042 H   0  0  0  0  0  0
  -27.1231  -21.4921   26.1540 H   0  0  0  0  0  0
  -29.7965  -23.9118   19.5967 H   0  0  0  0  0  0
  -29.6064  -23.7193   21.2947 H   0  0  0  0  0  0
  -31.0281  -17.4063   19.8416 H   0  0  0  0  0  0
  -30.8390  -17.6812   21.5282 H   0  0  0  0  0  0
  -27.2763  -24.7056   21.0929 H   0  0  0  0  0  0
  -27.3718  -24.5575   19.3638 H   0  0  0  0  0  0
  -29.7090  -19.1720   19.5025 H   0  0  0  0  0  0
  -28.9265  -15.7159   21.0203 H   0  0  0  0  0  0
  1 25  1  0  0  0
  1 30  2  0  0  0
  1 88  1  0  0  0
  2  3  1  0  0  0
  2 25  1  0  0  0
  2 89  1  0  0  0
  2 90  1  0  0  0
  3  4  1  0  0  0
  3 91  1  0  0  0
  3 92  1  0  0  0
  4  5  1  0  0  0
  4 93  1  0  0  0
  4 94  1  0  0  0
  5  6  1  0  0  0
  5 26  1  0  0  0
  5 95  1  0  0  0
  6 25  1  0  0  0
  6 96  1  0  0  0
  6 97  1  0  0  0
  7  8  2  0  0  0
  7 26  1  0  0  0
  7 29  1  0  0  0
  8  9  1  0  0  0
  8 22  1  0  0  0
  9 10  1  0  0  0
  9 27  2  0  0  0
 10 11  2  0  0  0
 10 15  1  0  0  0
 11 12  1  0  0  0
 11 98  1  0  0  0
 12 13  2  0  0  0
 12 99  1  0  0  0
 13 14  1  0  0  0
 13 31  1  0  0  0
 14 15  2  0  0  0
 14100  1  0  0  0
 15101  1  0  0  0
 16 17  2  0  0  0
 16 21  1  0  0  0
 16 31  1  0  0  0
 17 18  1  0  0  0
 17102  1  0  0  0
 18 19  2  0  0  0
 18103  1  0  0  0
 19 20  1  0  0  0
 19 24  1  0  0  0
 20 21  2  0  0  0
 20104  1  0  0  0
 21 23  1  0  0  0
 22 28  1  0  0  0
 22 32  2  0  0  0
 26 27  1  0  0  0
 28105  1  0  0  0
 28106  1  0  0  0
 29107  1  0  0  0
 29108  1  0  0  0
 33 34  1  0  0  0
 33 66  1  0  0  0
 33 70  2  0  0  0
 34 36  1  0  0  0
 34 59  1  0  0  0
 34109  1  0  0  0
 35 44  2  0  0  0
 35 45  1  0  0  0
 35 68  1  0  0  0
 36 56  1  0  0  0
 36110  1  0  0  0
 37 39  1  0  0  0
 37 47  1  0  0  0
 37 66  1  0  0  0
 37111  1  0  0  0
 38 43  2  0  0  0
 38 46  1  0  0  0
 38 47  1  0  0  0
 39 64  1  0  0  0
 39 67  2  0  0  0
 40 52  1  0  0  0
 40 53  2  0  0  0
 40 58  1  0  0  0
 41112  1  0  0  0
 41113  1  0  0  0
 41114  1  0  0  0
 41 48  1  0  0  0
 42 43  1  0  0  0
 42 66  1  0  0  0
 42115  1  0  0  0
 42116  1  0  0  0
 43 44  1  0  0  0
 44117  1  0  0  0
 45 46  2  0  0  0
 45118  1  0  0  0
 46119  1  0  0  0
 47120  1  0  0  0
 47121  1  0  0  0
 48 56  1  0  0  0
 48 65  1  0  0  0
 48122  1  0  0  0
 49 50  1  0  0  0
 49 53  1  0  0  0
 49 64  1  0  0  0
 49123  1  0  0  0
 50 51  1  0  0  0
 50124  1  0  0  0
 50125  1  0  0  0
 51 52  1  0  0  0
 51126  1  0  0  0
 51127  1  0  0  0
 52128  1  0  0  0
 52129  1  0  0  0
 53 54  1  0  0  0
 54 55  2  0  0  0
 54130  1  0  0  0
 55 57  1  0  0  0
 55131  1  0  0  0
 56 69  2  0  0  0
 57 58  2  0  0  0
 57132  1  0  0  0
 58133  1  0  0  0
 59 60  1  0  0  0
 59 61  1  0  0  0
 59 62  1  0  0  0
 60134  1  0  0  0
 60135  1  0  0  0
 60136  1  0  0  0
 61137  1  0  0  0
 61138  1  0  0  0
 61139  1  0  0  0
 62140  1  0  0  0
 62141  1  0  0  0
 62142  1  0  0  0
 63 65  1  0  0  0
 63143  1  0  0  0
 63144  1  0  0  0
 63145  1  0  0  0
 64146  1  0  0  0
 65147  1  0  0  0
 68 85  1  0  0  0
 71 72  2  0  0  0
 71 73  1  0  0  0
 71148  1  0  0  0
 72 74  1  0  0  0
 72 79  1  0  0  0
 73 75  2  0  0  0
 73 80  1  0  0  0
 74 76  1  0  0  0
 74 87  2  0  0  0
 75 86  1  0  0  0
 75 87  1  0  0  0
 76149  1  0  0  0
 76150  1  0  0  0
 76151  1  0  0  0
 77 81  1  0  0  0
 77152  1  0  0  0
 77153  1  0  0  0
 77154  1  0  0  0
 78155  1  0  0  0
 78156  1  0  0  0
 78157  1  0  0  0
 78 86  1  0  0  0
 79 82  1  0  0  0
 79158  1  0  0  0
 79159  1  0  0  0
 80 83  1  0  0  0
 80160  1  0  0  0
 80161  1  0  0  0
 81 82  1  0  0  0
 81162  1  0  0  0
 81163  1  0  0  0
 82164  1  0  0  0
 82165  1  0  0  0
 83 85  1  0  0  0
 83166  1  0  0  0
 83167  1  0  0  0
 84 86  1  0  0  0
 84 88  1  0  0  0
 84168  1  0  0  0
 84169  1  0  0  0
 85170  1  0  0  0
 85171  1  0  0  0
 86172  1  0  0  0
 88173  1  0  0  0
M  ISO  4   1 100  68 101  85 101  88 100
M  END
> <chiral flag>
0

> <version>
0

> <s_m_source_file>
/data/baiqing/PycharmProjects/Reinvent-master-3.2/result/LINK_invent/BTK/process_docking_weight1_custom_sum_contain_oxygen_bond_distance_aromatic_linkinvent_7_9_3/rearranged_h_0093.sdf

> <i_m_source_file_index>
90

> <r_mmod_Potential_Energy-OPLS-2005>
98.0100173950195

> <r_mmod_Stretch_Energy-OPLS-2005>
144.278396606445

> <r_mmod_Bend_Energy-OPLS-2005>
216.517211914062

> <r_mmod_Torsional_Energy-OPLS-2005>
241.618835449219

> <r_mmod_Improper_Torsional_Energy-OPLS-2005>
5.44642639160156

> <r_mmod_Van_der_Waal_Energy-OPLS-2005>
135.477676391602

> <r_mmod_Electrostatic_Energy-OPLS-2005>
-532.617004394531

> <r_mmod_Solvation_Energy-OPLS-2005>
-211.302261352539

> <b_mmod_Minimization_Converged-OPLS-2005>
0

> <r_mmod_RMS_Derivative-OPLS-2005>
6.82092952728271

$$$$
90
                    3D
 Structure written by MMmdl.
156164  0  0  1  0            999 V2000
  -30.7076  -14.3973   20.6848 C   0  0  0  0  0  0
  -30.4290  -12.2913   19.4273 C   0  0  0  0  0  0
  -29.5121  -12.5413   18.2128 C   0  0  0  0  0  0
  -28.0296  -12.3994   18.6079 C   0  0  0  0  0  0
  -27.6710  -13.2019   19.8874 C   0  0  2  0  0  0
  -28.6964  -12.9162   21.0066 C   0  0  0  0  0  0
  -25.2585  -13.8133   20.5608 C   0  0  0  0  0  0
  -24.1844  -13.0438   20.9163 C   0  0  0  0  0  0
  -24.6385  -11.6900   20.8738 C   0  0  0  0  0  0
  -23.9047  -10.4297   21.0434 C   0  0  0  0  0  0
  -24.3594   -9.4190   21.9203 C   0  0  0  0  0  0
  -23.6247   -8.2244   22.0759 C   0  0  0  0  0  0
  -22.4229   -8.0298   21.3544 C   0  0  0  0  0  0
  -21.9883   -9.0269   20.4648 C   0  0  0  0  0  0
  -22.7239  -10.2144   20.3074 C   0  0  0  0  0  0
  -21.6846   -6.0728   22.5276 C   0  0  0  0  0  0
  -21.4002   -6.5610   23.8215 C   0  0  0  0  0  0
  -21.3667   -5.6773   24.9182 C   0  0  0  0  0  0
  -21.6055   -4.3027   24.7220 C   0  0  0  0  0  0
  -21.8816   -3.8125   23.4343 C   0  0  0  0  0  0
  -21.9191   -4.6952   22.3396 C   0  0  0  0  0  0
  -22.7854  -13.5250   21.1863 C   0  0  0  0  0  0
  -22.1682   -4.2138   21.0982 F   0  0  0  0  0  0
  -21.5626   -3.4512   25.7733 F   0  0  0  0  0  0
  -30.0481  -13.2257   20.4938 N   0  0  0  0  0  0
  -26.3040  -12.9304   20.3317 N   0  0  0  0  0  0
  -25.9303  -11.6464   20.5694 N   0  0  0  0  0  0
  -22.0458  -12.8256   22.0410 N   0  0  0  0  0  0
  -25.4335  -15.1853   20.3938 N   0  0  0  0  0  0
  -31.7286  -14.7210   20.0675 O   0  0  0  0  0  0
  -21.6628   -6.8870   21.4233 O   0  0  0  0  0  0
  -22.3566  -14.5590   20.6756 O   0  0  0  0  0  0
  -24.6064  -31.8748   23.2165 C   0  0  0  0  0  0
  -25.8990  -32.4865   23.8422 C   0  0  1  0  0  0
  -27.2465  -27.4851   20.0938 C   0  0  0  0  0  0
  -25.5892  -33.8666   24.2360 N   0  0  0  0  0  0
  -23.3942  -30.4946   21.5566 C   0  0  2  0  0  0
  -24.8456  -28.9646   20.1185 C   0  0  0  0  0  0
  -22.7371  -29.4676   22.5064 C   0  0  0  0  0  0
  -18.0269  -28.1348   22.8472 C   0  0  0  0  0  0
  -24.1484  -36.7308   23.2632 C   0  0  0  0  0  0
  -25.9180  -30.8508   21.3670 C   0  0  0  0  0  0
  -26.0010  -29.4882   20.7153 C   0  0  0  0  0  0
  -27.2028  -28.7537   20.7074 C   0  0  0  0  0  0
  -26.0816  -26.9610   19.4982 C   0  0  0  0  0  0
  -24.8784  -27.6950   19.5118 C   0  0  0  0  0  0
  -23.6028  -29.8245   20.1703 C   0  0  0  0  0  0
  -25.4101  -36.3150   24.0347 C   0  0  1  0  0  0
  -20.5850  -28.3635   23.1336 C   0  0  2  0  0  0
  -20.6783  -26.9378   22.5443 C   0  0  0  0  0  0
  -19.5772  -26.6299   21.5267 C   0  0  0  0  0  0
  -18.1945  -26.7886   22.1644 C   0  0  0  0  0  0
  -19.1521  -28.8811   23.2888 C   0  0  0  0  0  0
  -18.9444  -30.1414   23.8910 C   0  0  0  0  0  0
  -17.6444  -30.6558   24.0553 C   0  0  0  0  0  0
  -25.9034  -34.9507   23.5146 C   0  0  0  0  0  0
  -16.5336  -29.9040   23.6306 C   0  0  0  0  0  0
  -16.7266  -28.6461   23.0324 C   0  0  0  0  0  0
  -26.4434  -31.6645   25.0735 C   0  0  0  0  0  0
  -25.3695  -31.3755   26.1477 C   0  0  0  0  0  0
  -27.0271  -30.3098   24.6102 C   0  0  0  0  0  0
  -27.6048  -32.4346   25.7456 C   0  0  0  0  0  0
  -27.5580  -37.1810   24.8467 C   0  0  0  0  0  0
  -21.4110  -29.3029   22.3788 N   0  0  0  0  0  0
  -26.4298  -37.3829   23.9404 N   0  0  0  0  0  0
  -24.6570  -31.0862   22.1063 N   0  0  0  0  0  0
  -23.4168  -28.8236   23.3104 O   0  0  0  0  0  0
  -28.4212  -26.7784   20.0653 O   0  0  0  0  0  0
  -26.5594  -34.8944   22.4710 O   0  0  0  0  0  0
  -23.5267  -32.1484   23.7562 O   0  0  0  0  0  0
  -28.7530  -19.6497   20.1411 C   0  0  0  0  0  0
  -28.5202  -18.6878   21.1487 C   0  0  0  0  0  0
  -27.5451  -21.1401   21.3711 C   0  0  0  0  0  0
  -28.8265  -17.2038   20.9532 C   0  0  0  0  0  0
  -26.7497  -22.4400   21.4298 C   0  0  0  0  0  0
  -27.5174  -23.6847   21.9161 C   0  0  0  0  0  0
  -28.1894  -24.4679   20.7744 C   0  0  0  0  0  0
  -30.1340  -16.6790   21.5957 C   0  0  0  0  0  0
  -28.5874  -25.8997   21.1741 C   0  0  0  0  0  0
  -28.2502  -20.9018   20.2582 N   0  0  0  0  0  0
  -27.8687  -19.0391   22.2846 N   0  0  0  0  0  0
  -27.3830  -20.2855   22.3985 N   0  0  0  0  0  0
  -30.1116  -15.2138   21.5664 N   0  0  0  0  0  0
  -31.4781  -12.3968   19.1474 H   0  0  0  0  0  0
  -30.3156  -11.2641   19.7773 H   0  0  0  0  0  0
  -29.7524  -11.8439   17.4106 H   0  0  0  0  0  0
  -29.6917  -13.5400   17.8070 H   0  0  0  0  0  0
  -27.8252  -11.3391   18.7623 H   0  0  0  0  0  0
  -27.3924  -12.7142   17.7809 H   0  0  0  0  0  0
  -27.7354  -14.2628   19.6378 H   0  0  0  0  0  0
  -28.6524  -11.8674   21.3032 H   0  0  0  0  0  0
  -28.4212  -13.4661   21.9081 H   0  0  0  0  0  0
  -25.2756   -9.5634   22.4747 H   0  0  0  0  0  0
  -23.9948   -7.4622   22.7459 H   0  0  0  0  0  0
  -21.0833   -8.8814   19.8919 H   0  0  0  0  0  0
  -22.3745  -10.9679   19.6159 H   0  0  0  0  0  0
  -21.1981   -7.6110   23.9714 H   0  0  0  0  0  0
  -21.1511   -6.0497   25.9092 H   0  0  0  0  0  0
  -22.0585   -2.7573   23.2852 H   0  0  0  0  0  0
  -22.4047  -11.9913   22.4799 H   0  0  0  0  0  0
  -21.1086  -13.1336   22.2661 H   0  0  0  0  0  0
  -24.6684  -15.8433   20.4927 H   0  0  0  0  0  0
  -26.2776  -15.6025   20.0272 H   0  0  0  0  0  0
  -26.7054  -32.5581   23.1190 H   0  0  0  0  0  0
  -25.0103  -33.9843   25.0538 H   0  0  0  0  0  0
  -22.6783  -31.3071   21.4199 H   0  0  0  0  0  0
  -23.3774  -35.9615   23.3328 H   0  0  0  0  0  0
  -24.3605  -36.8887   22.2047 H   0  0  0  0  0  0
  -23.7210  -37.6518   23.6605 H   0  0  0  0  0  0
  -26.0328  -31.6227   20.6035 H   0  0  0  0  0  0
  -26.8042  -30.9066   21.9863 H   0  0  0  0  0  0
  -28.0972  -29.1492   21.1707 H   0  0  0  0  0  0
  -26.1004  -25.9912   19.0228 H   0  0  0  0  0  0
  -23.9895  -27.2835   19.0526 H   0  0  0  0  0  0
  -23.7011  -30.6010   19.4122 H   0  0  0  0  0  0
  -22.7276  -29.2436   19.8755 H   0  0  0  0  0  0
  -25.1281  -36.2030   25.0846 H   0  0  0  0  0  0
  -20.9884  -28.3204   24.1488 H   0  0  0  0  0  0
  -20.5723  -26.2281   23.3668 H   0  0  0  0  0  0
  -21.6637  -26.7448   22.1191 H   0  0  0  0  0  0
  -19.6926  -25.6165   21.1420 H   0  0  0  0  0  0
  -19.6687  -27.3034   20.6736 H   0  0  0  0  0  0
  -17.4208  -26.6669   21.4044 H   0  0  0  0  0  0
  -18.0304  -26.0049   22.9059 H   0  0  0  0  0  0
  -19.7937  -30.7190   24.2304 H   0  0  0  0  0  0
  -17.4986  -31.6253   24.5109 H   0  0  0  0  0  0
  -15.5327  -30.2916   23.7601 H   0  0  0  0  0  0
  -15.8685  -28.0765   22.7011 H   0  0  0  0  0  0
  -24.5824  -30.7179   25.7784 H   0  0  0  0  0  0
  -24.8907  -32.2919   26.4933 H   0  0  0  0  0  0
  -25.8001  -30.8883   27.0230 H   0  0  0  0  0  0
  -26.2839  -29.6862   24.1130 H   0  0  0  0  0  0
  -27.4061  -29.7336   25.4555 H   0  0  0  0  0  0
  -27.8649  -30.4465   23.9267 H   0  0  0  0  0  0
  -27.2725  -33.3626   26.2105 H   0  0  0  0  0  0
  -28.3788  -32.6947   25.0230 H   0  0  0  0  0  0
  -28.0792  -31.8435   26.5291 H   0  0  0  0  0  0
  -28.2635  -38.0078   24.7531 H   0  0  0  0  0  0
  -28.1067  -36.2630   24.6287 H   0  0  0  0  0  0
  -27.2323  -37.1456   25.8884 H   0  0  0  0  0  0
  -20.9271  -29.8789   21.7045 H   0  0  0  0  0  0
  -26.0213  -38.2925   24.1404 H   0  0  0  0  0  0
  -29.2760  -19.3994   19.2292 H   0  0  0  0  0  0
  -28.8193  -16.9821   19.8855 H   0  0  0  0  0  0
  -27.9774  -16.6511   21.3626 H   0  0  0  0  0  0
  -25.8914  -22.2837   22.0859 H   0  0  0  0  0  0
  -26.3102  -22.6226   20.4501 H   0  0  0  0  0  0
  -28.2190  -23.4351   22.7135 H   0  0  0  0  0  0
  -26.7799  -24.3479   22.3692 H   0  0  0  0  0  0
  -27.5004  -24.5208   19.9324 H   0  0  0  0  0  0
  -29.0545  -23.9229   20.3940 H   0  0  0  0  0  0
  -30.2023  -16.9914   22.6402 H   0  0  0  0  0  0
  -31.0157  -17.0827   21.0909 H   0  0  0  0  0  0
  -28.0010  -26.2518   22.0274 H   0  0  0  0  0  0
  -29.6271  -25.9220   21.4998 H   0  0  0  0  0  0
  -29.3712  -14.7818   22.0986 H   0  0  0  0  0  0
  1 25  1  0  0  0
  1 30  2  0  0  0
  1 83  1  0  0  0
  2  3  1  0  0  0
  2 25  1  0  0  0
  2 84  1  0  0  0
  2 85  1  0  0  0
  3  4  1  0  0  0
  3 86  1  0  0  0
  3 87  1  0  0  0
  4  5  1  0  0  0
  4 88  1  0  0  0
  4 89  1  0  0  0
  5  6  1  0  0  0
  5 26  1  0  0  0
  5 90  1  0  0  0
  6 25  1  0  0  0
  6 91  1  0  0  0
  6 92  1  0  0  0
  7  8  2  0  0  0
  7 26  1  0  0  0
  7 29  1  0  0  0
  8  9  1  0  0  0
  8 22  1  0  0  0
  9 10  1  0  0  0
  9 27  2  0  0  0
 10 11  2  0  0  0
 10 15  1  0  0  0
 11 12  1  0  0  0
 11 93  1  0  0  0
 12 13  2  0  0  0
 12 94  1  0  0  0
 13 14  1  0  0  0
 13 31  1  0  0  0
 14 15  2  0  0  0
 14 95  1  0  0  0
 15 96  1  0  0  0
 16 17  2  0  0  0
 16 21  1  0  0  0
 16 31  1  0  0  0
 17 18  1  0  0  0
 17 97  1  0  0  0
 18 19  2  0  0  0
 18 98  1  0  0  0
 19 20  1  0  0  0
 19 24  1  0  0  0
 20 21  2  0  0  0
 20 99  1  0  0  0
 21 23  1  0  0  0
 22 28  1  0  0  0
 22 32  2  0  0  0
 26 27  1  0  0  0
 28100  1  0  0  0
 28101  1  0  0  0
 29102  1  0  0  0
 29103  1  0  0  0
 33 34  1  0  0  0
 33 66  1  0  0  0
 33 70  2  0  0  0
 34 36  1  0  0  0
 34 59  1  0  0  0
 34104  1  0  0  0
 35 44  2  0  0  0
 35 45  1  0  0  0
 35 68  1  0  0  0
 36 56  1  0  0  0
 36105  1  0  0  0
 37 39  1  0  0  0
 37 47  1  0  0  0
 37 66  1  0  0  0
 37106  1  0  0  0
 38 43  2  0  0  0
 38 46  1  0  0  0
 38 47  1  0  0  0
 39 64  1  0  0  0
 39 67  2  0  0  0
 40 52  1  0  0  0
 40 53  2  0  0  0
 40 58  1  0  0  0
 41107  1  0  0  0
 41108  1  0  0  0
 41109  1  0  0  0
 41 48  1  0  0  0
 42 43  1  0  0  0
 42 66  1  0  0  0
 42110  1  0  0  0
 42111  1  0  0  0
 43 44  1  0  0  0
 44112  1  0  0  0
 45 46  2  0  0  0
 45113  1  0  0  0
 46114  1  0  0  0
 47115  1  0  0  0
 47116  1  0  0  0
 48 56  1  0  0  0
 48 65  1  0  0  0
 48117  1  0  0  0
 49 50  1  0  0  0
 49 53  1  0  0  0
 49 64  1  0  0  0
 49118  1  0  0  0
 50 51  1  0  0  0
 50119  1  0  0  0
 50120  1  0  0  0
 51 52  1  0  0  0
 51121  1  0  0  0
 51122  1  0  0  0
 52123  1  0  0  0
 52124  1  0  0  0
 53 54  1  0  0  0
 54 55  2  0  0  0
 54125  1  0  0  0
 55 57  1  0  0  0
 55126  1  0  0  0
 56 69  2  0  0  0
 57 58  2  0  0  0
 57127  1  0  0  0
 58128  1  0  0  0
 59 60  1  0  0  0
 59 61  1  0  0  0
 59 62  1  0  0  0
 60129  1  0  0  0
 60130  1  0  0  0
 60131  1  0  0  0
 61132  1  0  0  0
 61133  1  0  0  0
 61134  1  0  0  0
 62135  1  0  0  0
 62136  1  0  0  0
 62137  1  0  0  0
 63 65  1  0  0  0
 63138  1  0  0  0
 63139  1  0  0  0
 63140  1  0  0  0
 64141  1  0  0  0
 65142  1  0  0  0
 68 79  1  0  0  0
 71 72  2  0  0  0
 71 80  1  0  0  0
 71143  1  0  0  0
 72 74  1  0  0  0
 72 81  1  0  0  0
 73 75  1  0  0  0
 73 80  2  0  0  0
 73 82  1  0  0  0
 74 78  1  0  0  0
 74144  1  0  0  0
 74145  1  0  0  0
 75 76  1  0  0  0
 75146  1  0  0  0
 75147  1  0  0  0
 76 77  1  0  0  0
 76148  1  0  0  0
 76149  1  0  0  0
 77 79  1  0  0  0
 77150  1  0  0  0
 77151  1  0  0  0
 78 83  1  0  0  0
 78152  1  0  0  0
 78153  1  0  0  0
 79154  1  0  0  0
 79155  1  0  0  0
 81 82  2  0  0  0
 83156  1  0  0  0
M  ISO  4   1 100  68 101  79 101  83 100
M  END
> <chiral flag>
0

> <version>
0

> <s_m_source_file>
/data/baiqing/PycharmProjects/Reinvent-master-3.2/result/LINK_invent/BTK/process_docking_weight1_custom_sum_contain_oxygen_bond_distance_aromatic_linkinvent_7_9_3/rearranged_h_0093.sdf

> <i_m_source_file_index>
91

> <r_mmod_Potential_Energy-OPLS-2005>
-106.637977600098

> <r_mmod_Stretch_Energy-OPLS-2005>
34.80126953125

> <r_mmod_Bend_Energy-OPLS-2005>
94.1193237304688

> <r_mmod_Torsional_Energy-OPLS-2005>
226.603408813477

> <r_mmod_Improper_Torsional_Energy-OPLS-2005>
4.23277235031128

> <r_mmod_Van_der_Waal_Energy-OPLS-2005>
157.208709716797

> <r_mmod_Electrostatic_Energy-OPLS-2005>
-393.511108398438

> <r_mmod_Solvation_Energy-OPLS-2005>
-238.355926513672

> <b_mmod_Minimization_Converged-OPLS-2005>
0

> <r_mmod_RMS_Derivative-OPLS-2005>
4.34937286376953

$$$$
91
                    3D
 Structure written by MMmdl.
175183  0  0  1  0            999 V2000
  -30.7217  -14.4873   20.5092 C   0  0  0  0  0  0
  -30.4197  -12.2815   19.4580 C   0  0  0  0  0  0
  -29.5109  -12.4889   18.2283 C   0  0  0  0  0  0
  -28.0232  -12.3729   18.6198 C   0  0  0  0  0  0
  -27.6660  -13.2130   19.8772 C   0  0  2  0  0  0
  -28.7128  -13.0237   21.0071 C   0  0  0  0  0  0
  -25.2618  -13.8148   20.5757 C   0  0  0  0  0  0
  -24.1866  -13.0427   20.9177 C   0  0  0  0  0  0
  -24.6413  -11.6884   20.8726 C   0  0  0  0  0  0
  -23.9056  -10.4286   21.0427 C   0  0  0  0  0  0
  -24.3607   -9.4204   21.9189 C   0  0  0  0  0  0
  -23.6302   -8.2245   22.0739 C   0  0  0  0  0  0
  -22.4268   -8.0266   21.3560 C   0  0  0  0  0  0
  -21.9917   -9.0220   20.4634 C   0  0  0  0  0  0
  -22.7242  -10.2096   20.3076 C   0  0  0  0  0  0
  -21.6851   -6.0748   22.5310 C   0  0  0  0  0  0
  -21.4005   -6.5669   23.8235 C   0  0  0  0  0  0
  -21.3661   -5.6822   24.9197 C   0  0  0  0  0  0
  -21.6050   -4.3086   24.7250 C   0  0  0  0  0  0
  -21.8821   -3.8163   23.4376 C   0  0  0  0  0  0
  -21.9211   -4.6978   22.3424 C   0  0  0  0  0  0
  -22.7908  -13.5197   21.1849 C   0  0  0  0  0  0
  -22.1679   -4.2156   21.1006 F   0  0  0  0  0  0
  -21.5612   -3.4589   25.7778 F   0  0  0  0  0  0
  -30.0517  -13.2995   20.4548 N   0  0  0  0  0  0
  -26.3061  -12.9332   20.3408 N   0  0  0  0  0  0
  -25.9350  -11.6495   20.5794 N   0  0  0  0  0  0
  -22.0579  -12.8139   22.0373 N   0  0  0  0  0  0
  -25.4309  -15.1886   20.4198 N   0  0  0  0  0  0
  -31.8336  -14.6548   20.0100 O   0  0  0  0  0  0
  -21.6636   -6.8866   21.4258 O   0  0  0  0  0  0
  -22.3576  -14.5547   20.6738 O   0  0  0  0  0  0
  -24.6197  -31.8640   23.2021 C   0  0  0  0  0  0
  -25.9039  -32.4808   23.8367 C   0  0  1  0  0  0
  -27.2441  -27.3697   20.0924 C   0  0  0  0  0  0
  -25.5877  -33.8621   24.2283 N   0  0  0  0  0  0
  -23.4135  -30.4821   21.5418 C   0  0  2  0  0  0
  -24.8624  -28.9386   20.1124 C   0  0  0  0  0  0
  -22.7440  -29.4632   22.4946 C   0  0  0  0  0  0
  -18.0288  -28.1390   22.8493 C   0  0  0  0  0  0
  -24.1490  -36.7318   23.2637 C   0  0  0  0  0  0
  -25.9495  -30.7996   21.3735 C   0  0  0  0  0  0
  -26.0234  -29.4319   20.7162 C   0  0  0  0  0  0
  -27.2099  -28.6528   20.7057 C   0  0  0  0  0  0
  -26.0561  -26.9059   19.4784 C   0  0  0  0  0  0
  -24.8754  -27.6778   19.4934 C   0  0  0  0  0  0
  -23.6250  -29.8088   20.1606 C   0  0  0  0  0  0
  -25.4114  -36.3108   24.0320 C   0  0  1  0  0  0
  -20.5875  -28.3680   23.1293 C   0  0  2  0  0  0
  -20.6771  -26.9410   22.5394 C   0  0  0  0  0  0
  -19.5745  -26.6381   21.5186 C   0  0  0  0  0  0
  -18.1918  -26.7926   22.1615 C   0  0  0  0  0  0
  -19.1537  -28.8845   23.2894 C   0  0  0  0  0  0
  -18.9471  -30.1443   23.8918 C   0  0  0  0  0  0
  -17.6480  -30.6581   24.0566 C   0  0  0  0  0  0
  -25.9057  -34.9475   23.5105 C   0  0  0  0  0  0
  -16.5374  -29.9087   23.6325 C   0  0  0  0  0  0
  -16.7281  -28.6509   23.0335 C   0  0  0  0  0  0
  -26.4425  -31.6662   25.0780 C   0  0  0  0  0  0
  -25.3622  -31.3808   26.1489 C   0  0  0  0  0  0
  -27.0274  -30.3092   24.6259 C   0  0  0  0  0  0
  -27.6022  -32.4390   25.7526 C   0  0  0  0  0  0
  -27.5578  -37.1791   24.8444 C   0  0  0  0  0  0
  -21.4170  -29.3042   22.3691 N   0  0  0  0  0  0
  -26.4295  -37.3787   23.9396 N   0  0  0  0  0  0
  -24.6784  -31.0643   22.0956 N   0  0  0  0  0  0
  -23.4186  -28.8175   23.3001 O   0  0  0  0  0  0
  -28.4341  -26.6466   20.1318 O   0  0  0  0  0  0
  -26.5638  -34.8909   22.4686 O   0  0  0  0  0  0
  -23.5340  -32.1462   23.7308 O   0  0  0  0  0  0
  -30.3353  -20.6770   20.6366 C   0  0  0  0  0  0
  -29.8050  -21.7977   19.9500 C   0  0  0  0  0  0
  -30.1318  -19.3909   20.0759 C   0  0  0  0  0  0
  -28.9427  -20.3878   18.3619 C   0  0  0  0  0  0
  -25.1973  -22.2882   15.5659 C   0  0  0  0  0  0
  -27.5911  -23.0495   15.8029 C   0  0  0  0  0  0
  -31.0990  -18.1032   22.1026 C   0  0  0  0  0  0
  -32.1797  -17.9618   19.8516 C   0  0  0  0  0  0
  -30.1807  -23.2501   20.2965 C   0  0  0  0  0  0
  -28.2666  -20.2338   17.0023 C   0  0  0  0  0  0
  -29.0528  -24.2618   20.7028 C   0  0  0  0  0  0
  -26.8491  -20.8602   16.9062 C   0  0  0  0  0  0
  -29.8891  -16.8442   20.2525 C   0  0  0  0  0  0
  -28.5828  -25.2903   19.6180 C   0  0  0  0  0  0
  -26.6595  -21.8253   15.7091 C   0  0  0  0  0  0
  -30.8209  -18.0756   20.5853 C   0  0  0  0  0  0
  -29.1112  -21.6270   18.8132 N   0  0  0  0  0  0
  -29.4340  -19.2856   18.9230 N   0  0  0  0  0  0
  -30.0030  -15.5348   20.9462 N   0  0  0  0  0  0
  -31.4713  -12.3304   19.1755 H   0  0  0  0  0  0
  -30.2708  -11.2855   19.8762 H   0  0  0  0  0  0
  -29.7458  -11.7531   17.4577 H   0  0  0  0  0  0
  -29.7094  -13.4697   17.7918 H   0  0  0  0  0  0
  -27.7960  -11.3196   18.7914 H   0  0  0  0  0  0
  -27.4020  -12.6707   17.7748 H   0  0  0  0  0  0
  -27.7025  -14.2592   19.5644 H   0  0  0  0  0  0
  -28.6782  -12.0037   21.3957 H   0  0  0  0  0  0
  -28.4870  -13.6661   21.8594 H   0  0  0  0  0  0
  -25.2757   -9.5723   22.4718 H   0  0  0  0  0  0
  -24.0069   -7.4643   22.7438 H   0  0  0  0  0  0
  -21.0884   -8.8724   19.8901 H   0  0  0  0  0  0
  -22.3725  -10.9622   19.6168 H   0  0  0  0  0  0
  -21.1963   -7.6166   23.9751 H   0  0  0  0  0  0
  -21.1478   -6.0547   25.9094 H   0  0  0  0  0  0
  -22.0581   -2.7627   23.2906 H   0  0  0  0  0  0
  -22.4260  -11.9783   22.4699 H   0  0  0  0  0  0
  -21.1191  -13.1110   22.2584 H   0  0  0  0  0  0
  -24.6623  -15.8416   20.5075 H   0  0  0  0  0  0
  -26.2910  -15.6305   20.1213 H   0  0  0  0  0  0
  -26.7137  -32.5489   23.1143 H   0  0  0  0  0  0
  -24.9926  -33.9819   25.0344 H   0  0  0  0  0  0
  -22.7096  -31.3025   21.3906 H   0  0  0  0  0  0
  -23.3758  -35.9640   23.3303 H   0  0  0  0  0  0
  -24.3585  -36.8970   22.2057 H   0  0  0  0  0  0
  -23.7231  -37.6515   23.6683 H   0  0  0  0  0  0
  -26.0742  -31.5593   20.6022 H   0  0  0  0  0  0
  -26.8315  -30.8519   22.0022 H   0  0  0  0  0  0
  -28.1074  -29.0221   21.1799 H   0  0  0  0  0  0
  -25.9971  -25.9518   18.9814 H   0  0  0  0  0  0
  -23.9810  -27.2979   19.0218 H   0  0  0  0  0  0
  -23.7333  -30.5781   19.3974 H   0  0  0  0  0  0
  -22.7511  -29.2245   19.8641 H   0  0  0  0  0  0
  -25.1268  -36.1984   25.0803 H   0  0  0  0  0  0
  -20.9973  -28.3236   24.1410 H   0  0  0  0  0  0
  -20.5656  -26.2269   23.3574 H   0  0  0  0  0  0
  -21.6630  -26.7421   22.1178 H   0  0  0  0  0  0
  -19.6916  -25.6278   21.1230 H   0  0  0  0  0  0
  -19.6704  -27.3180   20.6708 H   0  0  0  0  0  0
  -17.4171  -26.6662   21.4043 H   0  0  0  0  0  0
  -18.0389  -26.0066   22.9022 H   0  0  0  0  0  0
  -19.7949  -30.7238   24.2316 H   0  0  0  0  0  0
  -17.5028  -31.6272   24.5158 H   0  0  0  0  0  0
  -15.5368  -30.2985   23.7637 H   0  0  0  0  0  0
  -15.8681  -28.0827   22.7034 H   0  0  0  0  0  0
  -24.5764  -30.7228   25.7758 H   0  0  0  0  0  0
  -24.8817  -32.2980   26.4933 H   0  0  0  0  0  0
  -25.7852  -30.8931   27.0277 H   0  0  0  0  0  0
  -26.2885  -29.6898   24.1185 H   0  0  0  0  0  0
  -27.3869  -29.7321   25.4791 H   0  0  0  0  0  0
  -27.8777  -30.4411   23.9561 H   0  0  0  0  0  0
  -27.2709  -33.3713   26.2104 H   0  0  0  0  0  0
  -28.3811  -32.6939   25.0327 H   0  0  0  0  0  0
  -28.0725  -31.8525   26.5434 H   0  0  0  0  0  0
  -28.2538  -38.0133   24.7533 H   0  0  0  0  0  0
  -28.1129  -36.2669   24.6223 H   0  0  0  0  0  0
  -27.2311  -37.1384   25.8846 H   0  0  0  0  0  0
  -20.9332  -29.8874   21.7003 H   0  0  0  0  0  0
  -26.0204  -38.2862   24.1417 H   0  0  0  0  0  0
  -30.9484  -20.8152   21.5167 H   0  0  0  0  0  0
  -25.0768  -22.9191   14.6817 H   0  0  0  0  0  0
  -24.8654  -22.8695   16.4271 H   0  0  0  0  0  0
  -24.5135  -21.4454   15.4526 H   0  0  0  0  0  0
  -27.4420  -23.7299   14.9638 H   0  0  0  0  0  0
  -28.6432  -22.7667   15.7888 H   0  0  0  0  0  0
  -27.4183  -23.6112   16.7228 H   0  0  0  0  0  0
  -31.7136  -18.9530   22.3960 H   0  0  0  0  0  0
  -31.6437  -17.2077   22.4080 H   0  0  0  0  0  0
  -30.1711  -18.1407   22.6706 H   0  0  0  0  0  0
  -32.7549  -18.8857   19.9457 H   0  0  0  0  0  0
  -32.0415  -17.7759   18.7863 H   0  0  0  0  0  0
  -32.8053  -17.1635   20.2520 H   0  0  0  0  0  0
  -30.7419  -23.6520   19.4542 H   0  0  0  0  0  0
  -30.8994  -23.1998   21.1177 H   0  0  0  0  0  0
  -28.2006  -19.1750   16.7430 H   0  0  0  0  0  0
  -28.9446  -20.6457   16.2582 H   0  0  0  0  0  0
  -29.4833  -24.8621   21.5033 H   0  0  0  0  0  0
  -28.2091  -23.7404   21.1576 H   0  0  0  0  0  0
  -26.6066  -21.3818   17.8334 H   0  0  0  0  0  0
  -26.1238  -20.0483   16.8370 H   0  0  0  0  0  0
  -29.9022  -16.6675   19.1774 H   0  0  0  0  0  0
  -28.8670  -17.1525   20.4657 H   0  0  0  0  0  0
  -27.7164  -24.8814   19.1079 H   0  0  0  0  0  0
  -29.3443  -25.3626   18.8429 H   0  0  0  0  0  0
  -26.9102  -21.2805   14.7962 H   0  0  0  0  0  0
  -29.1556  -15.2635   21.4237 H   0  0  0  0  0  0
  1 25  1  0  0  0
  1 30  2  0  0  0
  1 89  1  0  0  0
  2  3  1  0  0  0
  2 25  1  0  0  0
  2 90  1  0  0  0
  2 91  1  0  0  0
  3  4  1  0  0  0
  3 92  1  0  0  0
  3 93  1  0  0  0
  4  5  1  0  0  0
  4 94  1  0  0  0
  4 95  1  0  0  0
  5  6  1  0  0  0
  5 26  1  0  0  0
  5 96  1  0  0  0
  6 25  1  0  0  0
  6 97  1  0  0  0
  6 98  1  0  0  0
  7  8  2  0  0  0
  7 26  1  0  0  0
  7 29  1  0  0  0
  8  9  1  0  0  0
  8 22  1  0  0  0
  9 10  1  0  0  0
  9 27  2  0  0  0
 10 11  2  0  0  0
 10 15  1  0  0  0
 11 12  1  0  0  0
 11 99  1  0  0  0
 12 13  2  0  0  0
 12100  1  0  0  0
 13 14  1  0  0  0
 13 31  1  0  0  0
 14 15  2  0  0  0
 14101  1  0  0  0
 15102  1  0  0  0
 16 17  2  0  0  0
 16 21  1  0  0  0
 16 31  1  0  0  0
 17 18  1  0  0  0
 17103  1  0  0  0
 18 19  2  0  0  0
 18104  1  0  0  0
 19 20  1  0  0  0
 19 24  1  0  0  0
 20 21  2  0  0  0
 20105  1  0  0  0
 21 23  1  0  0  0
 22 28  1  0  0  0
 22 32  2  0  0  0
 26 27  1  0  0  0
 28106  1  0  0  0
 28107  1  0  0  0
 29108  1  0  0  0
 29109  1  0  0  0
 33 34  1  0  0  0
 33 66  1  0  0  0
 33 70  2  0  0  0
 34 36  1  0  0  0
 34 59  1  0  0  0
 34110  1  0  0  0
 35 44  2  0  0  0
 35 45  1  0  0  0
 35 68  1  0  0  0
 36 56  1  0  0  0
 36111  1  0  0  0
 37 39  1  0  0  0
 37 47  1  0  0  0
 37 66  1  0  0  0
 37112  1  0  0  0
 38 43  2  0  0  0
 38 46  1  0  0  0
 38 47  1  0  0  0
 39 64  1  0  0  0
 39 67  2  0  0  0
 40 52  1  0  0  0
 40 53  2  0  0  0
 40 58  1  0  0  0
 41113  1  0  0  0
 41114  1  0  0  0
 41115  1  0  0  0
 41 48  1  0  0  0
 42 43  1  0  0  0
 42 66  1  0  0  0
 42116  1  0  0  0
 42117  1  0  0  0
 43 44  1  0  0  0
 44118  1  0  0  0
 45 46  2  0  0  0
 45119  1  0  0  0
 46120  1  0  0  0
 47121  1  0  0  0
 47122  1  0  0  0
 48 56  1  0  0  0
 48 65  1  0  0  0
 48123  1  0  0  0
 49 50  1  0  0  0
 49 53  1  0  0  0
 49 64  1  0  0  0
 49124  1  0  0  0
 50 51  1  0  0  0
 50125  1  0  0  0
 50126  1  0  0  0
 51 52  1  0  0  0
 51127  1  0  0  0
 51128  1  0  0  0
 52129  1  0  0  0
 52130  1  0  0  0
 53 54  1  0  0  0
 54 55  2  0  0  0
 54131  1  0  0  0
 55 57  1  0  0  0
 55132  1  0  0  0
 56 69  2  0  0  0
 57 58  2  0  0  0
 57133  1  0  0  0
 58134  1  0  0  0
 59 60  1  0  0  0
 59 61  1  0  0  0
 59 62  1  0  0  0
 60135  1  0  0  0
 60136  1  0  0  0
 60137  1  0  0  0
 61138  1  0  0  0
 61139  1  0  0  0
 61140  1  0  0  0
 62141  1  0  0  0
 62142  1  0  0  0
 62143  1  0  0  0
 63 65  1  0  0  0
 63144  1  0  0  0
 63145  1  0  0  0
 63146  1  0  0  0
 64147  1  0  0  0
 65148  1  0  0  0
 68 84  1  0  0  0
 71 72  2  0  0  0
 71 73  1  0  0  0
 71149  1  0  0  0
 72 79  1  0  0  0
 72 87  1  0  0  0
 73 86  1  0  0  0
 73 88  2  0  0  0
 74 80  1  0  0  0
 74 87  2  0  0  0
 74 88  1  0  0  0
 75150  1  0  0  0
 75151  1  0  0  0
 75152  1  0  0  0
 75 85  1  0  0  0
 76 85  1  0  0  0
 76153  1  0  0  0
 76154  1  0  0  0
 76155  1  0  0  0
 77156  1  0  0  0
 77157  1  0  0  0
 77158  1  0  0  0
 77 86  1  0  0  0
 78 86  1  0  0  0
 78159  1  0  0  0
 78160  1  0  0  0
 78161  1  0  0  0
 79 81  1  0  0  0
 79162  1  0  0  0
 79163  1  0  0  0
 80 82  1  0  0  0
 80164  1  0  0  0
 80165  1  0  0  0
 81 84  1  0  0  0
 81166  1  0  0  0
 81167  1  0  0  0
 82 85  1  0  0  0
 82168  1  0  0  0
 82169  1  0  0  0
 83 86  1  0  0  0
 83 89  1  0  0  0
 83170  1  0  0  0
 83171  1  0  0  0
 84172  1  0  0  0
 84173  1  0  0  0
 85174  1  0  0  0
 89175  1  0  0  0
M  ISO  4   1 100  68 101  84 101  89 100
M  END
> <chiral flag>
0

> <version>
0

> <s_m_source_file>
/data/baiqing/PycharmProjects/Reinvent-master-3.2/result/LINK_invent/BTK/process_docking_weight1_custom_sum_contain_oxygen_bond_distance_aromatic_linkinvent_7_9_3/rearranged_h_0093.sdf

> <i_m_source_file_index>
92

> <r_mmod_Potential_Energy-OPLS-2005>
-447.070465087891

> <r_mmod_Stretch_Energy-OPLS-2005>
55.2154426574707

> <r_mmod_Bend_Energy-OPLS-2005>
151.560089111328

> <r_mmod_Torsional_Energy-OPLS-2005>
243.454132080078

> <r_mmod_Improper_Torsional_Energy-OPLS-2005>
10.0909090042114

> <r_mmod_Van_der_Waal_Energy-OPLS-2005>
154.826019287109

> <r_mmod_Electrostatic_Energy-OPLS-2005>
-869.466247558594

> <r_mmod_Solvation_Energy-OPLS-2005>
-213.911926269531

> <b_mmod_Minimization_Converged-OPLS-2005>
0

> <r_mmod_RMS_Derivative-OPLS-2005>
5.89449596405029

$$$$
92
                    3D
 Structure written by MMmdl.
164172  0  0  1  0            999 V2000
  -30.6197  -14.7266   20.4674 C   0  0  0  0  0  0
  -30.4287  -12.4466   19.4682 C   0  0  0  0  0  0
  -29.5034  -12.4996   18.2335 C   0  0  0  0  0  0
  -28.0327  -12.3196   18.6537 C   0  0  0  0  0  0
  -27.6405  -13.2206   19.8539 C   0  0  2  0  0  0
  -28.6862  -13.1655   20.9884 C   0  0  0  0  0  0
  -25.2510  -13.7989   20.5724 C   0  0  0  0  0  0
  -24.1777  -13.0319   20.9217 C   0  0  0  0  0  0
  -24.6383  -11.6815   20.8775 C   0  0  0  0  0  0
  -23.9064  -10.4230   21.0426 C   0  0  0  0  0  0
  -24.3617   -9.4165   21.9214 C   0  0  0  0  0  0
  -23.6290   -8.2211   22.0782 C   0  0  0  0  0  0
  -22.4274   -8.0263   21.3559 C   0  0  0  0  0  0
  -21.9912   -9.0230   20.4654 C   0  0  0  0  0  0
  -22.7243  -10.2102   20.3071 C   0  0  0  0  0  0
  -21.6839   -6.0738   22.5285 C   0  0  0  0  0  0
  -21.3987   -6.5639   23.8217 C   0  0  0  0  0  0
  -21.3665   -5.6795   24.9185 C   0  0  0  0  0  0
  -21.6053   -4.3058   24.7226 C   0  0  0  0  0  0
  -21.8814   -3.8152   23.4345 C   0  0  0  0  0  0
  -21.9184   -4.6971   22.3403 C   0  0  0  0  0  0
  -22.7820  -13.5175   21.1863 C   0  0  0  0  0  0
  -22.1658   -4.2166   21.0977 F   0  0  0  0  0  0
  -21.5656   -3.4534   25.7736 F   0  0  0  0  0  0
  -29.9858  -13.5086   20.4006 N   0  0  0  0  0  0
  -26.2948  -12.9251   20.3337 N   0  0  0  0  0  0
  -25.9323  -11.6410   20.5805 N   0  0  0  0  0  0
  -22.0455  -12.8226   22.0446 N   0  0  0  0  0  0
  -25.4190  -15.1623   20.4138 N   0  0  0  0  0  0
  -31.8093  -14.8177   20.1522 O   0  0  0  0  0  0
  -21.6632   -6.8871   21.4245 O   0  0  0  0  0  0
  -22.3539  -14.5494   20.6698 O   0  0  0  0  0  0
  -24.6284  -31.8574   23.1984 C   0  0  0  0  0  0
  -25.9122  -32.4768   23.8321 C   0  0  1  0  0  0
  -27.2375  -27.3066   20.1351 C   0  0  0  0  0  0
  -25.5928  -33.8567   24.2257 N   0  0  0  0  0  0
  -23.4238  -30.4770   21.5403 C   0  0  2  0  0  0
  -24.8749  -28.9208   20.1157 C   0  0  0  0  0  0
  -22.7495  -29.4622   22.4941 C   0  0  0  0  0  0
  -18.0313  -28.1377   22.8468 C   0  0  0  0  0  0
  -24.1483  -36.7296   23.2637 C   0  0  0  0  0  0
  -25.9637  -30.7874   21.3669 C   0  0  0  0  0  0
  -26.0426  -29.4090   20.7179 C   0  0  0  0  0  0
  -27.2295  -28.6164   20.7100 C   0  0  0  0  0  0
  -26.0494  -26.8635   19.5201 C   0  0  0  0  0  0
  -24.8806  -27.6539   19.5057 C   0  0  0  0  0  0
  -23.6410  -29.8015   20.1586 C   0  0  0  0  0  0
  -25.4106  -36.3079   24.0331 C   0  0  1  0  0  0
  -20.5905  -28.3711   23.1308 C   0  0  2  0  0  0
  -20.6816  -26.9431   22.5459 C   0  0  0  0  0  0
  -19.5831  -26.6415   21.5225 C   0  0  0  0  0  0
  -18.1989  -26.7928   22.1596 C   0  0  0  0  0  0
  -19.1547  -28.8859   23.2884 C   0  0  0  0  0  0
  -18.9442  -30.1462   23.8893 C   0  0  0  0  0  0
  -17.6430  -30.6571   24.0538 C   0  0  0  0  0  0
  -25.9042  -34.9448   23.5094 C   0  0  0  0  0  0
  -16.5345  -29.9045   23.6294 C   0  0  0  0  0  0
  -16.7295  -28.6469   23.0316 C   0  0  0  0  0  0
  -26.4503  -31.6585   25.0694 C   0  0  0  0  0  0
  -25.3734  -31.3729   26.1421 C   0  0  0  0  0  0
  -27.0339  -30.3008   24.6142 C   0  0  0  0  0  0
  -27.6061  -32.4319   25.7474 C   0  0  0  0  0  0
  -27.5578  -37.1798   24.8466 C   0  0  0  0  0  0
  -21.4206  -29.3077   22.3717 N   0  0  0  0  0  0
  -26.4287  -37.3770   23.9410 N   0  0  0  0  0  0
  -24.6910  -31.0576   22.0927 N   0  0  0  0  0  0
  -23.4219  -28.8162   23.3020 O   0  0  0  0  0  0
  -28.3650  -26.4708   20.1147 O   0  0  0  0  0  0
  -26.5613  -34.8931   22.4664 O   0  0  0  0  0  0
  -23.5441  -32.1382   23.7299 O   0  0  0  0  0  0
  -29.7900  -19.9267   20.6523 C   0  0  0  0  0  0
  -28.8518  -21.0257   20.6487 C   0  0  0  0  0  0
  -27.4917  -20.6454   20.5396 C   0  0  0  0  0  0
  -29.3762  -18.5465   20.5489 C   0  0  0  0  0  0
  -27.1634  -19.2757   20.3394 C   0  0  0  0  0  0
  -26.3817  -21.6851   20.7073 C   0  0  0  0  0  0
  -25.1755  -18.1790   21.4306 C   0  0  0  0  0  0
  -25.5309  -17.9924   18.8681 C   0  0  0  0  0  0
  -29.2519  -22.5370   20.9325 C   0  0  0  0  0  0
  -30.3660  -17.3063   20.6121 C   0  0  0  0  0  0
  -28.7447  -23.7838   20.0354 C   0  0  0  0  0  0
  -28.3007  -25.1420   20.7801 C   0  0  0  0  0  0
  -25.7153  -18.8242   20.1467 C   0  0  0  0  0  0
  -28.0710  -18.2629   20.3751 N   0  0  0  0  0  0
  -29.8718  -15.8675   20.6835 N   0  0  0  0  0  0
  -31.4689  -12.5682   19.1619 H   0  0  0  0  0  0
  -30.3727  -11.4707   19.9518 H   0  0  0  0  0  0
  -29.7845  -11.7274   17.5161 H   0  0  0  0  0  0
  -29.6249  -13.4546   17.7185 H   0  0  0  0  0  0
  -27.8952  -11.2714   18.9214 H   0  0  0  0  0  0
  -27.3693  -12.5066   17.8096 H   0  0  0  0  0  0
  -27.6302  -14.2406   19.4698 H   0  0  0  0  0  0
  -28.7209  -12.1760   21.4460 H   0  0  0  0  0  0
  -28.4223  -13.8622   21.7858 H   0  0  0  0  0  0
  -25.2749   -9.5664   22.4806 H   0  0  0  0  0  0
  -24.0003   -7.4604   22.7511 H   0  0  0  0  0  0
  -21.0848   -8.8748   19.8944 H   0  0  0  0  0  0
  -22.3712  -10.9662   19.6196 H   0  0  0  0  0  0
  -21.1952   -7.6142   23.9723 H   0  0  0  0  0  0
  -21.1504   -6.0526   25.9095 H   0  0  0  0  0  0
  -22.0587   -2.7616   23.2833 H   0  0  0  0  0  0
  -22.4052  -11.9892   22.4850 H   0  0  0  0  0  0
  -21.1108  -13.1325   22.2694 H   0  0  0  0  0  0
  -24.6496  -15.8107   20.5250 H   0  0  0  0  0  0
  -26.2795  -15.6176   20.1391 H   0  0  0  0  0  0
  -26.7198  -32.5432   23.1078 H   0  0  0  0  0  0
  -25.0072  -33.9695   25.0401 H   0  0  0  0  0  0
  -22.7186  -31.2972   21.3910 H   0  0  0  0  0  0
  -23.3740  -35.9634   23.3293 H   0  0  0  0  0  0
  -24.3579  -36.8915   22.2052 H   0  0  0  0  0  0
  -23.7242  -37.6499   23.6663 H   0  0  0  0  0  0
  -26.0865  -31.5451   20.5911 H   0  0  0  0  0  0
  -26.8475  -30.8449   21.9918 H   0  0  0  0  0  0
  -28.1319  -28.9927   21.1724 H   0  0  0  0  0  0
  -26.0256  -25.8896   19.0520 H   0  0  0  0  0  0
  -23.9880  -27.2738   19.0281 H   0  0  0  0  0  0
  -23.7626  -30.5728   19.3969 H   0  0  0  0  0  0
  -22.7614  -29.2289   19.8581 H   0  0  0  0  0  0
  -25.1284  -36.1920   25.0821 H   0  0  0  0  0  0
  -20.9981  -28.3298   24.1434 H   0  0  0  0  0  0
  -20.5675  -26.2336   23.3668 H   0  0  0  0  0  0
  -21.6696  -26.7435   22.1296 H   0  0  0  0  0  0
  -19.7032  -25.6354   21.1195 H   0  0  0  0  0  0
  -19.6802  -27.3286   20.6807 H   0  0  0  0  0  0
  -17.4296  -26.6682   21.3960 H   0  0  0  0  0  0
  -18.0364  -26.0070   22.8983 H   0  0  0  0  0  0
  -19.7892  -30.7300   24.2275 H   0  0  0  0  0  0
  -17.4953  -31.6239   24.5144 H   0  0  0  0  0  0
  -15.5335  -30.2916   23.7601 H   0  0  0  0  0  0
  -15.8723  -28.0767   22.7003 H   0  0  0  0  0  0
  -24.5906  -30.7084   25.7744 H   0  0  0  0  0  0
  -24.8934  -32.2895   26.4854 H   0  0  0  0  0  0
  -25.8057  -30.8896   27.0188 H   0  0  0  0  0  0
  -26.2900  -29.6759   24.1184 H   0  0  0  0  0  0
  -27.4052  -29.7273   25.4645 H   0  0  0  0  0  0
  -27.8766  -30.4294   23.9348 H   0  0  0  0  0  0
  -27.2670  -33.3614   26.2065 H   0  0  0  0  0  0
  -28.3874  -32.6882   25.0305 H   0  0  0  0  0  0
  -28.0729  -31.8427   26.5380 H   0  0  0  0  0  0
  -28.2591  -38.0097   24.7504 H   0  0  0  0  0  0
  -28.1075  -36.2627   24.6293 H   0  0  0  0  0  0
  -27.2302  -37.1447   25.8871 H   0  0  0  0  0  0
  -20.9392  -29.8836   21.6957 H   0  0  0  0  0  0
  -26.0168  -38.2845   24.1400 H   0  0  0  0  0  0
  -30.8428  -20.1398   20.7819 H   0  0  0  0  0  0
  -26.6972  -22.5619   21.2664 H   0  0  0  0  0  0
  -25.5494  -21.2905   21.2884 H   0  0  0  0  0  0
  -26.0050  -22.0094   19.7367 H   0  0  0  0  0  0
  -25.1558  -18.9092   22.2400 H   0  0  0  0  0  0
  -25.8122  -17.3617   21.7648 H   0  0  0  0  0  0
  -24.1622  -17.8011   21.2979 H   0  0  0  0  0  0
  -25.7817  -18.5875   17.9900 H   0  0  0  0  0  0
  -24.4976  -17.6624   18.7580 H   0  0  0  0  0  0
  -26.1735  -17.1152   18.8485 H   0  0  0  0  0  0
  -30.3402  -22.5834   20.9777 H   0  0  0  0  0  0
  -28.9382  -22.7248   21.9600 H   0  0  0  0  0  0
  -31.0190  -17.4616   21.4722 H   0  0  0  0  0  0
  -31.0140  -17.3897   19.7385 H   0  0  0  0  0  0
  -27.9197  -23.4696   19.3978 H   0  0  0  0  0  0
  -29.5461  -24.0195   19.3353 H   0  0  0  0  0  0
  -28.9486  -25.2492   21.6502 H   0  0  0  0  0  0
  -27.3053  -24.9923   21.2021 H   0  0  0  0  0  0
  -25.0790  -19.6837   19.9562 H   0  0  0  0  0  0
  -28.8842  -15.7629   20.8616 H   0  0  0  0  0  0
  1 25  1  0  0  0
  1 30  2  0  0  0
  1 85  1  0  0  0
  2  3  1  0  0  0
  2 25  1  0  0  0
  2 86  1  0  0  0
  2 87  1  0  0  0
  3  4  1  0  0  0
  3 88  1  0  0  0
  3 89  1  0  0  0
  4  5  1  0  0  0
  4 90  1  0  0  0
  4 91  1  0  0  0
  5  6  1  0  0  0
  5 26  1  0  0  0
  5 92  1  0  0  0
  6 25  1  0  0  0
  6 93  1  0  0  0
  6 94  1  0  0  0
  7  8  2  0  0  0
  7 26  1  0  0  0
  7 29  1  0  0  0
  8  9  1  0  0  0
  8 22  1  0  0  0
  9 10  1  0  0  0
  9 27  2  0  0  0
 10 11  2  0  0  0
 10 15  1  0  0  0
 11 12  1  0  0  0
 11 95  1  0  0  0
 12 13  2  0  0  0
 12 96  1  0  0  0
 13 14  1  0  0  0
 13 31  1  0  0  0
 14 15  2  0  0  0
 14 97  1  0  0  0
 15 98  1  0  0  0
 16 17  2  0  0  0
 16 21  1  0  0  0
 16 31  1  0  0  0
 17 18  1  0  0  0
 17 99  1  0  0  0
 18 19  2  0  0  0
 18100  1  0  0  0
 19 20  1  0  0  0
 19 24  1  0  0  0
 20 21  2  0  0  0
 20101  1  0  0  0
 21 23  1  0  0  0
 22 28  1  0  0  0
 22 32  2  0  0  0
 26 27  1  0  0  0
 28102  1  0  0  0
 28103  1  0  0  0
 29104  1  0  0  0
 29105  1  0  0  0
 33 34  1  0  0  0
 33 66  1  0  0  0
 33 70  2  0  0  0
 34 36  1  0  0  0
 34 59  1  0  0  0
 34106  1  0  0  0
 35 44  2  0  0  0
 35 45  1  0  0  0
 35 68  1  0  0  0
 36 56  1  0  0  0
 36107  1  0  0  0
 37 39  1  0  0  0
 37 47  1  0  0  0
 37 66  1  0  0  0
 37108  1  0  0  0
 38 43  2  0  0  0
 38 46  1  0  0  0
 38 47  1  0  0  0
 39 64  1  0  0  0
 39 67  2  0  0  0
 40 52  1  0  0  0
 40 53  2  0  0  0
 40 58  1  0  0  0
 41109  1  0  0  0
 41110  1  0  0  0
 41111  1  0  0  0
 41 48  1  0  0  0
 42 43  1  0  0  0
 42 66  1  0  0  0
 42112  1  0  0  0
 42113  1  0  0  0
 43 44  1  0  0  0
 44114  1  0  0  0
 45 46  2  0  0  0
 45115  1  0  0  0
 46116  1  0  0  0
 47117  1  0  0  0
 47118  1  0  0  0
 48 56  1  0  0  0
 48 65  1  0  0  0
 48119  1  0  0  0
 49 50  1  0  0  0
 49 53  1  0  0  0
 49 64  1  0  0  0
 49120  1  0  0  0
 50 51  1  0  0  0
 50121  1  0  0  0
 50122  1  0  0  0
 51 52  1  0  0  0
 51123  1  0  0  0
 51124  1  0  0  0
 52125  1  0  0  0
 52126  1  0  0  0
 53 54  1  0  0  0
 54 55  2  0  0  0
 54127  1  0  0  0
 55 57  1  0  0  0
 55128  1  0  0  0
 56 69  2  0  0  0
 57 58  2  0  0  0
 57129  1  0  0  0
 58130  1  0  0  0
 59 60  1  0  0  0
 59 61  1  0  0  0
 59 62  1  0  0  0
 60131  1  0  0  0
 60132  1  0  0  0
 60133  1  0  0  0
 61134  1  0  0  0
 61135  1  0  0  0
 61136  1  0  0  0
 62137  1  0  0  0
 62138  1  0  0  0
 62139  1  0  0  0
 63 65  1  0  0  0
 63140  1  0  0  0
 63141  1  0  0  0
 63142  1  0  0  0
 64143  1  0  0  0
 65144  1  0  0  0
 68 82  1  0  0  0
 71 72  2  0  0  0
 71 74  1  0  0  0
 71145  1  0  0  0
 72 73  1  0  0  0
 72 79  1  0  0  0
 73 75  2  0  0  0
 73 76  1  0  0  0
 74 80  1  0  0  0
 74 84  2  0  0  0
 75 83  1  0  0  0
 75 84  1  0  0  0
 76146  1  0  0  0
 76147  1  0  0  0
 76148  1  0  0  0
 77149  1  0  0  0
 77150  1  0  0  0
 77151  1  0  0  0
 77 83  1  0  0  0
 78 83  1  0  0  0
 78152  1  0  0  0
 78153  1  0  0  0
 78154  1  0  0  0
 79 81  1  0  0  0
 79155  1  0  0  0
 79156  1  0  0  0
 80 85  1  0  0  0
 80157  1  0  0  0
 80158  1  0  0  0
 81 82  1  0  0  0
 81159  1  0  0  0
 81160  1  0  0  0
 82161  1  0  0  0
 82162  1  0  0  0
 83163  1  0  0  0
 85164  1  0  0  0
M  ISO  4   1 100  68 101  82 101  85 100
M  END
> <chiral flag>
0

> <version>
0

> <s_m_source_file>
/data/baiqing/PycharmProjects/Reinvent-master-3.2/result/LINK_invent/BTK/process_docking_weight1_custom_sum_contain_oxygen_bond_distance_aromatic_linkinvent_7_9_3/rearranged_h_0093.sdf

> <i_m_source_file_index>
93

> <r_mmod_Potential_Energy-OPLS-2005>
-196.268905639648

> <r_mmod_Stretch_Energy-OPLS-2005>
102.512519836426

> <r_mmod_Bend_Energy-OPLS-2005>
156.209182739258

> <r_mmod_Torsional_Energy-OPLS-2005>
224.199798583984

> <r_mmod_Improper_Torsional_Energy-OPLS-2005>
5.27252721786499

> <r_mmod_Van_der_Waal_Energy-OPLS-2005>
144.412246704102

> <r_mmod_Electrostatic_Energy-OPLS-2005>
-695.85302734375

> <r_mmod_Solvation_Energy-OPLS-2005>
-200.929473876953

> <b_mmod_Minimization_Converged-OPLS-2005>
0

> <r_mmod_RMS_Derivative-OPLS-2005>
1.82378077507019

$$$$
93
                    3D
 Structure written by MMmdl.
172180  0  0  1  0            999 V2000
  -30.6122  -14.7303   20.4621 C   0  0  0  0  0  0
  -30.4304  -12.4491   19.4705 C   0  0  0  0  0  0
  -29.5061  -12.5006   18.2363 C   0  0  0  0  0  0
  -28.0292  -12.3367   18.6457 C   0  0  0  0  0  0
  -27.6399  -13.2314   19.8533 C   0  0  2  0  0  0
  -28.6850  -13.1574   20.9867 C   0  0  0  0  0  0
  -25.2510  -13.8196   20.5721 C   0  0  0  0  0  0
  -24.1803  -13.0445   20.9230 C   0  0  0  0  0  0
  -24.6377  -11.6917   20.8746 C   0  0  0  0  0  0
  -23.9050  -10.4300   21.0400 C   0  0  0  0  0  0
  -24.3607   -9.4224   21.9181 C   0  0  0  0  0  0
  -23.6301   -8.2254   22.0740 C   0  0  0  0  0  0
  -22.4289   -8.0276   21.3529 C   0  0  0  0  0  0
  -21.9909   -9.0242   20.4640 C   0  0  0  0  0  0
  -22.7222  -10.2132   20.3057 C   0  0  0  0  0  0
  -21.6854   -6.0738   22.5276 C   0  0  0  0  0  0
  -21.4005   -6.5641   23.8207 C   0  0  0  0  0  0
  -21.3671   -5.6792   24.9169 C   0  0  0  0  0  0
  -21.6054   -4.3059   24.7227 C   0  0  0  0  0  0
  -21.8824   -3.8149   23.4345 C   0  0  0  0  0  0
  -21.9197   -4.6963   22.3399 C   0  0  0  0  0  0
  -22.7829  -13.5220   21.1890 C   0  0  0  0  0  0
  -22.1666   -4.2148   21.0978 F   0  0  0  0  0  0
  -21.5643   -3.4539   25.7738 F   0  0  0  0  0  0
  -29.9840  -13.5085   20.4023 N   0  0  0  0  0  0
  -26.2922  -12.9396   20.3304 N   0  0  0  0  0  0
  -25.9314  -11.6539   20.5762 N   0  0  0  0  0  0
  -22.0476  -12.8194   22.0439 N   0  0  0  0  0  0
  -25.4209  -15.1919   20.4134 N   0  0  0  0  0  0
  -31.8033  -14.8266   20.1583 O   0  0  0  0  0  0
  -21.6653   -6.8876   21.4233 O   0  0  0  0  0  0
  -22.3519  -14.5524   20.6739 O   0  0  0  0  0  0
  -24.6311  -31.8571   23.2018 C   0  0  0  0  0  0
  -25.9145  -32.4756   23.8355 C   0  0  1  0  0  0
  -27.1950  -27.2530   20.1315 C   0  0  0  0  0  0
  -25.5939  -33.8560   24.2270 N   0  0  0  0  0  0
  -23.4236  -30.4843   21.5457 C   0  0  2  0  0  0
  -24.8625  -28.9345   20.1057 C   0  0  0  0  0  0
  -22.7485  -29.4632   22.4934 C   0  0  0  0  0  0
  -18.0287  -28.1394   22.8484 C   0  0  0  0  0  0
  -24.1481  -36.7295   23.2641 C   0  0  0  0  0  0
  -25.9695  -30.7667   21.3814 C   0  0  0  0  0  0
  -26.0339  -29.3896   20.7228 C   0  0  0  0  0  0
  -27.1989  -28.5578   20.7309 C   0  0  0  0  0  0
  -26.0054  -26.8787   19.4623 C   0  0  0  0  0  0
  -24.8541  -27.6872   19.4669 C   0  0  0  0  0  0
  -23.6358  -29.8235   20.1582 C   0  0  0  0  0  0
  -25.4106  -36.3068   24.0326 C   0  0  1  0  0  0
  -20.5887  -28.3702   23.1274 C   0  0  2  0  0  0
  -20.6769  -26.9422   22.5408 C   0  0  0  0  0  0
  -19.5748  -26.6386   21.5208 C   0  0  0  0  0  0
  -18.1932  -26.7945   22.1620 C   0  0  0  0  0  0
  -19.1542  -28.8862   23.2882 C   0  0  0  0  0  0
  -18.9464  -30.1463   23.8906 C   0  0  0  0  0  0
  -17.6465  -30.6596   24.0563 C   0  0  0  0  0  0
  -25.9054  -34.9436   23.5101 C   0  0  0  0  0  0
  -16.5357  -29.9097   23.6337 C   0  0  0  0  0  0
  -16.7273  -28.6510   23.0365 C   0  0  0  0  0  0
  -26.4500  -31.6595   25.0756 C   0  0  0  0  0  0
  -25.3697  -31.3771   26.1460 C   0  0  0  0  0  0
  -27.0358  -30.3007   24.6262 C   0  0  0  0  0  0
  -27.6059  -32.4326   25.7536 C   0  0  0  0  0  0
  -27.5576  -37.1799   24.8459 C   0  0  0  0  0  0
  -21.4198  -29.3054   22.3665 N   0  0  0  0  0  0
  -26.4281  -37.3767   23.9409 N   0  0  0  0  0  0
  -24.6942  -31.0532   22.0993 N   0  0  0  0  0  0
  -23.4198  -28.8173   23.3022 O   0  0  0  0  0  0
  -28.2894  -26.3616   20.2342 O   0  0  0  0  0  0
  -26.5627  -34.8909   22.4673 O   0  0  0  0  0  0
  -23.5464  -32.1415   23.7314 O   0  0  0  0  0  0
  -29.3094  -21.7267   22.9725 C   0  0  0  0  0  0
  -29.1990  -21.1474   21.6793 C   0  0  0  0  0  0
  -29.4621  -20.9502   24.1339 C   0  0  0  0  0  0
  -29.3557  -19.6786   21.6472 C   0  0  0  0  0  0
  -29.5579  -19.5643   23.9957 C   0  0  0  0  0  0
  -29.4906  -21.6152   25.5030 C   0  0  0  0  0  0
  -29.8894  -16.5394   26.2011 C   0  0  0  0  0  0
  -31.8190  -17.4630   24.8373 C   0  0  0  0  0  0
  -28.7332  -24.7916   18.4490 C   0  0  0  0  0  0
  -28.8628  -22.1881   20.5157 C   0  0  0  0  0  0
  -29.2909  -18.6024   20.4939 C   0  0  0  0  0  0
  -28.8224  -23.7941   20.8559 C   0  0  0  0  0  0
  -30.3156  -17.3276   20.5733 C   0  0  0  0  0  0
  -30.2911  -17.4013   24.9964 C   0  0  0  0  0  0
  -28.1803  -24.9018   19.8752 C   0  0  1  0  0  0
  -29.4921  -18.9806   22.7964 N   0  0  0  0  0  0
  -29.7154  -18.7406   25.1158 N   0  0  0  0  0  0
  -29.8463  -15.8705   20.6494 N   0  0  0  0  0  0
  -31.4683  -12.5846   19.1590 H   0  0  0  0  0  0
  -30.3879  -11.4735   19.9550 H   0  0  0  0  0  0
  -29.7840  -11.7197   17.5279 H   0  0  0  0  0  0
  -29.6418  -13.4498   17.7146 H   0  0  0  0  0  0
  -27.8735  -11.2862   18.8973 H   0  0  0  0  0  0
  -27.3765  -12.5461   17.7976 H   0  0  0  0  0  0
  -27.6357  -14.2566   19.4822 H   0  0  0  0  0  0
  -28.7199  -12.1575   21.4218 H   0  0  0  0  0  0
  -28.4208  -13.8355   21.8014 H   0  0  0  0  0  0
  -25.2739   -9.5713   22.4765 H   0  0  0  0  0  0
  -24.0025   -7.4648   22.7444 H   0  0  0  0  0  0
  -21.0859   -8.8741   19.8936 H   0  0  0  0  0  0
  -22.3660  -10.9670   19.6185 H   0  0  0  0  0  0
  -21.1963   -7.6144   23.9702 H   0  0  0  0  0  0
  -21.1501   -6.0524   25.9075 H   0  0  0  0  0  0
  -22.0586   -2.7614   23.2836 H   0  0  0  0  0  0
  -22.4113  -11.9846   22.4803 H   0  0  0  0  0  0
  -21.1088  -13.1192   22.2638 H   0  0  0  0  0  0
  -24.6533  -15.8428   20.5302 H   0  0  0  0  0  0
  -26.2650  -15.6337   20.0711 H   0  0  0  0  0  0
  -26.7215  -32.5386   23.1098 H   0  0  0  0  0  0
  -25.0027  -33.9699   25.0373 H   0  0  0  0  0  0
  -22.7219  -31.3097   21.4065 H   0  0  0  0  0  0
  -23.3736  -35.9633   23.3290 H   0  0  0  0  0  0
  -24.3580  -36.8936   22.2059 H   0  0  0  0  0  0
  -23.7235  -37.6493   23.6682 H   0  0  0  0  0  0
  -26.1031  -31.5276   20.6109 H   0  0  0  0  0  0
  -26.8510  -30.8183   22.0094 H   0  0  0  0  0  0
  -28.0895  -28.8918   21.2437 H   0  0  0  0  0  0
  -25.9173  -25.9413   18.9358 H   0  0  0  0  0  0
  -23.9558  -27.3390   18.9746 H   0  0  0  0  0  0
  -23.7572  -30.6044   19.4070 H   0  0  0  0  0  0
  -22.7511  -29.2604   19.8531 H   0  0  0  0  0  0
  -25.1283  -36.1921   25.0818 H   0  0  0  0  0  0
  -20.9984  -28.3267   24.1395 H   0  0  0  0  0  0
  -20.5651  -26.2315   23.3613 H   0  0  0  0  0  0
  -21.6638  -26.7437   22.1210 H   0  0  0  0  0  0
  -19.6908  -25.6287   21.1262 H   0  0  0  0  0  0
  -19.6696  -27.3170   20.6718 H   0  0  0  0  0  0
  -17.4200  -26.6693   21.4028 H   0  0  0  0  0  0
  -18.0336  -26.0088   22.9015 H   0  0  0  0  0  0
  -19.7939  -30.7273   24.2289 H   0  0  0  0  0  0
  -17.5021  -31.6286   24.5150 H   0  0  0  0  0  0
  -15.5357  -30.2999   23.7660 H   0  0  0  0  0  0
  -15.8675  -28.0820   22.7106 H   0  0  0  0  0  0
  -24.5851  -30.7151   25.7783 H   0  0  0  0  0  0
  -24.8903  -32.2949   26.4869 H   0  0  0  0  0  0
  -25.7964  -30.8945   27.0258 H   0  0  0  0  0  0
  -26.2962  -29.6752   24.1239 H   0  0  0  0  0  0
  -27.3985  -29.7276   25.4813 H   0  0  0  0  0  0
  -27.8867  -30.4290   23.9561 H   0  0  0  0  0  0
  -27.2677  -33.3626   26.2121 H   0  0  0  0  0  0
  -28.3876  -32.6883   25.0370 H   0  0  0  0  0  0
  -28.0722  -31.8437   26.5444 H   0  0  0  0  0  0
  -28.2578  -38.0108   24.7501 H   0  0  0  0  0  0
  -28.1084  -36.2637   24.6276 H   0  0  0  0  0  0
  -27.2307  -37.1434   25.8866 H   0  0  0  0  0  0
  -20.9385  -29.8773   21.6869 H   0  0  0  0  0  0
  -26.0162  -38.2847   24.1399 H   0  0  0  0  0  0
  -29.2497  -22.7892   23.1272 H   0  0  0  0  0  0
  -29.3808  -22.6967   25.4291 H   0  0  0  0  0  0
  -30.4289  -21.4072   26.0181 H   0  0  0  0  0  0
  -28.6693  -21.2448   26.1183 H   0  0  0  0  0  0
  -28.8072  -16.4132   26.2490 H   0  0  0  0  0  0
  -30.2202  -16.9752   27.1448 H   0  0  0  0  0  0
  -30.3254  -15.5418   26.1324 H   0  0  0  0  0  0
  -32.2450  -16.4612   24.7638 H   0  0  0  0  0  0
  -32.2961  -17.9696   25.6776 H   0  0  0  0  0  0
  -32.0993  -17.9943   23.9272 H   0  0  0  0  0  0
  -28.7125  -23.7658   18.0829 H   0  0  0  0  0  0
  -29.7642  -25.1406   18.4027 H   0  0  0  0  0  0
  -28.1494  -25.3981   17.7566 H   0  0  0  0  0  0
  -27.8867  -21.9051   20.1213 H   0  0  0  0  0  0
  -29.5697  -22.0159   19.7036 H   0  0  0  0  0  0
  -29.4674  -19.1307   19.5567 H   0  0  0  0  0  0
  -28.2631  -18.2408   20.4284 H   0  0  0  0  0  0
  -29.8288  -24.1166   21.1227 H   0  0  0  0  0  0
  -28.2205  -23.9212   21.7549 H   0  0  0  0  0  0
  -31.0299  -17.4879   21.3825 H   0  0  0  0  0  0
  -30.9347  -17.3879   19.6779 H   0  0  0  0  0  0
  -29.8808  -16.9125   24.1111 H   0  0  0  0  0  0
  -27.1368  -24.5969   19.8511 H   0  0  0  0  0  0
  -29.7867  -19.2011   26.0150 H   0  0  0  0  0  0
  -28.8673  -15.7193   20.8424 H   0  0  0  0  0  0
  1 25  1  0  0  0
  1 30  2  0  0  0
  1 88  1  0  0  0
  2  3  1  0  0  0
  2 25  1  0  0  0
  2 89  1  0  0  0
  2 90  1  0  0  0
  3  4  1  0  0  0
  3 91  1  0  0  0
  3 92  1  0  0  0
  4  5  1  0  0  0
  4 93  1  0  0  0
  4 94  1  0  0  0
  5  6  1  0  0  0
  5 26  1  0  0  0
  5 95  1  0  0  0
  6 25  1  0  0  0
  6 96  1  0  0  0
  6 97  1  0  0  0
  7  8  2  0  0  0
  7 26  1  0  0  0
  7 29  1  0  0  0
  8  9  1  0  0  0
  8 22  1  0  0  0
  9 10  1  0  0  0
  9 27  2  0  0  0
 10 11  2  0  0  0
 10 15  1  0  0  0
 11 12  1  0  0  0
 11 98  1  0  0  0
 12 13  2  0  0  0
 12 99  1  0  0  0
 13 14  1  0  0  0
 13 31  1  0  0  0
 14 15  2  0  0  0
 14100  1  0  0  0
 15101  1  0  0  0
 16 17  2  0  0  0
 16 21  1  0  0  0
 16 31  1  0  0  0
 17 18  1  0  0  0
 17102  1  0  0  0
 18 19  2  0  0  0
 18103  1  0  0  0
 19 20  1  0  0  0
 19 24  1  0  0  0
 20 21  2  0  0  0
 20104  1  0  0  0
 21 23  1  0  0  0
 22 28  1  0  0  0
 22 32  2  0  0  0
 26 27  1  0  0  0
 28105  1  0  0  0
 28106  1  0  0  0
 29107  1  0  0  0
 29108  1  0  0  0
 33 34  1  0  0  0
 33 66  1  0  0  0
 33 70  2  0  0  0
 34 36  1  0  0  0
 34 59  1  0  0  0
 34109  1  0  0  0
 35 44  2  0  0  0
 35 45  1  0  0  0
 35 68  1  0  0  0
 36 56  1  0  0  0
 36110  1  0  0  0
 37 39  1  0  0  0
 37 47  1  0  0  0
 37 66  1  0  0  0
 37111  1  0  0  0
 38 43  2  0  0  0
 38 46  1  0  0  0
 38 47  1  0  0  0
 39 64  1  0  0  0
 39 67  2  0  0  0
 40 52  1  0  0  0
 40 53  2  0  0  0
 40 58  1  0  0  0
 41112  1  0  0  0
 41113  1  0  0  0
 41114  1  0  0  0
 41 48  1  0  0  0
 42 43  1  0  0  0
 42 66  1  0  0  0
 42115  1  0  0  0
 42116  1  0  0  0
 43 44  1  0  0  0
 44117  1  0  0  0
 45 46  2  0  0  0
 45118  1  0  0  0
 46119  1  0  0  0
 47120  1  0  0  0
 47121  1  0  0  0
 48 56  1  0  0  0
 48 65  1  0  0  0
 48122  1  0  0  0
 49 50  1  0  0  0
 49 53  1  0  0  0
 49 64  1  0  0  0
 49123  1  0  0  0
 50 51  1  0  0  0
 50124  1  0  0  0
 50125  1  0  0  0
 51 52  1  0  0  0
 51126  1  0  0  0
 51127  1  0  0  0
 52128  1  0  0  0
 52129  1  0  0  0
 53 54  1  0  0  0
 54 55  2  0  0  0
 54130  1  0  0  0
 55 57  1  0  0  0
 55131  1  0  0  0
 56 69  2  0  0  0
 57 58  2  0  0  0
 57132  1  0  0  0
 58133  1  0  0  0
 59 60  1  0  0  0
 59 61  1  0  0  0
 59 62  1  0  0  0
 60134  1  0  0  0
 60135  1  0  0  0
 60136  1  0  0  0
 61137  1  0  0  0
 61138  1  0  0  0
 61139  1  0  0  0
 62140  1  0  0  0
 62141  1  0  0  0
 62142  1  0  0  0
 63 65  1  0  0  0
 63143  1  0  0  0
 63144  1  0  0  0
 63145  1  0  0  0
 64146  1  0  0  0
 65147  1  0  0  0
 68 85  1  0  0  0
 71 72  2  0  0  0
 71 73  1  0  0  0
 71148  1  0  0  0
 72 74  1  0  0  0
 72 80  1  0  0  0
 73 75  2  0  0  0
 73 76  1  0  0  0
 74 81  1  0  0  0
 74 86  2  0  0  0
 75 86  1  0  0  0
 75 87  1  0  0  0
 76149  1  0  0  0
 76150  1  0  0  0
 76151  1  0  0  0
 77152  1  0  0  0
 77153  1  0  0  0
 77154  1  0  0  0
 77 84  1  0  0  0
 78 84  1  0  0  0
 78155  1  0  0  0
 78156  1  0  0  0
 78157  1  0  0  0
 79158  1  0  0  0
 79159  1  0  0  0
 79160  1  0  0  0
 79 85  1  0  0  0
 80 82  1  0  0  0
 80161  1  0  0  0
 80162  1  0  0  0
 81 83  1  0  0  0
 81163  1  0  0  0
 81164  1  0  0  0
 82 85  1  0  0  0
 82165  1  0  0  0
 82166  1  0  0  0
 83 88  1  0  0  0
 83167  1  0  0  0
 83168  1  0  0  0
 84 87  1  0  0  0
 84169  1  0  0  0
 85170  1  0  0  0
 87171  1  0  0  0
 88172  1  0  0  0
M  ISO  4   1 100  68 101  85 101  88 100
M  END
> <chiral flag>
0

> <version>
0

> <s_m_source_file>
/data/baiqing/PycharmProjects/Reinvent-master-3.2/result/LINK_invent/BTK/process_docking_weight1_custom_sum_contain_oxygen_bond_distance_aromatic_linkinvent_7_9_3/rearranged_h_0093.sdf

> <i_m_source_file_index>
94

> <r_mmod_Potential_Energy-OPLS-2005>
-8.63764190673828

> <r_mmod_Stretch_Energy-OPLS-2005>
135.229675292969

> <r_mmod_Bend_Energy-OPLS-2005>
215.744201660156

> <r_mmod_Torsional_Energy-OPLS-2005>
213.739196777344

> <r_mmod_Improper_Torsional_Energy-OPLS-2005>
6.52284002304077

> <r_mmod_Van_der_Waal_Energy-OPLS-2005>
150.878936767578

> <r_mmod_Electrostatic_Energy-OPLS-2005>
-590.311218261719

> <r_mmod_Solvation_Energy-OPLS-2005>
-227.228820800781

> <b_mmod_Minimization_Converged-OPLS-2005>
0

> <r_mmod_RMS_Derivative-OPLS-2005>
2.45430517196655

$$$$
94
                    3D
 Structure written by MMmdl.
169177  0  0  1  0            999 V2000
  -30.7637  -14.3813   20.6790 C   0  0  0  0  0  0
  -30.4141  -12.2982   19.3962 C   0  0  0  0  0  0
  -29.4812  -12.5248   18.1923 C   0  0  0  0  0  0
  -28.0066  -12.3824   18.6123 C   0  0  0  0  0  0
  -27.6647  -13.2061   19.8807 C   0  0  2  0  0  0
  -28.7036  -12.9555   20.9955 C   0  0  0  0  0  0
  -25.2596  -13.8161   20.5689 C   0  0  0  0  0  0
  -24.1844  -13.0445   20.9177 C   0  0  0  0  0  0
  -24.6391  -11.6912   20.8739 C   0  0  0  0  0  0
  -23.9060  -10.4295   21.0409 C   0  0  0  0  0  0
  -24.3606   -9.4214   21.9195 C   0  0  0  0  0  0
  -23.6284   -8.2249   22.0765 C   0  0  0  0  0  0
  -22.4274   -8.0281   21.3542 C   0  0  0  0  0  0
  -21.9914   -9.0256   20.4646 C   0  0  0  0  0  0
  -22.7236  -10.2138   20.3056 C   0  0  0  0  0  0
  -21.6848   -6.0739   22.5283 C   0  0  0  0  0  0
  -21.4001   -6.5645   23.8217 C   0  0  0  0  0  0
  -21.3659   -5.6799   24.9182 C   0  0  0  0  0  0
  -21.6047   -4.3060   24.7230 C   0  0  0  0  0  0
  -21.8823   -3.8151   23.4349 C   0  0  0  0  0  0
  -21.9193   -4.6966   22.3404 C   0  0  0  0  0  0
  -22.7868  -13.5246   21.1848 C   0  0  0  0  0  0
  -22.1666   -4.2153   21.0980 F   0  0  0  0  0  0
  -21.5636   -3.4538   25.7741 F   0  0  0  0  0  0
  -30.0431  -13.2505   20.4540 N   0  0  0  0  0  0
  -26.3040  -12.9341   20.3396 N   0  0  0  0  0  0
  -25.9316  -11.6495   20.5762 N   0  0  0  0  0  0
  -22.0510  -12.8216   22.0383 N   0  0  0  0  0  0
  -25.4336  -15.1870   20.4098 N   0  0  0  0  0  0
  -31.7880  -14.6624   20.0523 O   0  0  0  0  0  0
  -21.6639   -6.8879   21.4240 O   0  0  0  0  0  0
  -22.3559  -14.5565   20.6714 O   0  0  0  0  0  0
  -24.6160  -31.8684   23.2165 C   0  0  0  0  0  0
  -25.9057  -32.4807   23.8455 C   0  0  1  0  0  0
  -27.2239  -27.4317   20.0690 C   0  0  0  0  0  0
  -25.5932  -33.8613   24.2370 N   0  0  0  0  0  0
  -23.4022  -30.4978   21.5572 C   0  0  2  0  0  0
  -24.8411  -28.9706   20.1166 C   0  0  0  0  0  0
  -22.7411  -29.4672   22.5009 C   0  0  0  0  0  0
  -18.0264  -28.1378   22.8495 C   0  0  0  0  0  0
  -24.1476  -36.7311   23.2642 C   0  0  0  0  0  0
  -25.9349  -30.8284   21.3744 C   0  0  0  0  0  0
  -26.0062  -29.4659   20.7154 C   0  0  0  0  0  0
  -27.1969  -28.7004   20.6965 C   0  0  0  0  0  0
  -26.0336  -26.9633   19.4585 C   0  0  0  0  0  0
  -24.8494  -27.7164   19.4913 C   0  0  0  0  0  0
  -23.6072  -29.8395   20.1701 C   0  0  0  0  0  0
  -25.4101  -36.3105   24.0345 C   0  0  1  0  0  0
  -20.5850  -28.3670   23.1316 C   0  0  2  0  0  0
  -20.6749  -26.9403   22.5432 C   0  0  0  0  0  0
  -19.5738  -26.6384   21.5210 C   0  0  0  0  0  0
  -18.1901  -26.7940   22.1590 C   0  0  0  0  0  0
  -19.1514  -28.8843   23.2897 C   0  0  0  0  0  0
  -18.9441  -30.1449   23.8907 C   0  0  0  0  0  0
  -17.6440  -30.6583   24.0575 C   0  0  0  0  0  0
  -25.9029  -34.9464   23.5145 C   0  0  0  0  0  0
  -16.5328  -29.9084   23.6341 C   0  0  0  0  0  0
  -16.7255  -28.6505   23.0358 C   0  0  0  0  0  0
  -26.4493  -31.6576   25.0781 C   0  0  0  0  0  0
  -25.3771  -31.3617   26.1527 C   0  0  0  0  0  0
  -27.0348  -30.3022   24.6179 C   0  0  0  0  0  0
  -27.6088  -32.4287   25.7534 C   0  0  0  0  0  0
  -27.5577  -37.1813   24.8479 C   0  0  0  0  0  0
  -21.4141  -29.3031   22.3723 N   0  0  0  0  0  0
  -26.4293  -37.3789   23.9415 N   0  0  0  0  0  0
  -24.6697  -31.0785   22.1075 N   0  0  0  0  0  0
  -23.4180  -28.8201   23.3044 O   0  0  0  0  0  0
  -28.3997  -26.6985   20.0779 O   0  0  0  0  0  0
  -26.5575  -34.8913   22.4697 O   0  0  0  0  0  0
  -23.5348  -32.1436   23.7552 O   0  0  0  0  0  0
  -29.1052  -17.9586   22.0572 C   0  0  0  0  0  0
  -30.8615  -19.7666   20.9881 C   0  0  0  0  0  0
  -28.6286  -19.2590   21.7813 C   0  0  0  0  0  0
  -29.5470  -20.2140   21.2637 C   0  0  0  0  0  0
  -30.4497  -17.6420   21.8028 C   0  0  0  0  0  0
  -27.0190  -19.9173   23.6134 C   0  0  0  0  0  0
  -26.1792  -18.5307   21.6634 C   0  0  0  0  0  0
  -30.3808  -22.4373   23.0519 C   0  0  0  0  0  0
  -31.0264  -16.3015   22.2327 C   0  0  0  0  0  0
  -29.5652  -24.5103   19.8528 C   0  0  0  0  0  0
  -29.4602  -24.0103   21.3083 C   0  0  0  0  0  0
  -28.3910  -25.4120   19.4415 C   0  0  0  0  0  0
  -27.1761  -19.6124   22.1163 C   0  0  0  0  0  0
  -30.0787  -22.6151   21.5536 C   0  0  2  0  0  0
  -31.3074  -18.5195   21.2472 N   0  0  0  0  0  0
  -29.1799  -21.5626   21.0673 N   0  0  0  0  0  0
  -30.3219  -15.1481   21.6796 N   0  0  0  0  0  0
  -31.4563  -12.4006   19.0874 H   0  0  0  0  0  0
  -30.3141  -11.2781   19.7694 H   0  0  0  0  0  0
  -29.7121  -11.8152   17.3971 H   0  0  0  0  0  0
  -29.6527  -13.5176   17.7755 H   0  0  0  0  0  0
  -27.8122  -11.3249   18.7949 H   0  0  0  0  0  0
  -27.3512  -12.6749   17.7916 H   0  0  0  0  0  0
  -27.7223  -14.2588   19.6054 H   0  0  0  0  0  0
  -28.6681  -11.9154   21.3188 H   0  0  0  0  0  0
  -28.4495  -13.5370   21.8811 H   0  0  0  0  0  0
  -25.2744   -9.5705   22.4777 H   0  0  0  0  0  0
  -23.9995   -7.4657   22.7496 H   0  0  0  0  0  0
  -21.0851   -8.8778   19.8947 H   0  0  0  0  0  0
  -22.3696  -10.9682   19.6169 H   0  0  0  0  0  0
  -21.1982   -7.6156   23.9714 H   0  0  0  0  0  0
  -21.1481   -6.0530   25.9086 H   0  0  0  0  0  0
  -22.0599   -2.7610   23.2850 H   0  0  0  0  0  0
  -22.4103  -11.9832   22.4709 H   0  0  0  0  0  0
  -21.1136  -13.1249   22.2613 H   0  0  0  0  0  0
  -24.6736  -15.8474   20.5274 H   0  0  0  0  0  0
  -26.2969  -15.6235   20.1124 H   0  0  0  0  0  0
  -26.7124  -32.5522   23.1217 H   0  0  0  0  0  0
  -25.0138  -33.9784   25.0557 H   0  0  0  0  0  0
  -22.6905  -31.3159   21.4248 H   0  0  0  0  0  0
  -23.3751  -35.9634   23.3296 H   0  0  0  0  0  0
  -24.3561  -36.8956   22.2064 H   0  0  0  0  0  0
  -23.7216  -37.6500   23.6684 H   0  0  0  0  0  0
  -26.0535  -31.5949   20.6074 H   0  0  0  0  0  0
  -26.8206  -30.8731   21.9969 H   0  0  0  0  0  0
  -28.0970  -29.0794   21.1617 H   0  0  0  0  0  0
  -25.9756  -26.0222   18.9354 H   0  0  0  0  0  0
  -23.9551  -27.3297   19.0206 H   0  0  0  0  0  0
  -23.7189  -30.6176   19.4141 H   0  0  0  0  0  0
  -22.7285  -29.2642   19.8750 H   0  0  0  0  0  0
  -25.1264  -36.1979   25.0840 H   0  0  0  0  0  0
  -20.9930  -28.3253   24.1442 H   0  0  0  0  0  0
  -20.5631  -26.2284   23.3622 H   0  0  0  0  0  0
  -21.6626  -26.7439   22.1251 H   0  0  0  0  0  0
  -19.6904  -25.6299   21.1236 H   0  0  0  0  0  0
  -19.6691  -27.3193   20.6737 H   0  0  0  0  0  0
  -17.4204  -26.6751   21.3952 H   0  0  0  0  0  0
  -18.0240  -26.0058   22.8943 H   0  0  0  0  0  0
  -19.7915  -30.7264   24.2262 H   0  0  0  0  0  0
  -17.5005  -31.6259   24.5194 H   0  0  0  0  0  0
  -15.5329  -30.2982   23.7674 H   0  0  0  0  0  0
  -15.8654  -28.0824   22.7057 H   0  0  0  0  0  0
  -24.6147  -30.6693   25.7928 H   0  0  0  0  0  0
  -24.8688  -32.2683   26.4815 H   0  0  0  0  0  0
  -25.8198  -30.9031   27.0381 H   0  0  0  0  0  0
  -26.2894  -29.6735   24.1293 H   0  0  0  0  0  0
  -27.4169  -29.7304   25.4647 H   0  0  0  0  0  0
  -27.8713  -30.4333   23.9312 H   0  0  0  0  0  0
  -27.2774  -33.3653   26.2033 H   0  0  0  0  0  0
  -28.3936  -32.6703   25.0355 H   0  0  0  0  0  0
  -28.0714  -31.8443   26.5504 H   0  0  0  0  0  0
  -28.2600  -38.0092   24.7491 H   0  0  0  0  0  0
  -28.1046  -36.2621   24.6340 H   0  0  0  0  0  0
  -27.2295  -37.1533   25.8878 H   0  0  0  0  0  0
  -20.9298  -29.8752   21.6948 H   0  0  0  0  0  0
  -26.0182  -38.2873   24.1407 H   0  0  0  0  0  0
  -28.4651  -17.2193   22.5149 H   0  0  0  0  0  0
  -31.5958  -20.4393   20.5710 H   0  0  0  0  0  0
  -27.6635  -20.7441   23.9110 H   0  0  0  0  0  0
  -27.2839  -19.0532   24.2230 H   0  0  0  0  0  0
  -25.9935  -20.1961   23.8565 H   0  0  0  0  0  0
  -26.2910  -18.3196   20.6006 H   0  0  0  0  0  0
  -25.1521  -18.8560   21.8275 H   0  0  0  0  0  0
  -26.3068  -17.5946   22.2053 H   0  0  0  0  0  0
  -31.0330  -23.2333   23.4132 H   0  0  0  0  0  0
  -30.8930  -21.4989   23.2642 H   0  0  0  0  0  0
  -29.4714  -22.4666   23.6526 H   0  0  0  0  0  0
  -30.9492  -16.2459   23.3192 H   0  0  0  0  0  0
  -32.0957  -16.2576   22.0142 H   0  0  0  0  0  0
  -29.5621  -23.6487   19.1839 H   0  0  0  0  0  0
  -30.5192  -25.0133   19.6861 H   0  0  0  0  0  0
  -28.4194  -23.9999   21.6363 H   0  0  0  0  0  0
  -29.9488  -24.7554   21.9381 H   0  0  0  0  0  0
  -27.4934  -24.8443   19.6842 H   0  0  0  0  0  0
  -28.4041  -25.5590   18.3603 H   0  0  0  0  0  0
  -26.8995  -20.5116   21.5671 H   0  0  0  0  0  0
  -31.0229  -22.5660   21.0092 H   0  0  0  0  0  0
  -28.1955  -21.7644   21.2103 H   0  0  0  0  0  0
  -29.4673  -14.8703   22.1367 H   0  0  0  0  0  0
  1 25  1  0  0  0
  1 30  2  0  0  0
  1 87  1  0  0  0
  2  3  1  0  0  0
  2 25  1  0  0  0
  2 88  1  0  0  0
  2 89  1  0  0  0
  3  4  1  0  0  0
  3 90  1  0  0  0
  3 91  1  0  0  0
  4  5  1  0  0  0
  4 92  1  0  0  0
  4 93  1  0  0  0
  5  6  1  0  0  0
  5 26  1  0  0  0
  5 94  1  0  0  0
  6 25  1  0  0  0
  6 95  1  0  0  0
  6 96  1  0  0  0
  7  8  2  0  0  0
  7 26  1  0  0  0
  7 29  1  0  0  0
  8  9  1  0  0  0
  8 22  1  0  0  0
  9 10  1  0  0  0
  9 27  2  0  0  0
 10 11  2  0  0  0
 10 15  1  0  0  0
 11 12  1  0  0  0
 11 97  1  0  0  0
 12 13  2  0  0  0
 12 98  1  0  0  0
 13 14  1  0  0  0
 13 31  1  0  0  0
 14 15  2  0  0  0
 14 99  1  0  0  0
 15100  1  0  0  0
 16 17  2  0  0  0
 16 21  1  0  0  0
 16 31  1  0  0  0
 17 18  1  0  0  0
 17101  1  0  0  0
 18 19  2  0  0  0
 18102  1  0  0  0
 19 20  1  0  0  0
 19 24  1  0  0  0
 20 21  2  0  0  0
 20103  1  0  0  0
 21 23  1  0  0  0
 22 28  1  0  0  0
 22 32  2  0  0  0
 26 27  1  0  0  0
 28104  1  0  0  0
 28105  1  0  0  0
 29106  1  0  0  0
 29107  1  0  0  0
 33 34  1  0  0  0
 33 66  1  0  0  0
 33 70  2  0  0  0
 34 36  1  0  0  0
 34 59  1  0  0  0
 34108  1  0  0  0
 35 44  2  0  0  0
 35 45  1  0  0  0
 35 68  1  0  0  0
 36 56  1  0  0  0
 36109  1  0  0  0
 37 39  1  0  0  0
 37 47  1  0  0  0
 37 66  1  0  0  0
 37110  1  0  0  0
 38 43  2  0  0  0
 38 46  1  0  0  0
 38 47  1  0  0  0
 39 64  1  0  0  0
 39 67  2  0  0  0
 40 52  1  0  0  0
 40 53  2  0  0  0
 40 58  1  0  0  0
 41111  1  0  0  0
 41112  1  0  0  0
 41113  1  0  0  0
 41 48  1  0  0  0
 42 43  1  0  0  0
 42 66  1  0  0  0
 42114  1  0  0  0
 42115  1  0  0  0
 43 44  1  0  0  0
 44116  1  0  0  0
 45 46  2  0  0  0
 45117  1  0  0  0
 46118  1  0  0  0
 47119  1  0  0  0
 47120  1  0  0  0
 48 56  1  0  0  0
 48 65  1  0  0  0
 48121  1  0  0  0
 49 50  1  0  0  0
 49 53  1  0  0  0
 49 64  1  0  0  0
 49122  1  0  0  0
 50 51  1  0  0  0
 50123  1  0  0  0
 50124  1  0  0  0
 51 52  1  0  0  0
 51125  1  0  0  0
 51126  1  0  0  0
 52127  1  0  0  0
 52128  1  0  0  0
 53 54  1  0  0  0
 54 55  2  0  0  0
 54129  1  0  0  0
 55 57  1  0  0  0
 55130  1  0  0  0
 56 69  2  0  0  0
 57 58  2  0  0  0
 57131  1  0  0  0
 58132  1  0  0  0
 59 60  1  0  0  0
 59 61  1  0  0  0
 59 62  1  0  0  0
 60133  1  0  0  0
 60134  1  0  0  0
 60135  1  0  0  0
 61136  1  0  0  0
 61137  1  0  0  0
 61138  1  0  0  0
 62139  1  0  0  0
 62140  1  0  0  0
 62141  1  0  0  0
 63 65  1  0  0  0
 63142  1  0  0  0
 63143  1  0  0  0
 63144  1  0  0  0
 64145  1  0  0  0
 65146  1  0  0  0
 68 82  1  0  0  0
 71 73  2  0  0  0
 71 75  1  0  0  0
 71147  1  0  0  0
 72 74  2  0  0  0
 72 85  1  0  0  0
 72148  1  0  0  0
 73 74  1  0  0  0
 73 83  1  0  0  0
 74 86  1  0  0  0
 75 79  1  0  0  0
 75 85  2  0  0  0
 76149  1  0  0  0
 76150  1  0  0  0
 76151  1  0  0  0
 76 83  1  0  0  0
 77 83  1  0  0  0
 77152  1  0  0  0
 77153  1  0  0  0
 77154  1  0  0  0
 78155  1  0  0  0
 78156  1  0  0  0
 78157  1  0  0  0
 78 84  1  0  0  0
 79 87  1  0  0  0
 79158  1  0  0  0
 79159  1  0  0  0
 80 81  1  0  0  0
 80 82  1  0  0  0
 80160  1  0  0  0
 80161  1  0  0  0
 81 84  1  0  0  0
 81162  1  0  0  0
 81163  1  0  0  0
 82164  1  0  0  0
 82165  1  0  0  0
 83166  1  0  0  0
 84 86  1  0  0  0
 84167  1  0  0  0
 86168  1  0  0  0
 87169  1  0  0  0
M  ISO  4   1 100  68 101  82 101  87 100
M  END
> <chiral flag>
0

> <version>
0

> <s_m_source_file>
/data/baiqing/PycharmProjects/Reinvent-master-3.2/result/LINK_invent/BTK/process_docking_weight1_custom_sum_contain_oxygen_bond_distance_aromatic_linkinvent_7_9_3/rearranged_h_0093.sdf

> <i_m_source_file_index>
95

> <r_mmod_Potential_Energy-OPLS-2005>
-332.178649902344

> <r_mmod_Stretch_Energy-OPLS-2005>
36.1998634338379

> <r_mmod_Bend_Energy-OPLS-2005>
100.864677429199

> <r_mmod_Torsional_Energy-OPLS-2005>
201.753707885742

> <r_mmod_Improper_Torsional_Energy-OPLS-2005>
5.66063356399536

> <r_mmod_Van_der_Waal_Energy-OPLS-2005>
163.227615356445

> <r_mmod_Electrostatic_Energy-OPLS-2005>
-624.922485351562

> <r_mmod_Solvation_Energy-OPLS-2005>
-224.269287109375

> <b_mmod_Minimization_Converged-OPLS-2005>
0

> <r_mmod_RMS_Derivative-OPLS-2005>
1.75884091854095

$$$$
95
                    3D
 Structure written by MMmdl.
167175  0  0  1  0            999 V2000
  -31.3672  -14.6300   21.0419 C   0  0  0  0  0  0
  -30.8384  -13.6429   18.8542 C   0  0  0  0  0  0
  -29.4044  -13.6570   17.5271 C   0  0  0  0  0  0
  -27.5200  -13.5879   18.1820 C   0  0  0  0  0  0
  -27.2683  -13.6312   20.1505 C   0  0  2  0  0  0
  -28.8229  -13.4786   21.3633 C   0  0  0  0  0  0
  -24.9559  -13.8678   20.6154 C   0  0  0  0  0  0
  -23.9874  -13.0105   20.9519 C   0  0  0  0  0  0
  -24.5503  -11.6959   20.9064 C   0  0  0  0  0  0
  -23.8799  -10.4104   21.0438 C   0  0  0  0  0  0
  -24.3504   -9.4097   21.9191 C   0  0  0  0  0  0
  -23.6251   -8.2099   22.0727 C   0  0  0  0  0  0
  -22.4242   -8.0111   21.3515 C   0  0  0  0  0  0
  -21.9817   -9.0006   20.4582 C   0  0  0  0  0  0
  -22.7061  -10.1894   20.3002 C   0  0  0  0  0  0
  -21.6825   -6.0657   22.5297 C   0  0  0  0  0  0
  -21.3989   -6.5596   23.8217 C   0  0  0  0  0  0
  -21.3648   -5.6765   24.9185 C   0  0  0  0  0  0
  -21.6042   -4.3028   24.7254 C   0  0  0  0  0  0
  -21.8831   -3.8101   23.4384 C   0  0  0  0  0  0
  -21.9188   -4.6896   22.3431 C   0  0  0  0  0  0
  -22.5966  -13.4503   21.2087 C   0  0  0  0  0  0
  -22.1666   -4.2088   21.1006 F   0  0  0  0  0  0
  -21.5629   -3.4522   25.7776 F   0  0  0  0  0  0
  -30.4710  -13.7041   20.6265 N   0  0  0  0  0  0
  -26.0605  -13.0741   20.5062 N   0  0  0  0  0  0
  -25.8522  -11.7457   20.6512 N   0  0  0  0  0  0
  -21.9040  -12.7508   22.0891 N   0  0  0  0  0  0
  -24.9594  -15.2550   20.4008 N   0  0  0  0  0  0
  -32.4907  -14.5970   20.5695 O   0  0  0  0  0  0
  -21.6598   -6.8740   21.4240 O   0  0  0  0  0  0
  -22.1582  -14.4804   20.6943 O   0  0  0  0  0  0
  -24.6941  -31.7904   23.1464 C   0  0  0  0  0  0
  -25.9495  -32.4406   23.8021 C   0  0  1  0  0  0
  -27.1527  -26.6332   20.0936 C   0  0  0  0  0  0
  -25.6039  -33.8235   24.1902 N   0  0  0  0  0  0
  -23.5146  -30.4001   21.5067 C   0  0  2  0  0  0
  -24.9458  -28.7359   20.0985 C   0  0  0  0  0  0
  -22.7788  -29.4282   22.4693 C   0  0  0  0  0  0
  -18.0340  -28.1432   22.8454 C   0  0  0  0  0  0
  -24.1490  -36.7105   23.2655 C   0  0  0  0  0  0
  -26.1019  -30.4874   21.4180 C   0  0  0  0  0  0
  -26.1475  -29.0537   20.7418 C   0  0  0  0  0  0
  -27.2393  -28.0247   20.7147 C   0  0  0  0  0  0
  -25.9203  -26.5455   19.4143 C   0  0  0  0  0  0
  -24.8727  -27.5092   19.4203 C   0  0  0  0  0  0
  -23.7593  -29.7096   20.1370 C   0  0  0  0  0  0
  -25.4149  -36.2851   24.0272 C   0  0  1  0  0  0
  -20.5978  -28.3789   23.1134 C   0  0  2  0  0  0
  -20.6800  -26.9445   22.5403 C   0  0  0  0  0  0
  -19.5774  -26.6376   21.5217 C   0  0  0  0  0  0
  -18.1958  -26.7959   22.1623 C   0  0  0  0  0  0
  -19.1611  -28.8934   23.2772 C   0  0  0  0  0  0
  -18.9517  -30.1513   23.8823 C   0  0  0  0  0  0
  -17.6506  -30.6609   24.0554 C   0  0  0  0  0  0
  -25.9147  -34.9252   23.4925 C   0  0  0  0  0  0
  -16.5392  -29.9095   23.6351 C   0  0  0  0  0  0
  -16.7320  -28.6519   23.0365 C   0  0  0  0  0  0
  -26.4634  -31.6482   25.0687 C   0  0  0  0  0  0
  -25.3665  -31.3822   26.1272 C   0  0  0  0  0  0
  -27.0586  -30.2815   24.6650 C   0  0  0  0  0  0
  -27.6064  -32.4361   25.7522 C   0  0  0  0  0  0
  -27.5552  -37.1714   24.8471 C   0  0  0  0  0  0
  -21.4430  -29.3028   22.3454 N   0  0  0  0  0  0
  -26.4258  -37.3632   23.9413 N   0  0  0  0  0  0
  -24.7970  -30.9267   22.0758 N   0  0  0  0  0  0
  -23.4217  -28.7865   23.3040 O   0  0  0  0  0  0
  -28.0453  -25.3482   20.0915 O   0  0  0  0  0  0
  -26.5794  -34.8850   22.4547 O   0  0  0  0  0  0
  -23.5952  -32.1036   23.6377 O   0  0  0  0  0  0
  -29.8137  -17.9079   20.4951 C   0  0  0  0  0  0
  -28.8315  -18.1427   19.4659 C   0  0  0  0  0  0
  -28.5264  -16.6283   18.8282 C   0  0  0  0  0  0
  -28.9577  -15.1077   19.4000 C   0  0  0  0  0  0
  -29.9415  -16.5526   20.9140 C   0  0  0  0  0  0
  -30.0562  -11.2007   19.8670 C   0  0  0  0  0  0
  -27.0861  -17.3165   15.2190 C   0  0  0  0  0  0
  -29.4820  -17.2528   16.0166 C   0  0  0  0  0  0
  -28.2824  -19.9345   19.1877 C   0  0  0  0  0  0
  -27.5427  -16.8026   17.6604 C   0  0  0  0  0  0
  -29.0130  -12.3314   19.3699 C   0  0  0  0  0  0
  -28.4935  -21.7832   19.8526 C   0  0  0  0  0  0
  -27.8020  -23.6285   19.6442 C   0  0  0  0  0  0
  -28.0683  -16.6726   16.2108 C   0  0  0  0  0  0
  -28.9130  -15.8322   20.5628 N   0  0  0  0  0  0
  -30.9809  -15.8375   21.5413 N   0  0  0  0  0  0
  -31.3644  -14.5520   18.5502 H   0  0  0  0  0  0
  -31.6099  -12.9122   18.6171 H   0  0  0  0  0  0
  -29.5734  -12.8731   16.7850 H   0  0  0  0  0  0
  -29.5689  -14.5459   16.9293 H   0  0  0  0  0  0
  -27.0605  -12.6646   17.8178 H   0  0  0  0  0  0
  -26.8759  -14.2850   17.6678 H   0  0  0  0  0  0
  -27.0511  -14.6197   20.4630 H   0  0  0  0  0  0
  -28.7934  -12.5123   21.8690 H   0  0  0  0  0  0
  -28.6972  -14.1249   22.2343 H   0  0  0  0  0  0
  -25.2579   -9.5707   22.4833 H   0  0  0  0  0  0
  -23.9973   -7.4519   22.7471 H   0  0  0  0  0  0
  -21.0750   -8.8471   19.8895 H   0  0  0  0  0  0
  -22.3452  -10.9432   19.6149 H   0  0  0  0  0  0
  -21.1970   -7.6103   23.9696 H   0  0  0  0  0  0
  -21.1454   -6.0500   25.9081 H   0  0  0  0  0  0
  -22.0623   -2.7563   23.2905 H   0  0  0  0  0  0
  -22.2973  -11.9345   22.5344 H   0  0  0  0  0  0
  -20.9634  -13.0337   22.3251 H   0  0  0  0  0  0
  -24.1037  -15.7989   20.4334 H   0  0  0  0  0  0
  -25.7768  -15.7971   20.1415 H   0  0  0  0  0  0
  -26.7574  -32.4819   23.0718 H   0  0  0  0  0  0
  -25.0092  -33.9257   24.9994 H   0  0  0  0  0  0
  -22.8447  -31.2433   21.3244 H   0  0  0  0  0  0
  -23.3785  -35.9400   23.3263 H   0  0  0  0  0  0
  -24.3549  -36.8831   22.2080 H   0  0  0  0  0  0
  -23.7217  -37.6250   23.6779 H   0  0  0  0  0  0
  -26.3267  -31.2173   20.6391 H   0  0  0  0  0  0
  -26.9472  -30.5350   22.0922 H   0  0  0  0  0  0
  -28.1467  -28.2613   21.2523 H   0  0  0  0  0  0
  -25.7181  -25.6238   18.8875 H   0  0  0  0  0  0
  -23.9624  -27.2636   18.8918 H   0  0  0  0  0  0
  -23.9494  -30.4772   19.3856 H   0  0  0  0  0  0
  -22.8548  -29.1970   19.8054 H   0  0  0  0  0  0
  -25.1361  -36.1595   25.0761 H   0  0  0  0  0  0
  -21.0059  -28.3418   24.1259 H   0  0  0  0  0  0
  -20.5659  -26.2416   23.3669 H   0  0  0  0  0  0
  -21.6659  -26.7374   22.1219 H   0  0  0  0  0  0
  -19.6923  -25.6266   21.1291 H   0  0  0  0  0  0
  -19.6715  -27.3148   20.6718 H   0  0  0  0  0  0
  -17.4224  -26.6706   21.4028 H   0  0  0  0  0  0
  -18.0344  -26.0120   22.9039 H   0  0  0  0  0  0
  -19.7988  -30.7354   24.2161 H   0  0  0  0  0  0
  -17.5053  -31.6280   24.5181 H   0  0  0  0  0  0
  -15.5389  -30.2975   23.7713 H   0  0  0  0  0  0
  -15.8722  -28.0814   22.7115 H   0  0  0  0  0  0
  -24.5905  -30.7115   25.7563 H   0  0  0  0  0  0
  -24.8791  -32.3046   26.4440 H   0  0  0  0  0  0
  -25.7807  -30.9160   27.0218 H   0  0  0  0  0  0
  -26.3316  -29.6390   24.1671 H   0  0  0  0  0  0
  -27.4020  -29.7307   25.5417 H   0  0  0  0  0  0
  -27.9293  -30.3940   24.0187 H   0  0  0  0  0  0
  -27.2605  -33.3753   26.1850 H   0  0  0  0  0  0
  -28.4011  -32.6767   25.0448 H   0  0  0  0  0  0
  -28.0582  -31.8652   26.5645 H   0  0  0  0  0  0
  -28.2532  -38.0044   24.7518 H   0  0  0  0  0  0
  -28.1082  -36.2561   24.6299 H   0  0  0  0  0  0
  -27.2261  -37.1346   25.8872 H   0  0  0  0  0  0
  -20.9743  -29.8710   21.6532 H   0  0  0  0  0  0
  -26.0067  -38.2665   24.1450 H   0  0  0  0  0  0
  -30.4297  -18.7019   20.8939 H   0  0  0  0  0  0
  -29.5900  -10.2159   19.7885 H   0  0  0  0  0  0
  -30.3584  -11.2614   20.9127 H   0  0  0  0  0  0
  -30.9525  -11.0931   19.2608 H   0  0  0  0  0  0
  -27.4094  -17.1624   14.1894 H   0  0  0  0  0  0
  -26.9924  -18.3911   15.3797 H   0  0  0  0  0  0
  -26.0913  -16.8792   15.3121 H   0  0  0  0  0  0
  -29.8083  -17.1506   14.9810 H   0  0  0  0  0  0
  -30.2219  -16.7491   16.6382 H   0  0  0  0  0  0
  -29.5112  -18.3135   16.2666 H   0  0  0  0  0  0
  -27.2005  -19.8119   19.2091 H   0  0  0  0  0  0
  -28.4988  -20.0465   18.1257 H   0  0  0  0  0  0
  -27.1770  -17.8268   17.7391 H   0  0  0  0  0  0
  -26.6197  -16.2591   17.8309 H   0  0  0  0  0  0
  -28.8676  -11.7472   18.4466 H   0  0  0  0  0  0
  -28.2176  -11.7264   19.8214 H   0  0  0  0  0  0
  -29.5663  -21.9332   19.7325 H   0  0  0  0  0  0
  -28.3751  -21.6352   20.9258 H   0  0  0  0  0  0
  -26.7495  -23.5041   19.8983 H   0  0  0  0  0  0
  -27.7874  -23.7282   18.5585 H   0  0  0  0  0  0
  -28.0917  -15.6178   15.9468 H   0  0  0  0  0  0
  -31.7482  -16.4119   21.8526 H   0  0  0  0  0  0
  1 25  1  0  0  0
  1 30  2  0  0  0
  1 86  1  0  0  0
  2  3  1  0  0  0
  2 25  1  0  0  0
  2 87  1  0  0  0
  2 88  1  0  0  0
  3  4  1  0  0  0
  3 89  1  0  0  0
  3 90  1  0  0  0
  4  5  1  0  0  0
  4 91  1  0  0  0
  4 92  1  0  0  0
  5  6  1  0  0  0
  5 26  1  0  0  0
  5 93  1  0  0  0
  6 25  1  0  0  0
  6 94  1  0  0  0
  6 95  1  0  0  0
  7  8  2  0  0  0
  7 26  1  0  0  0
  7 29  1  0  0  0
  8  9  1  0  0  0
  8 22  1  0  0  0
  9 10  1  0  0  0
  9 27  2  0  0  0
 10 11  2  0  0  0
 10 15  1  0  0  0
 11 12  1  0  0  0
 11 96  1  0  0  0
 12 13  2  0  0  0
 12 97  1  0  0  0
 13 14  1  0  0  0
 13 31  1  0  0  0
 14 15  2  0  0  0
 14 98  1  0  0  0
 15 99  1  0  0  0
 16 17  2  0  0  0
 16 21  1  0  0  0
 16 31  1  0  0  0
 17 18  1  0  0  0
 17100  1  0  0  0
 18 19  2  0  0  0
 18101  1  0  0  0
 19 20  1  0  0  0
 19 24  1  0  0  0
 20 21  2  0  0  0
 20102  1  0  0  0
 21 23  1  0  0  0
 22 28  1  0  0  0
 22 32  2  0  0  0
 26 27  1  0  0  0
 28103  1  0  0  0
 28104  1  0  0  0
 29105  1  0  0  0
 29106  1  0  0  0
 33 34  1  0  0  0
 33 66  1  0  0  0
 33 70  2  0  0  0
 34 36  1  0  0  0
 34 59  1  0  0  0
 34107  1  0  0  0
 35 44  2  0  0  0
 35 45  1  0  0  0
 35 68  1  0  0  0
 36 56  1  0  0  0
 36108  1  0  0  0
 37 39  1  0  0  0
 37 47  1  0  0  0
 37 66  1  0  0  0
 37109  1  0  0  0
 38 43  2  0  0  0
 38 46  1  0  0  0
 38 47  1  0  0  0
 39 64  1  0  0  0
 39 67  2  0  0  0
 40 52  1  0  0  0
 40 53  2  0  0  0
 40 58  1  0  0  0
 41110  1  0  0  0
 41111  1  0  0  0
 41112  1  0  0  0
 41 48  1  0  0  0
 42 43  1  0  0  0
 42 66  1  0  0  0
 42113  1  0  0  0
 42114  1  0  0  0
 43 44  1  0  0  0
 44115  1  0  0  0
 45 46  2  0  0  0
 45116  1  0  0  0
 46117  1  0  0  0
 47118  1  0  0  0
 47119  1  0  0  0
 48 56  1  0  0  0
 48 65  1  0  0  0
 48120  1  0  0  0
 49 50  1  0  0  0
 49 53  1  0  0  0
 49 64  1  0  0  0
 49121  1  0  0  0
 50 51  1  0  0  0
 50122  1  0  0  0
 50123  1  0  0  0
 51 52  1  0  0  0
 51124  1  0  0  0
 51125  1  0  0  0
 52126  1  0  0  0
 52127  1  0  0  0
 53 54  1  0  0  0
 54 55  2  0  0  0
 54128  1  0  0  0
 55 57  1  0  0  0
 55129  1  0  0  0
 56 69  2  0  0  0
 57 58  2  0  0  0
 57130  1  0  0  0
 58131  1  0  0  0
 59 60  1  0  0  0
 59 61  1  0  0  0
 59 62  1  0  0  0
 60132  1  0  0  0
 60133  1  0  0  0
 60134  1  0  0  0
 61135  1  0  0  0
 61136  1  0  0  0
 61137  1  0  0  0
 62138  1  0  0  0
 62139  1  0  0  0
 62140  1  0  0  0
 63 65  1  0  0  0
 63141  1  0  0  0
 63142  1  0  0  0
 63143  1  0  0  0
 64144  1  0  0  0
 65145  1  0  0  0
 68 83  1  0  0  0
 71 72  2  0  0  0
 71 75  1  0  0  0
 71146  1  0  0  0
 72 73  1  0  0  0
 72 79  1  0  0  0
 73 74  2  0  0  0
 73 80  1  0  0  0
 74 81  1  0  0  0
 74 85  1  0  0  0
 75 85  2  0  0  0
 75 86  1  0  0  0
 76 81  1  0  0  0
 76147  1  0  0  0
 76148  1  0  0  0
 76149  1  0  0  0
 77150  1  0  0  0
 77151  1  0  0  0
 77152  1  0  0  0
 77 84  1  0  0  0
 78 84  1  0  0  0
 78153  1  0  0  0
 78154  1  0  0  0
 78155  1  0  0  0
 79 82  1  0  0  0
 79156  1  0  0  0
 79157  1  0  0  0
 80 84  1  0  0  0
 80158  1  0  0  0
 80159  1  0  0  0
 81160  1  0  0  0
 81161  1  0  0  0
 82 83  1  0  0  0
 82162  1  0  0  0
 82163  1  0  0  0
 83164  1  0  0  0
 83165  1  0  0  0
 84166  1  0  0  0
 86167  1  0  0  0
M  ISO  4   1 100  68 101  83 101  86 100
M  END
> <chiral flag>
0

> <version>
0

> <s_m_source_file>
/data/baiqing/PycharmProjects/Reinvent-master-3.2/result/LINK_invent/BTK/process_docking_weight1_custom_sum_contain_oxygen_bond_distance_aromatic_linkinvent_7_9_3/rearranged_h_0093.sdf

> <i_m_source_file_index>
96

> <r_mmod_Potential_Energy-OPLS-2005>
8894.7294921875

> <r_mmod_Stretch_Energy-OPLS-2005>
4762.74609375

> <r_mmod_Bend_Energy-OPLS-2005>
1168.15002441406

> <r_mmod_Torsional_Energy-OPLS-2005>
435.352172851562

> <r_mmod_Improper_Torsional_Energy-OPLS-2005>
25.7601184844971

> <r_mmod_Van_der_Waal_Energy-OPLS-2005>
1933.53552246094

> <r_mmod_Electrostatic_Energy-OPLS-2005>
-588.743713378906

> <r_mmod_Solvation_Energy-OPLS-2005>
-191.724029541016

> <b_mmod_Minimization_Converged-OPLS-2005>
0

> <r_mmod_RMS_Derivative-OPLS-2005>
1.96650791168213

$$$$
96
                    3D
 Structure written by MMmdl.
167175  0  0  1  0            999 V2000
  -30.5947  -14.7469   20.4796 C   0  0  0  0  0  0
  -30.4404  -12.4579   19.4808 C   0  0  0  0  0  0
  -29.5317  -12.5469   18.2344 C   0  0  0  0  0  0
  -28.0521  -12.3851   18.6373 C   0  0  0  0  0  0
  -27.6594  -13.2493   19.8651 C   0  0  2  0  0  0
  -28.7037  -13.1540   21.0041 C   0  0  0  0  0  0
  -25.2586  -13.8182   20.5669 C   0  0  0  0  0  0
  -24.1894  -13.0444   20.9127 C   0  0  0  0  0  0
  -24.6507  -11.6918   20.8722 C   0  0  0  0  0  0
  -23.9155  -10.4282   21.0342 C   0  0  0  0  0  0
  -24.3660   -9.4214   21.9151 C   0  0  0  0  0  0
  -23.6319   -8.2274   22.0750 C   0  0  0  0  0  0
  -22.4306   -8.0307   21.3528 C   0  0  0  0  0  0
  -21.9919   -9.0280   20.4628 C   0  0  0  0  0  0
  -22.7281  -10.2163   20.3032 C   0  0  0  0  0  0
  -21.6852   -6.0756   22.5288 C   0  0  0  0  0  0
  -21.4015   -6.5631   23.8228 C   0  0  0  0  0  0
  -21.3674   -5.6779   24.9167 C   0  0  0  0  0  0
  -21.6058   -4.3040   24.7207 C   0  0  0  0  0  0
  -21.8822   -3.8157   23.4302 C   0  0  0  0  0  0
  -21.9192   -4.6979   22.3379 C   0  0  0  0  0  0
  -22.7886  -13.5234   21.1777 C   0  0  0  0  0  0
  -22.1650   -4.2170   21.0933 F   0  0  0  0  0  0
  -21.5615   -3.4512   25.7691 F   0  0  0  0  0  0
  -30.0050  -13.5050   20.4338 N   0  0  0  0  0  0
  -26.3106  -12.9495   20.3326 N   0  0  0  0  0  0
  -25.9462  -11.6611   20.5758 N   0  0  0  0  0  0
  -22.0495  -12.8327   22.0360 N   0  0  0  0  0  0
  -25.4207  -15.1924   20.4021 N   0  0  0  0  0  0
  -31.7490  -14.8914   20.0657 O   0  0  0  0  0  0
  -21.6660   -6.8929   21.4246 O   0  0  0  0  0  0
  -22.3559  -14.5563   20.6613 O   0  0  0  0  0  0
  -24.6297  -31.8589   23.1965 C   0  0  0  0  0  0
  -25.9142  -32.4794   23.8288 C   0  0  1  0  0  0
  -27.1895  -27.2733   20.1138 C   0  0  0  0  0  0
  -25.5969  -33.8574   24.2273 N   0  0  0  0  0  0
  -23.4209  -30.4865   21.5462 C   0  0  2  0  0  0
  -24.8586  -28.9358   20.1036 C   0  0  0  0  0  0
  -22.7474  -29.4675   22.4965 C   0  0  0  0  0  0
  -18.0287  -28.1442   22.8524 C   0  0  0  0  0  0
  -24.1496  -36.7212   23.2638 C   0  0  0  0  0  0
  -25.9644  -30.7773   21.3665 C   0  0  0  0  0  0
  -26.0349  -29.4030   20.7038 C   0  0  0  0  0  0
  -27.2093  -28.5873   20.6915 C   0  0  0  0  0  0
  -25.9947  -26.8644   19.4859 C   0  0  0  0  0  0
  -24.8464  -27.6813   19.4725 C   0  0  0  0  0  0
  -23.6287  -29.8252   20.1594 C   0  0  0  0  0  0
  -25.4131  -36.3035   24.0308 C   0  0  1  0  0  0
  -20.5899  -28.3709   23.1305 C   0  0  2  0  0  0
  -20.6767  -26.9437   22.5429 C   0  0  0  0  0  0
  -19.5719  -26.6431   21.5242 C   0  0  0  0  0  0
  -18.1907  -26.7990   22.1666 C   0  0  0  0  0  0
  -19.1549  -28.8882   23.2915 C   0  0  0  0  0  0
  -18.9446  -30.1493   23.8933 C   0  0  0  0  0  0
  -17.6434  -30.6617   24.0590 C   0  0  0  0  0  0
  -25.9087  -34.9434   23.5066 C   0  0  0  0  0  0
  -16.5333  -29.9115   23.6367 C   0  0  0  0  0  0
  -16.7259  -28.6542   23.0373 C   0  0  0  0  0  0
  -26.4528  -31.6600   25.0654 C   0  0  0  0  0  0
  -25.3752  -31.3687   26.1362 C   0  0  0  0  0  0
  -27.0345  -30.3026   24.6086 C   0  0  0  0  0  0
  -27.6105  -32.4331   25.7420 C   0  0  0  0  0  0
  -27.5576  -37.1755   24.8477 C   0  0  0  0  0  0
  -21.4185  -29.3040   22.3663 N   0  0  0  0  0  0
  -26.4291  -37.3733   23.9427 N   0  0  0  0  0  0
  -24.6928  -31.0540   22.0957 N   0  0  0  0  0  0
  -23.4174  -28.8205   23.3058 O   0  0  0  0  0  0
  -28.2749  -26.3821   20.0894 O   0  0  0  0  0  0
  -26.5598  -34.8889   22.4618 O   0  0  0  0  0  0
  -23.5461  -32.1493   23.7259 O   0  0  0  0  0  0
  -29.2373  -19.8160   20.3779 C   0  0  0  0  0  0
  -29.5484  -18.5973   21.0934 C   0  0  0  0  0  0
  -29.5316  -18.7110   22.5176 C   0  0  0  0  0  0
  -28.9833  -21.0735   21.0377 C   0  0  0  0  0  0
  -29.2009  -19.9768   23.1009 C   0  0  0  0  0  0
  -29.8706  -17.4955   23.3794 C   0  0  0  0  0  0
  -26.5463  -19.2733   24.3473 C   0  0  0  0  0  0
  -27.6380  -19.4837   26.6066 C   0  0  0  0  0  0
  -30.0064  -17.2830   20.3025 C   0  0  0  0  0  0
  -29.0017  -22.5025   20.3324 C   0  0  0  0  0  0
  -29.0264  -20.2185   24.6011 C   0  0  0  0  0  0
  -27.8799  -23.6430   20.5763 C   0  0  0  0  0  0
  -28.2626  -25.1730   20.9669 C   0  0  0  0  0  0
  -27.5841  -20.0700   25.1838 C   0  0  0  0  0  0
  -28.9748  -21.1054   22.3803 N   0  0  0  0  0  0
  -29.8053  -15.8437   20.7751 N   0  0  0  0  0  0
  -31.4901  -12.5607   19.2016 H   0  0  0  0  0  0
  -30.3511  -11.4733   19.9377 H   0  0  0  0  0  0
  -29.8060  -11.7737   17.5166 H   0  0  0  0  0  0
  -29.6889  -13.4988   17.7274 H   0  0  0  0  0  0
  -27.8985  -11.3320   18.8703 H   0  0  0  0  0  0
  -27.4055  -12.6167   17.7899 H   0  0  0  0  0  0
  -27.6503  -14.2814   19.5078 H   0  0  0  0  0  0
  -28.7559  -12.1540   21.4299 H   0  0  0  0  0  0
  -28.4536  -13.8200   21.8294 H   0  0  0  0  0  0
  -25.2785   -9.5679   22.4771 H   0  0  0  0  0  0
  -23.9986   -7.4656   22.7482 H   0  0  0  0  0  0
  -21.0841   -8.8836   19.8940 H   0  0  0  0  0  0
  -22.3727  -10.9710   19.6177 H   0  0  0  0  0  0
  -21.2035   -7.6155   23.9736 H   0  0  0  0  0  0
  -21.1476   -6.0486   25.9072 H   0  0  0  0  0  0
  -22.0601   -2.7614   23.2779 H   0  0  0  0  0  0
  -22.4022  -12.0023   22.4897 H   0  0  0  0  0  0
  -21.1094  -13.1392   22.2475 H   0  0  0  0  0  0
  -24.6301  -15.8299   20.4344 H   0  0  0  0  0  0
  -26.2781  -15.6274   20.0912 H   0  0  0  0  0  0
  -26.7179  -32.5435   23.0997 H   0  0  0  0  0  0
  -25.0145  -33.9743   25.0439 H   0  0  0  0  0  0
  -22.7181  -31.3128   21.4126 H   0  0  0  0  0  0
  -23.3768  -35.9530   23.3318 H   0  0  0  0  0  0
  -24.3570  -36.8827   22.2048 H   0  0  0  0  0  0
  -23.7248  -37.6411   23.6660 H   0  0  0  0  0  0
  -26.0998  -31.5406   20.5984 H   0  0  0  0  0  0
  -26.8444  -30.8240   21.9975 H   0  0  0  0  0  0
  -28.1267  -28.9505   21.1321 H   0  0  0  0  0  0
  -25.9439  -25.8958   19.0048 H   0  0  0  0  0  0
  -23.9419  -27.3404   18.9826 H   0  0  0  0  0  0
  -23.7401  -30.6112   19.4105 H   0  0  0  0  0  0
  -22.7407  -29.2650   19.8643 H   0  0  0  0  0  0
  -25.1327  -36.1857   25.0784 H   0  0  0  0  0  0
  -21.0012  -28.3290   24.1407 H   0  0  0  0  0  0
  -20.5707  -26.2312   23.3615 H   0  0  0  0  0  0
  -21.6620  -26.7494   22.1196 H   0  0  0  0  0  0
  -19.6859  -25.6350   21.1244 H   0  0  0  0  0  0
  -19.6666  -27.3252   20.6772 H   0  0  0  0  0  0
  -17.4199  -26.6788   21.4042 H   0  0  0  0  0  0
  -18.0266  -26.0146   22.9065 H   0  0  0  0  0  0
  -19.7890  -30.7335   24.2321 H   0  0  0  0  0  0
  -17.4959  -31.6295   24.5167 H   0  0  0  0  0  0
  -15.5332  -30.2995   23.7646 H   0  0  0  0  0  0
  -15.8686  -28.0831   22.7084 H   0  0  0  0  0  0
  -24.5962  -30.7041   25.7639 H   0  0  0  0  0  0
  -24.8891  -32.2810   26.4793 H   0  0  0  0  0  0
  -25.8034  -30.8841   27.0145 H   0  0  0  0  0  0
  -26.2864  -29.6786   24.1184 H   0  0  0  0  0  0
  -27.4135  -29.7280   25.4553 H   0  0  0  0  0  0
  -27.8708  -30.4310   23.9208 H   0  0  0  0  0  0
  -27.2755  -33.3671   26.1925 H   0  0  0  0  0  0
  -28.3909  -32.6852   25.0230 H   0  0  0  0  0  0
  -28.0785  -31.8524   26.5389 H   0  0  0  0  0  0
  -28.2590  -38.0062   24.7527 H   0  0  0  0  0  0
  -28.1070  -36.2576   24.6306 H   0  0  0  0  0  0
  -27.2263  -37.1396   25.8874 H   0  0  0  0  0  0
  -20.9345  -29.8668   21.6812 H   0  0  0  0  0  0
  -26.0148  -38.2778   24.1489 H   0  0  0  0  0  0
  -29.2582  -19.7920   19.2974 H   0  0  0  0  0  0
  -29.0038  -16.8342   23.4331 H   0  0  0  0  0  0
  -30.1446  -17.7376   24.4042 H   0  0  0  0  0  0
  -30.7081  -16.9301   22.9589 H   0  0  0  0  0  0
  -25.5732  -19.7613   24.3821 H   0  0  0  0  0  0
  -26.3979  -18.2598   24.7215 H   0  0  0  0  0  0
  -26.7960  -19.1810   23.2938 H   0  0  0  0  0  0
  -26.6631  -19.4943   27.1007 H   0  0  0  0  0  0
  -28.3382  -20.0016   27.2586 H   0  0  0  0  0  0
  -27.9889  -18.4511   26.5584 H   0  0  0  0  0  0
  -31.0678  -17.4088   20.0851 H   0  0  0  0  0  0
  -29.5372  -17.3577   19.3190 H   0  0  0  0  0  0
  -29.0254  -22.3051   19.2627 H   0  0  0  0  0  0
  -29.9844  -22.9142   20.5659 H   0  0  0  0  0  0
  -29.3391  -21.2481   24.7779 H   0  0  0  0  0  0
  -29.7487  -19.6674   25.1967 H   0  0  0  0  0  0
  -27.2914  -23.2642   21.4188 H   0  0  0  0  0  0
  -27.1629  -23.6430   19.7523 H   0  0  0  0  0  0
  -29.2565  -25.1304   21.4158 H   0  0  0  0  0  0
  -27.6074  -25.4522   21.7936 H   0  0  0  0  0  0
  -27.1734  -21.0854   25.2447 H   0  0  0  0  0  0
  -28.8934  -15.6371   21.1627 H   0  0  0  0  0  0
  1 25  1  0  0  0
  1 30  2  0  0  0
  1 86  1  0  0  0
  2  3  1  0  0  0
  2 25  1  0  0  0
  2 87  1  0  0  0
  2 88  1  0  0  0
  3  4  1  0  0  0
  3 89  1  0  0  0
  3 90  1  0  0  0
  4  5  1  0  0  0
  4 91  1  0  0  0
  4 92  1  0  0  0
  5  6  1  0  0  0
  5 26  1  0  0  0
  5 93  1  0  0  0
  6 25  1  0  0  0
  6 94  1  0  0  0
  6 95  1  0  0  0
  7  8  2  0  0  0
  7 26  1  0  0  0
  7 29  1  0  0  0
  8  9  1  0  0  0
  8 22  1  0  0  0
  9 10  1  0  0  0
  9 27  2  0  0  0
 10 11  2  0  0  0
 10 15  1  0  0  0
 11 12  1  0  0  0
 11 96  1  0  0  0
 12 13  2  0  0  0
 12 97  1  0  0  0
 13 14  1  0  0  0
 13 31  1  0  0  0
 14 15  2  0  0  0
 14 98  1  0  0  0
 15 99  1  0  0  0
 16 17  2  0  0  0
 16 21  1  0  0  0
 16 31  1  0  0  0
 17 18  1  0  0  0
 17100  1  0  0  0
 18 19  2  0  0  0
 18101  1  0  0  0
 19 20  1  0  0  0
 19 24  1  0  0  0
 20 21  2  0  0  0
 20102  1  0  0  0
 21 23  1  0  0  0
 22 28  1  0  0  0
 22 32  2  0  0  0
 26 27  1  0  0  0
 28103  1  0  0  0
 28104  1  0  0  0
 29105  1  0  0  0
 29106  1  0  0  0
 33 34  1  0  0  0
 33 66  1  0  0  0
 33 70  2  0  0  0
 34 36  1  0  0  0
 34 59  1  0  0  0
 34107  1  0  0  0
 35 44  2  0  0  0
 35 45  1  0  0  0
 35 68  1  0  0  0
 36 56  1  0  0  0
 36108  1  0  0  0
 37 39  1  0  0  0
 37 47  1  0  0  0
 37 66  1  0  0  0
 37109  1  0  0  0
 38 43  2  0  0  0
 38 46  1  0  0  0
 38 47  1  0  0  0
 39 64  1  0  0  0
 39 67  2  0  0  0
 40 52  1  0  0  0
 40 53  2  0  0  0
 40 58  1  0  0  0
 41110  1  0  0  0
 41111  1  0  0  0
 41112  1  0  0  0
 41 48  1  0  0  0
 42 43  1  0  0  0
 42 66  1  0  0  0
 42113  1  0  0  0
 42114  1  0  0  0
 43 44  1  0  0  0
 44115  1  0  0  0
 45 46  2  0  0  0
 45116  1  0  0  0
 46117  1  0  0  0
 47118  1  0  0  0
 47119  1  0  0  0
 48 56  1  0  0  0
 48 65  1  0  0  0
 48120  1  0  0  0
 49 50  1  0  0  0
 49 53  1  0  0  0
 49 64  1  0  0  0
 49121  1  0  0  0
 50 51  1  0  0  0
 50122  1  0  0  0
 50123  1  0  0  0
 51 52  1  0  0  0
 51124  1  0  0  0
 51125  1  0  0  0
 52126  1  0  0  0
 52127  1  0  0  0
 53 54  1  0  0  0
 54 55  2  0  0  0
 54128  1  0  0  0
 55 57  1  0  0  0
 55129  1  0  0  0
 56 69  2  0  0  0
 57 58  2  0  0  0
 57130  1  0  0  0
 58131  1  0  0  0
 59 60  1  0  0  0
 59 61  1  0  0  0
 59 62  1  0  0  0
 60132  1  0  0  0
 60133  1  0  0  0
 60134  1  0  0  0
 61135  1  0  0  0
 61136  1  0  0  0
 61137  1  0  0  0
 62138  1  0  0  0
 62139  1  0  0  0
 62140  1  0  0  0
 63 65  1  0  0  0
 63141  1  0  0  0
 63142  1  0  0  0
 63143  1  0  0  0
 64144  1  0  0  0
 65145  1  0  0  0
 68 83  1  0  0  0
 71 72  2  0  0  0
 71 74  1  0  0  0
 71146  1  0  0  0
 72 73  1  0  0  0
 72 79  1  0  0  0
 73 75  2  0  0  0
 73 76  1  0  0  0
 74 80  1  0  0  0
 74 85  2  0  0  0
 75 81  1  0  0  0
 75 85  1  0  0  0
 76147  1  0  0  0
 76148  1  0  0  0
 76149  1  0  0  0
 77150  1  0  0  0
 77151  1  0  0  0
 77152  1  0  0  0
 77 84  1  0  0  0
 78 84  1  0  0  0
 78153  1  0  0  0
 78154  1  0  0  0
 78155  1  0  0  0
 79 86  1  0  0  0
 79156  1  0  0  0
 79157  1  0  0  0
 80 82  1  0  0  0
 80158  1  0  0  0
 80159  1  0  0  0
 81 84  1  0  0  0
 81160  1  0  0  0
 81161  1  0  0  0
 82 83  1  0  0  0
 82162  1  0  0  0
 82163  1  0  0  0
 83164  1  0  0  0
 83165  1  0  0  0
 84166  1  0  0  0
 86167  1  0  0  0
M  ISO  4   1 100  68 101  83 101  86 100
M  END
> <chiral flag>
0

> <version>
0

> <s_m_source_file>
/data/baiqing/PycharmProjects/Reinvent-master-3.2/result/LINK_invent/BTK/process_docking_weight1_custom_sum_contain_oxygen_bond_distance_aromatic_linkinvent_7_9_3/rearranged_h_0093.sdf

> <i_m_source_file_index>
97

> <r_mmod_Potential_Energy-OPLS-2005>
-18.317008972168

> <r_mmod_Stretch_Energy-OPLS-2005>
118.232894897461

> <r_mmod_Bend_Energy-OPLS-2005>
200.845245361328

> <r_mmod_Torsional_Energy-OPLS-2005>
253.527755737305

> <r_mmod_Improper_Torsional_Energy-OPLS-2005>
7.88753652572632

> <r_mmod_Van_der_Waal_Energy-OPLS-2005>
140.771133422852

> <r_mmod_Electrostatic_Energy-OPLS-2005>
-605.655700683594

> <r_mmod_Solvation_Energy-OPLS-2005>
-215.310775756836

> <b_mmod_Minimization_Converged-OPLS-2005>
0

> <r_mmod_RMS_Derivative-OPLS-2005>
9.65838623046875

$$$$
97
                    3D
 Structure written by MMmdl.
163171  0  0  1  0            999 V2000
  -30.6203  -14.6845   20.5217 C   0  0  0  0  0  0
  -30.4264  -12.4225   19.4847 C   0  0  0  0  0  0
  -29.5032  -12.5221   18.2495 C   0  0  0  0  0  0
  -28.0263  -12.3586   18.6503 C   0  0  0  0  0  0
  -27.6465  -13.2270   19.8788 C   0  0  2  0  0  0
  -28.6885  -13.1045   21.0186 C   0  0  0  0  0  0
  -25.2480  -13.8217   20.5689 C   0  0  0  0  0  0
  -24.1746  -13.0440   20.9149 C   0  0  0  0  0  0
  -24.6319  -11.6932   20.8662 C   0  0  0  0  0  0
  -23.8987  -10.4299   21.0342 C   0  0  0  0  0  0
  -24.3563   -9.4256   21.9155 C   0  0  0  0  0  0
  -23.6296   -8.2266   22.0757 C   0  0  0  0  0  0
  -22.4300   -8.0238   21.3536 C   0  0  0  0  0  0
  -21.9869   -9.0173   20.4648 C   0  0  0  0  0  0
  -22.7128  -10.2107   20.3041 C   0  0  0  0  0  0
  -21.6909   -6.0664   22.5266 C   0  0  0  0  0  0
  -21.4011   -6.5594   23.8174 C   0  0  0  0  0  0
  -21.3667   -5.6787   24.9163 C   0  0  0  0  0  0
  -21.6085   -4.3044   24.7252 C   0  0  0  0  0  0
  -21.8826   -3.8100   23.4388 C   0  0  0  0  0  0
  -21.9211   -4.6882   22.3430 C   0  0  0  0  0  0
  -22.7793  -13.5230   21.1834 C   0  0  0  0  0  0
  -22.1680   -4.2035   21.1015 F   0  0  0  0  0  0
  -21.5649   -3.4558   25.7782 F   0  0  0  0  0  0
  -30.0029  -13.4581   20.4594 N   0  0  0  0  0  0
  -26.2919  -12.9385   20.3406 N   0  0  0  0  0  0
  -25.9263  -11.6518   20.5745 N   0  0  0  0  0  0
  -22.0546  -12.8137   22.0430 N   0  0  0  0  0  0
  -25.4185  -15.1937   20.4118 N   0  0  0  0  0  0
  -31.7661  -14.8289   20.0813 O   0  0  0  0  0  0
  -21.6697   -6.8800   21.4232 O   0  0  0  0  0  0
  -22.3412  -14.5531   20.6761 O   0  0  0  0  0  0
  -24.6324  -31.8474   23.1906 C   0  0  0  0  0  0
  -25.9155  -32.4683   23.8275 C   0  0  1  0  0  0
  -27.2542  -27.2815   20.1417 C   0  0  0  0  0  0
  -25.5960  -33.8498   24.2167 N   0  0  0  0  0  0
  -23.4299  -30.4656   21.5278 C   0  0  2  0  0  0
  -24.8830  -28.9013   20.1048 C   0  0  0  0  0  0
  -22.7498  -29.4545   22.4843 C   0  0  0  0  0  0
  -18.0297  -28.1343   22.8467 C   0  0  0  0  0  0
  -24.1494  -36.7305   23.2636 C   0  0  0  0  0  0
  -25.9704  -30.7683   21.3645 C   0  0  0  0  0  0
  -26.0476  -29.3920   20.7098 C   0  0  0  0  0  0
  -27.2307  -28.5934   20.7134 C   0  0  0  0  0  0
  -26.0660  -26.8378   19.5168 C   0  0  0  0  0  0
  -24.8969  -27.6298   19.4997 C   0  0  0  0  0  0
  -23.6498  -29.7875   20.1471 C   0  0  0  0  0  0
  -25.4123  -36.3020   24.0283 C   0  0  1  0  0  0
  -20.5906  -28.3649   23.1242 C   0  0  2  0  0  0
  -20.6779  -26.9355   22.5387 C   0  0  0  0  0  0
  -19.5771  -26.6347   21.5160 C   0  0  0  0  0  0
  -18.1947  -26.7900   22.1582 C   0  0  0  0  0  0
  -19.1558  -28.8814   23.2868 C   0  0  0  0  0  0
  -18.9488  -30.1418   23.8867 C   0  0  0  0  0  0
  -17.6483  -30.6553   24.0537 C   0  0  0  0  0  0
  -25.9088  -34.9390   23.5045 C   0  0  0  0  0  0
  -16.5371  -29.9053   23.6305 C   0  0  0  0  0  0
  -16.7284  -28.6472   23.0332 C   0  0  0  0  0  0
  -26.4531  -31.6574   25.0718 C   0  0  0  0  0  0
  -25.3763  -31.3756   26.1450 C   0  0  0  0  0  0
  -27.0355  -30.2964   24.6269 C   0  0  0  0  0  0
  -27.6078  -32.4314   25.7497 C   0  0  0  0  0  0
  -27.5569  -37.1793   24.8433 C   0  0  0  0  0  0
  -21.4190  -29.3002   22.3617 N   0  0  0  0  0  0
  -26.4266  -37.3730   23.9413 N   0  0  0  0  0  0
  -24.6950  -31.0479   22.0835 N   0  0  0  0  0  0
  -23.4196  -28.8085   23.2946 O   0  0  0  0  0  0
  -28.3985  -26.4697   20.2570 O   0  0  0  0  0  0
  -26.5631  -34.8852   22.4600 O   0  0  0  0  0  0
  -23.5479  -32.1304   23.7206 O   0  0  0  0  0  0
  -32.4940  -19.6659   21.5192 C   0  0  0  0  0  0
  -31.6032  -20.2174   20.5708 C   0  0  0  0  0  0
  -30.2412  -19.8138   20.6566 C   0  0  0  0  0  0
  -30.1016  -18.4715   21.2300 C   0  0  0  0  0  0
  -33.8681  -21.3997   17.6091 C   0  0  0  0  0  0
  -32.1534  -21.1471   19.4968 C   0  0  0  0  0  0
  -29.1395  -20.9646   20.8429 C   0  0  0  0  0  0
  -29.9681  -17.1927   20.3121 C   0  0  0  0  0  0
  -33.2410  -20.4615   18.6462 C   0  0  0  0  0  0
  -29.1934  -22.4014   20.0780 C   0  0  0  0  0  0
  -28.3916  -23.7230   20.5840 C   0  0  0  0  0  0
  -28.5639  -25.0835   19.7236 C   0  0  0  0  0  0
  -32.1053  -18.7290   22.4164 N   0  0  0  0  0  0
  -30.9268  -18.1209   22.2511 N   0  0  0  0  0  0
  -29.8533  -15.7755   20.8625 N   0  0  0  0  0  0
  -31.4656  -12.5496   19.1773 H   0  0  0  0  0  0
  -30.3698  -11.4283   19.9283 H   0  0  0  0  0  0
  -29.7775  -11.7766   17.5013 H   0  0  0  0  0  0
  -29.6381  -13.4945   17.7764 H   0  0  0  0  0  0
  -27.8580  -11.3019   18.8591 H   0  0  0  0  0  0
  -27.3776  -12.6127   17.8111 H   0  0  0  0  0  0
  -27.6554  -14.2605   19.5318 H   0  0  0  0  0  0
  -28.7058  -12.0855   21.4086 H   0  0  0  0  0  0
  -28.4286  -13.7423   21.8663 H   0  0  0  0  0  0
  -25.2702   -9.5792   22.4695 H   0  0  0  0  0  0
  -24.0040   -7.4686   22.7495 H   0  0  0  0  0  0
  -21.0795   -8.8609   19.8970 H   0  0  0  0  0  0
  -22.3488  -10.9587   19.6143 H   0  0  0  0  0  0
  -21.1979   -7.6101   23.9610 H   0  0  0  0  0  0
  -21.1500   -6.0557   25.9053 H   0  0  0  0  0  0
  -22.0604   -2.7536   23.2945 H   0  0  0  0  0  0
  -22.4265  -11.9785   22.4679 H   0  0  0  0  0  0
  -21.1154  -13.1044   22.2747 H   0  0  0  0  0  0
  -24.6661  -15.8598   20.5579 H   0  0  0  0  0  0
  -26.2771  -15.6285   20.0996 H   0  0  0  0  0  0
  -26.7234  -32.5313   23.1035 H   0  0  0  0  0  0
  -25.0133  -33.9658   25.0312 H   0  0  0  0  0  0
  -22.7264  -31.2858   21.3707 H   0  0  0  0  0  0
  -23.3709  -35.9671   23.3243 H   0  0  0  0  0  0
  -24.3612  -36.9027   22.2071 H   0  0  0  0  0  0
  -23.7295  -37.6514   23.6714 H   0  0  0  0  0  0
  -26.1080  -31.5278   20.5952 H   0  0  0  0  0  0
  -26.8450  -30.8237   22.0005 H   0  0  0  0  0  0
  -28.1276  -28.9649   21.1895 H   0  0  0  0  0  0
  -26.0137  -25.8528   19.0781 H   0  0  0  0  0  0
  -24.0075  -27.2291   19.0328 H   0  0  0  0  0  0
  -23.7791  -30.5585   19.3850 H   0  0  0  0  0  0
  -22.7674  -29.2246   19.8407 H   0  0  0  0  0  0
  -25.1288  -36.1843   25.0758 H   0  0  0  0  0  0
  -21.0028  -28.3237   24.1362 H   0  0  0  0  0  0
  -20.5645  -26.2242   23.3596 H   0  0  0  0  0  0
  -21.6656  -26.7352   22.1210 H   0  0  0  0  0  0
  -19.6951  -25.6254   21.1223 H   0  0  0  0  0  0
  -19.6754  -27.3120   20.6656 H   0  0  0  0  0  0
  -17.4230  -26.6608   21.3988 H   0  0  0  0  0  0
  -18.0384  -26.0019   22.8962 H   0  0  0  0  0  0
  -19.7971  -30.7229   24.2234 H   0  0  0  0  0  0
  -17.5044  -31.6239   24.5143 H   0  0  0  0  0  0
  -15.5382  -30.2943   23.7649 H   0  0  0  0  0  0
  -15.8682  -28.0792   22.7029 H   0  0  0  0  0  0
  -24.5932  -30.7083   25.7856 H   0  0  0  0  0  0
  -24.8952  -32.2919   26.4866 H   0  0  0  0  0  0
  -25.8111  -30.9009   27.0247 H   0  0  0  0  0  0
  -26.2940  -29.6720   24.1284 H   0  0  0  0  0  0
  -27.3979  -29.7253   25.4840 H   0  0  0  0  0  0
  -27.8813  -30.4189   23.9491 H   0  0  0  0  0  0
  -27.2698  -33.3625   26.2031 H   0  0  0  0  0  0
  -28.3925  -32.6887   25.0372 H   0  0  0  0  0  0
  -28.0681  -31.8481   26.5493 H   0  0  0  0  0  0
  -28.2499  -38.0168   24.7519 H   0  0  0  0  0  0
  -28.1139  -36.2710   24.6141 H   0  0  0  0  0  0
  -27.2313  -37.1279   25.8834 H   0  0  0  0  0  0
  -20.9337  -29.8806   21.6914 H   0  0  0  0  0  0
  -26.0125  -38.2766   24.1496 H   0  0  0  0  0  0
  -33.5280  -19.9773   21.5536 H   0  0  0  0  0  0
  -34.7951  -20.9754   17.2201 H   0  0  0  0  0  0
  -34.1167  -22.3625   18.0568 H   0  0  0  0  0  0
  -33.2005  -21.5810   16.7648 H   0  0  0  0  0  0
  -32.5577  -22.0449   19.9695 H   0  0  0  0  0  0
  -31.3665  -21.4597   18.8145 H   0  0  0  0  0  0
  -29.1786  -21.1969   21.9094 H   0  0  0  0  0  0
  -28.1591  -20.5063   20.7088 H   0  0  0  0  0  0
  -30.8410  -17.2116   19.6555 H   0  0  0  0  0  0
  -29.1116  -17.3564   19.6599 H   0  0  0  0  0  0
  -34.0372  -20.0978   19.2931 H   0  0  0  0  0  0
  -32.8347  -19.5796   18.1441 H   0  0  0  0  0  0
  -28.9474  -22.2224   19.0288 H   0  0  0  0  0  0
  -30.2255  -22.7387   20.0960 H   0  0  0  0  0  0
  -28.7076  -23.9308   21.6078 H   0  0  0  0  0  0
  -27.3244  -23.4990   20.6516 H   0  0  0  0  0  0
  -28.0658  -24.9846   18.7594 H   0  0  0  0  0  0
  -29.6230  -25.0773   19.4653 H   0  0  0  0  0  0
  -28.9637  -15.5644   21.2891 H   0  0  0  0  0  0
  1 25  1  0  0  0
  1 30  2  0  0  0
  1 85  1  0  0  0
  2  3  1  0  0  0
  2 25  1  0  0  0
  2 86  1  0  0  0
  2 87  1  0  0  0
  3  4  1  0  0  0
  3 88  1  0  0  0
  3 89  1  0  0  0
  4  5  1  0  0  0
  4 90  1  0  0  0
  4 91  1  0  0  0
  5  6  1  0  0  0
  5 26  1  0  0  0
  5 92  1  0  0  0
  6 25  1  0  0  0
  6 93  1  0  0  0
  6 94  1  0  0  0
  7  8  2  0  0  0
  7 26  1  0  0  0
  7 29  1  0  0  0
  8  9  1  0  0  0
  8 22  1  0  0  0
  9 10  1  0  0  0
  9 27  2  0  0  0
 10 11  2  0  0  0
 10 15  1  0  0  0
 11 12  1  0  0  0
 11 95  1  0  0  0
 12 13  2  0  0  0
 12 96  1  0  0  0
 13 14  1  0  0  0
 13 31  1  0  0  0
 14 15  2  0  0  0
 14 97  1  0  0  0
 15 98  1  0  0  0
 16 17  2  0  0  0
 16 21  1  0  0  0
 16 31  1  0  0  0
 17 18  1  0  0  0
 17 99  1  0  0  0
 18 19  2  0  0  0
 18100  1  0  0  0
 19 20  1  0  0  0
 19 24  1  0  0  0
 20 21  2  0  0  0
 20101  1  0  0  0
 21 23  1  0  0  0
 22 28  1  0  0  0
 22 32  2  0  0  0
 26 27  1  0  0  0
 28102  1  0  0  0
 28103  1  0  0  0
 29104  1  0  0  0
 29105  1  0  0  0
 33 34  1  0  0  0
 33 66  1  0  0  0
 33 70  2  0  0  0
 34 36  1  0  0  0
 34 59  1  0  0  0
 34106  1  0  0  0
 35 44  2  0  0  0
 35 45  1  0  0  0
 35 68  1  0  0  0
 36 56  1  0  0  0
 36107  1  0  0  0
 37 39  1  0  0  0
 37 47  1  0  0  0
 37 66  1  0  0  0
 37108  1  0  0  0
 38 43  2  0  0  0
 38 46  1  0  0  0
 38 47  1  0  0  0
 39 64  1  0  0  0
 39 67  2  0  0  0
 40 52  1  0  0  0
 40 53  2  0  0  0
 40 58  1  0  0  0
 41109  1  0  0  0
 41110  1  0  0  0
 41111  1  0  0  0
 41 48  1  0  0  0
 42 43  1  0  0  0
 42 66  1  0  0  0
 42112  1  0  0  0
 42113  1  0  0  0
 43 44  1  0  0  0
 44114  1  0  0  0
 45 46  2  0  0  0
 45115  1  0  0  0
 46116  1  0  0  0
 47117  1  0  0  0
 47118  1  0  0  0
 48 56  1  0  0  0
 48 65  1  0  0  0
 48119  1  0  0  0
 49 50  1  0  0  0
 49 53  1  0  0  0
 49 64  1  0  0  0
 49120  1  0  0  0
 50 51  1  0  0  0
 50121  1  0  0  0
 50122  1  0  0  0
 51 52  1  0  0  0
 51123  1  0  0  0
 51124  1  0  0  0
 52125  1  0  0  0
 52126  1  0  0  0
 53 54  1  0  0  0
 54 55  2  0  0  0
 54127  1  0  0  0
 55 57  1  0  0  0
 55128  1  0  0  0
 56 69  2  0  0  0
 57 58  2  0  0  0
 57129  1  0  0  0
 58130  1  0  0  0
 59 60  1  0  0  0
 59 61  1  0  0  0
 59 62  1  0  0  0
 60131  1  0  0  0
 60132  1  0  0  0
 60133  1  0  0  0
 61134  1  0  0  0
 61135  1  0  0  0
 61136  1  0  0  0
 62137  1  0  0  0
 62138  1  0  0  0
 62139  1  0  0  0
 63 65  1  0  0  0
 63140  1  0  0  0
 63141  1  0  0  0
 63142  1  0  0  0
 64143  1  0  0  0
 65144  1  0  0  0
 68 82  1  0  0  0
 71 72  2  0  0  0
 71 83  1  0  0  0
 71145  1  0  0  0
 72 73  1  0  0  0
 72 76  1  0  0  0
 73 74  2  0  0  0
 73 77  1  0  0  0
 74 78  1  0  0  0
 74 84  1  0  0  0
 75 79  1  0  0  0
 75146  1  0  0  0
 75147  1  0  0  0
 75148  1  0  0  0
 76 79  1  0  0  0
 76149  1  0  0  0
 76150  1  0  0  0
 77 80  1  0  0  0
 77151  1  0  0  0
 77152  1  0  0  0
 78 85  1  0  0  0
 78153  1  0  0  0
 78154  1  0  0  0
 79155  1  0  0  0
 79156  1  0  0  0
 80 81  1  0  0  0
 80157  1  0  0  0
 80158  1  0  0  0
 81 82  1  0  0  0
 81159  1  0  0  0
 81160  1  0  0  0
 82161  1  0  0  0
 82162  1  0  0  0
 83 84  2  0  0  0
 85163  1  0  0  0
M  ISO  4   1 100  68 101  82 101  85 100
M  END
> <chiral flag>
0

> <version>
0

> <s_m_source_file>
/data/baiqing/PycharmProjects/Reinvent-master-3.2/result/LINK_invent/BTK/process_docking_weight1_custom_sum_contain_oxygen_bond_distance_aromatic_linkinvent_7_9_3/rearranged_h_0093.sdf

> <i_m_source_file_index>
98

> <r_mmod_Potential_Energy-OPLS-2005>
359.309997558594

> <r_mmod_Stretch_Energy-OPLS-2005>
123.64559173584

> <r_mmod_Bend_Energy-OPLS-2005>
204.705657958984

> <r_mmod_Torsional_Energy-OPLS-2005>
387.779266357422

> <r_mmod_Improper_Torsional_Energy-OPLS-2005>
29.6916255950928

> <r_mmod_Van_der_Waal_Energy-OPLS-2005>
140.949340820312

> <r_mmod_Electrostatic_Energy-OPLS-2005>
-355.103393554688

> <r_mmod_Solvation_Energy-OPLS-2005>
-237.924285888672

> <b_mmod_Minimization_Converged-OPLS-2005>
0

> <r_mmod_RMS_Derivative-OPLS-2005>
5.97071599960327

$$$$
98
                    3D
 Structure written by MMmdl.
181189  0  0  1  0            999 V2000
  -30.6204  -14.7425   20.4622 C   0  0  0  0  0  0
  -30.4280  -12.4549   19.4736 C   0  0  0  0  0  0
  -29.5063  -12.5068   18.2357 C   0  0  0  0  0  0
  -28.0326  -12.3312   18.6497 C   0  0  0  0  0  0
  -27.6392  -13.2332   19.8499 C   0  0  2  0  0  0
  -28.6839  -13.1724   20.9840 C   0  0  0  0  0  0
  -25.2492  -13.8202   20.5693 C   0  0  0  0  0  0
  -24.1788  -13.0434   20.9207 C   0  0  0  0  0  0
  -24.6394  -11.6919   20.8752 C   0  0  0  0  0  0
  -23.9072  -10.4289   21.0407 C   0  0  0  0  0  0
  -24.3622   -9.4202   21.9183 C   0  0  0  0  0  0
  -23.6296   -8.2240   22.0755 C   0  0  0  0  0  0
  -22.4280   -8.0278   21.3544 C   0  0  0  0  0  0
  -21.9918   -9.0252   20.4644 C   0  0  0  0  0  0
  -22.7247  -10.2132   20.3057 C   0  0  0  0  0  0
  -21.6852   -6.0735   22.5277 C   0  0  0  0  0  0
  -21.4014   -6.5639   23.8210 C   0  0  0  0  0  0
  -21.3661   -5.6793   24.9173 C   0  0  0  0  0  0
  -21.6047   -4.3057   24.7225 C   0  0  0  0  0  0
  -21.8816   -3.8148   23.4345 C   0  0  0  0  0  0
  -21.9192   -4.6963   22.3401 C   0  0  0  0  0  0
  -22.7808  -13.5209   21.1872 C   0  0  0  0  0  0
  -22.1657   -4.2146   21.0977 F   0  0  0  0  0  0
  -21.5635   -3.4543   25.7741 F   0  0  0  0  0  0
  -29.9834  -13.5229   20.3987 N   0  0  0  0  0  0
  -26.2921  -12.9413   20.3286 N   0  0  0  0  0  0
  -25.9322  -11.6551   20.5760 N   0  0  0  0  0  0
  -22.0468  -12.8188   22.0432 N   0  0  0  0  0  0
  -25.4167  -15.1927   20.4107 N   0  0  0  0  0  0
  -31.8137  -14.8215   20.1610 O   0  0  0  0  0  0
  -21.6641   -6.8881   21.4240 O   0  0  0  0  0  0
  -22.3484  -14.5509   20.6723 O   0  0  0  0  0  0
  -24.6326  -31.8535   23.1986 C   0  0  0  0  0  0
  -25.9144  -32.4743   23.8330 C   0  0  1  0  0  0
  -27.2147  -27.2455   20.1294 C   0  0  0  0  0  0
  -25.5927  -33.8553   24.2238 N   0  0  0  0  0  0
  -23.4299  -30.4772   21.5410 C   0  0  2  0  0  0
  -24.8768  -28.9275   20.1066 C   0  0  0  0  0  0
  -22.7511  -29.4589   22.4890 C   0  0  0  0  0  0
  -18.0295  -28.1385   22.8477 C   0  0  0  0  0  0
  -24.1493  -36.7302   23.2637 C   0  0  0  0  0  0
  -25.9779  -30.7617   21.3827 C   0  0  0  0  0  0
  -26.0482  -29.3839   20.7232 C   0  0  0  0  0  0
  -27.2171  -28.5542   20.7276 C   0  0  0  0  0  0
  -26.0225  -26.8727   19.4662 C   0  0  0  0  0  0
  -24.8707  -27.6808   19.4658 C   0  0  0  0  0  0
  -23.6483  -29.8149   20.1555 C   0  0  0  0  0  0
  -25.4119  -36.3073   24.0312 C   0  0  1  0  0  0
  -20.5900  -28.3706   23.1276 C   0  0  2  0  0  0
  -20.6789  -26.9424   22.5412 C   0  0  0  0  0  0
  -19.5757  -26.6380   21.5225 C   0  0  0  0  0  0
  -18.1934  -26.7924   22.1630 C   0  0  0  0  0  0
  -19.1546  -28.8863   23.2861 C   0  0  0  0  0  0
  -18.9469  -30.1469   23.8867 C   0  0  0  0  0  0
  -17.6464  -30.6581   24.0571 C   0  0  0  0  0  0
  -25.9053  -34.9441   23.5080 C   0  0  0  0  0  0
  -16.5354  -29.9076   23.6340 C   0  0  0  0  0  0
  -16.7282  -28.6506   23.0341 C   0  0  0  0  0  0
  -26.4495  -31.6566   25.0729 C   0  0  0  0  0  0
  -25.3721  -31.3707   26.1452 C   0  0  0  0  0  0
  -27.0354  -30.2981   24.6242 C   0  0  0  0  0  0
  -27.6043  -32.4311   25.7495 C   0  0  0  0  0  0
  -27.5580  -37.1804   24.8455 C   0  0  0  0  0  0
  -21.4215  -29.3041   22.3653 N   0  0  0  0  0  0
  -26.4294  -37.3774   23.9398 N   0  0  0  0  0  0
  -24.6990  -31.0496   22.0963 N   0  0  0  0  0  0
  -23.4204  -28.8135   23.3002 O   0  0  0  0  0  0
  -28.3048  -26.3388   20.2206 O   0  0  0  0  0  0
  -26.5636  -34.8916   22.4656 O   0  0  0  0  0  0
  -23.5475  -32.1351   23.7285 O   0  0  0  0  0  0
  -30.6519  -22.0012   18.9283 C   0  0  0  0  0  0
  -31.3591  -21.1695   18.1323 C   0  0  0  0  0  0
  -30.9229  -19.8371   18.4080 C   0  0  0  0  0  0
  -30.0404  -19.8769   19.4901 C   0  0  0  0  0  0
  -30.3607  -17.5666   17.2579 C   0  0  0  0  0  0
  -32.8057  -18.1580   17.8523 C   0  0  0  0  0  0
  -32.0340  -24.0753   14.0425 C   0  0  0  0  0  0
  -32.7637  -24.7827   16.3443 C   0  0  0  0  0  0
  -28.5057  -24.7655   18.3789 C   0  0  0  0  0  0
  -32.3597  -21.6756   17.1142 C   0  0  0  0  0  0
  -29.3996  -18.6017   20.1788 C   0  0  0  0  0  0
  -31.6906  -22.4941   15.9904 C   0  0  0  0  0  0
  -28.9525  -23.7299   20.7071 C   0  0  0  0  0  0
  -28.7459  -22.1074   20.4924 C   0  0  0  0  0  0
  -30.3497  -17.3554   20.6369 C   0  0  0  0  0  0
  -31.3922  -18.6773   17.5194 C   0  0  0  0  0  0
  -32.5945  -23.5885   15.3861 C   0  0  0  0  0  0
  -28.1590  -24.8730   19.8705 C   0  0  1  0  0  0
  -29.7609  -21.2982   19.7056 N   0  0  0  0  0  0
  -29.8704  -15.8951   20.6610 N   0  0  0  0  0  0
  -31.4702  -12.5743   19.1719 H   0  0  0  0  0  0
  -30.3675  -11.4803   19.9609 H   0  0  0  0  0  0
  -29.7872  -11.7333   17.5194 H   0  0  0  0  0  0
  -29.6324  -13.4611   17.7215 H   0  0  0  0  0  0
  -27.8879  -11.2827   18.9131 H   0  0  0  0  0  0
  -27.3757  -12.5219   17.8010 H   0  0  0  0  0  0
  -27.6318  -14.2538   19.4668 H   0  0  0  0  0  0
  -28.7185  -12.1758   21.4261 H   0  0  0  0  0  0
  -28.4214  -13.8566   21.7924 H   0  0  0  0  0  0
  -25.2768   -9.5677   22.4754 H   0  0  0  0  0  0
  -24.0003   -7.4634   22.7479 H   0  0  0  0  0  0
  -21.0852   -8.8771   19.8949 H   0  0  0  0  0  0
  -22.3704  -10.9671   19.6168 H   0  0  0  0  0  0
  -21.2001   -7.6146   23.9710 H   0  0  0  0  0  0
  -21.1491   -6.0527   25.9076 H   0  0  0  0  0  0
  -22.0596   -2.7608   23.2849 H   0  0  0  0  0  0
  -22.4104  -11.9852   22.4805 H   0  0  0  0  0  0
  -21.1086  -13.1197   22.2657 H   0  0  0  0  0  0
  -24.6467  -15.8442   20.5183 H   0  0  0  0  0  0
  -26.2590  -15.6325   20.0632 H   0  0  0  0  0  0
  -26.7214  -32.5375   23.1070 H   0  0  0  0  0  0
  -25.0049  -33.9688   25.0367 H   0  0  0  0  0  0
  -22.7277  -31.3007   21.3963 H   0  0  0  0  0  0
  -23.3752  -35.9635   23.3286 H   0  0  0  0  0  0
  -24.3576  -36.8950   22.2053 H   0  0  0  0  0  0
  -23.7256  -37.6500   23.6685 H   0  0  0  0  0  0
  -26.1231  -31.5230   20.6150 H   0  0  0  0  0  0
  -26.8538  -30.8092   22.0182 H   0  0  0  0  0  0
  -28.1100  -28.8927   21.2349 H   0  0  0  0  0  0
  -25.9371  -25.9323   18.9455 H   0  0  0  0  0  0
  -23.9780  -27.3309   18.9668 H   0  0  0  0  0  0
  -23.7727  -30.5928   19.4016 H   0  0  0  0  0  0
  -22.7670  -29.2477   19.8491 H   0  0  0  0  0  0
  -25.1304  -36.1916   25.0803 H   0  0  0  0  0  0
  -20.9984  -28.3300   24.1406 H   0  0  0  0  0  0
  -20.5731  -26.2312   23.3612 H   0  0  0  0  0  0
  -21.6656  -26.7466   22.1190 H   0  0  0  0  0  0
  -19.6928  -25.6295   21.1248 H   0  0  0  0  0  0
  -19.6698  -27.3201   20.6765 H   0  0  0  0  0  0
  -17.4215  -26.6681   21.4018 H   0  0  0  0  0  0
  -18.0322  -26.0059   22.9023 H   0  0  0  0  0  0
  -19.7947  -30.7299   24.2200 H   0  0  0  0  0  0
  -17.5020  -31.6252   24.5194 H   0  0  0  0  0  0
  -15.5355  -30.2969   23.7678 H   0  0  0  0  0  0
  -15.8687  -28.0829   22.7042 H   0  0  0  0  0  0
  -24.5909  -30.7030   25.7796 H   0  0  0  0  0  0
  -24.8892  -32.2868   26.4868 H   0  0  0  0  0  0
  -25.8049  -30.8906   27.0239 H   0  0  0  0  0  0
  -26.2953  -29.6700   24.1273 H   0  0  0  0  0  0
  -27.4029  -29.7269   25.4775 H   0  0  0  0  0  0
  -27.8828  -30.4233   23.9500 H   0  0  0  0  0  0
  -27.2649  -33.3626   26.2035 H   0  0  0  0  0  0
  -28.3869  -32.6838   25.0329 H   0  0  0  0  0  0
  -28.0689  -31.8452   26.5437 H   0  0  0  0  0  0
  -28.2583  -38.0118   24.7533 H   0  0  0  0  0  0
  -28.1091  -36.2649   24.6250 H   0  0  0  0  0  0
  -27.2298  -37.1425   25.8858 H   0  0  0  0  0  0
  -20.9397  -29.8759   21.6850 H   0  0  0  0  0  0
  -26.0166  -38.2844   24.1413 H   0  0  0  0  0  0
  -30.6870  -23.0793   18.9326 H   0  0  0  0  0  0
  -29.3956  -17.9894   16.9769 H   0  0  0  0  0  0
  -30.2034  -16.9012   18.0995 H   0  0  0  0  0  0
  -30.6876  -16.9349   16.4315 H   0  0  0  0  0  0
  -33.5413  -18.9601   17.8095 H   0  0  0  0  0  0
  -33.1186  -17.4034   17.1302 H   0  0  0  0  0  0
  -32.8960  -17.7113   18.8377 H   0  0  0  0  0  0
  -32.6677  -24.8481   13.6046 H   0  0  0  0  0  0
  -31.0341  -24.4950   14.1597 H   0  0  0  0  0  0
  -31.9693  -23.2595   13.3210 H   0  0  0  0  0  0
  -33.4104  -25.5474   15.9122 H   0  0  0  0  0  0
  -33.2074  -24.4892   17.2955 H   0  0  0  0  0  0
  -31.8038  -25.2511   16.5660 H   0  0  0  0  0  0
  -27.8870  -25.4203   17.7657 H   0  0  0  0  0  0
  -28.3660  -23.7476   18.0157 H   0  0  0  0  0  0
  -29.5456  -25.0420   18.2013 H   0  0  0  0  0  0
  -32.9471  -20.8669   16.6816 H   0  0  0  0  0  0
  -33.0761  -22.2870   17.6609 H   0  0  0  0  0  0
  -28.6495  -18.2068   19.4937 H   0  0  0  0  0  0
  -28.8218  -18.9253   21.0446 H   0  0  0  0  0  0
  -30.7863  -22.9795   16.3600 H   0  0  0  0  0  0
  -31.3498  -21.8021   15.2193 H   0  0  0  0  0  0
  -30.0130  -23.9732   20.7374 H   0  0  0  0  0  0
  -28.6453  -23.9040   21.7383 H   0  0  0  0  0  0
  -27.7635  -21.9293   20.0525 H   0  0  0  0  0  0
  -28.6973  -21.6435   21.4781 H   0  0  0  0  0  0
  -30.7364  -17.5870   21.6302 H   0  0  0  0  0  0
  -31.2338  -17.3660   20.0165 H   0  0  0  0  0  0
  -31.4934  -19.1300   16.5320 H   0  0  0  0  0  0
  -33.5785  -23.1563   15.1947 H   0  0  0  0  0  0
  -27.1182  -24.5847   20.0066 H   0  0  0  0  0  0
  -28.8911  -15.7499   20.8538 H   0  0  0  0  0  0
  1 25  1  0  0  0
  1 30  2  0  0  0
  1 90  1  0  0  0
  2  3  1  0  0  0
  2 25  1  0  0  0
  2 91  1  0  0  0
  2 92  1  0  0  0
  3  4  1  0  0  0
  3 93  1  0  0  0
  3 94  1  0  0  0
  4  5  1  0  0  0
  4 95  1  0  0  0
  4 96  1  0  0  0
  5  6  1  0  0  0
  5 26  1  0  0  0
  5 97  1  0  0  0
  6 25  1  0  0  0
  6 98  1  0  0  0
  6 99  1  0  0  0
  7  8  2  0  0  0
  7 26  1  0  0  0
  7 29  1  0  0  0
  8  9  1  0  0  0
  8 22  1  0  0  0
  9 10  1  0  0  0
  9 27  2  0  0  0
 10 11  2  0  0  0
 10 15  1  0  0  0
 11 12  1  0  0  0
 11100  1  0  0  0
 12 13  2  0  0  0
 12101  1  0  0  0
 13 14  1  0  0  0
 13 31  1  0  0  0
 14 15  2  0  0  0
 14102  1  0  0  0
 15103  1  0  0  0
 16 17  2  0  0  0
 16 21  1  0  0  0
 16 31  1  0  0  0
 17 18  1  0  0  0
 17104  1  0  0  0
 18 19  2  0  0  0
 18105  1  0  0  0
 19 20  1  0  0  0
 19 24  1  0  0  0
 20 21  2  0  0  0
 20106  1  0  0  0
 21 23  1  0  0  0
 22 28  1  0  0  0
 22 32  2  0  0  0
 26 27  1  0  0  0
 28107  1  0  0  0
 28108  1  0  0  0
 29109  1  0  0  0
 29110  1  0  0  0
 33 34  1  0  0  0
 33 66  1  0  0  0
 33 70  2  0  0  0
 34 36  1  0  0  0
 34 59  1  0  0  0
 34111  1  0  0  0
 35 44  2  0  0  0
 35 45  1  0  0  0
 35 68  1  0  0  0
 36 56  1  0  0  0
 36112  1  0  0  0
 37 39  1  0  0  0
 37 47  1  0  0  0
 37 66  1  0  0  0
 37113  1  0  0  0
 38 43  2  0  0  0
 38 46  1  0  0  0
 38 47  1  0  0  0
 39 64  1  0  0  0
 39 67  2  0  0  0
 40 52  1  0  0  0
 40 53  2  0  0  0
 40 58  1  0  0  0
 41114  1  0  0  0
 41115  1  0  0  0
 41116  1  0  0  0
 41 48  1  0  0  0
 42 43  1  0  0  0
 42 66  1  0  0  0
 42117  1  0  0  0
 42118  1  0  0  0
 43 44  1  0  0  0
 44119  1  0  0  0
 45 46  2  0  0  0
 45120  1  0  0  0
 46121  1  0  0  0
 47122  1  0  0  0
 47123  1  0  0  0
 48 56  1  0  0  0
 48 65  1  0  0  0
 48124  1  0  0  0
 49 50  1  0  0  0
 49 53  1  0  0  0
 49 64  1  0  0  0
 49125  1  0  0  0
 50 51  1  0  0  0
 50126  1  0  0  0
 50127  1  0  0  0
 51 52  1  0  0  0
 51128  1  0  0  0
 51129  1  0  0  0
 52130  1  0  0  0
 52131  1  0  0  0
 53 54  1  0  0  0
 54 55  2  0  0  0
 54132  1  0  0  0
 55 57  1  0  0  0
 55133  1  0  0  0
 56 69  2  0  0  0
 57 58  2  0  0  0
 57134  1  0  0  0
 58135  1  0  0  0
 59 60  1  0  0  0
 59 61  1  0  0  0
 59 62  1  0  0  0
 60136  1  0  0  0
 60137  1  0  0  0
 60138  1  0  0  0
 61139  1  0  0  0
 61140  1  0  0  0
 61141  1  0  0  0
 62142  1  0  0  0
 62143  1  0  0  0
 62144  1  0  0  0
 63 65  1  0  0  0
 63145  1  0  0  0
 63146  1  0  0  0
 63147  1  0  0  0
 64148  1  0  0  0
 65149  1  0  0  0
 68 88  1  0  0  0
 71 72  2  0  0  0
 71 89  1  0  0  0
 71150  1  0  0  0
 72 73  1  0  0  0
 72 80  1  0  0  0
 73 74  2  0  0  0
 73 86  1  0  0  0
 74 81  1  0  0  0
 74 89  1  0  0  0
 75151  1  0  0  0
 75152  1  0  0  0
 75153  1  0  0  0
 75 86  1  0  0  0
 76 86  1  0  0  0
 76154  1  0  0  0
 76155  1  0  0  0
 76156  1  0  0  0
 77157  1  0  0  0
 77158  1  0  0  0
 77159  1  0  0  0
 77 87  1  0  0  0
 78 87  1  0  0  0
 78160  1  0  0  0
 78161  1  0  0  0
 78162  1  0  0  0
 79163  1  0  0  0
 79164  1  0  0  0
 79165  1  0  0  0
 79 88  1  0  0  0
 80 82  1  0  0  0
 80166  1  0  0  0
 80167  1  0  0  0
 81 85  1  0  0  0
 81168  1  0  0  0
 81169  1  0  0  0
 82 87  1  0  0  0
 82170  1  0  0  0
 82171  1  0  0  0
 83 84  1  0  0  0
 83 88  1  0  0  0
 83172  1  0  0  0
 83173  1  0  0  0
 84 89  1  0  0  0
 84174  1  0  0  0
 84175  1  0  0  0
 85 90  1  0  0  0
 85176  1  0  0  0
 85177  1  0  0  0
 86178  1  0  0  0
 87179  1  0  0  0
 88180  1  0  0  0
 90181  1  0  0  0
M  ISO  4   1 100  68 101  88 101  90 100
M  END
> <chiral flag>
0

> <version>
0

> <s_m_source_file>
/data/baiqing/PycharmProjects/Reinvent-master-3.2/result/LINK_invent/BTK/process_docking_weight1_custom_sum_contain_oxygen_bond_distance_aromatic_linkinvent_7_9_3/rearranged_h_0093.sdf

> <i_m_source_file_index>
99

> <r_mmod_Potential_Energy-OPLS-2005>
195.580139160156

> <r_mmod_Stretch_Energy-OPLS-2005>
150.994293212891

> <r_mmod_Bend_Energy-OPLS-2005>
221.178955078125

> <r_mmod_Torsional_Energy-OPLS-2005>
251.582565307617

> <r_mmod_Improper_Torsional_Energy-OPLS-2005>
5.216224193573

> <r_mmod_Van_der_Waal_Energy-OPLS-2005>
117.104309082031

> <r_mmod_Electrostatic_Energy-OPLS-2005>
-437.369232177734

> <r_mmod_Solvation_Energy-OPLS-2005>
-204.352737426758

> <b_mmod_Minimization_Converged-OPLS-2005>
0

> <r_mmod_RMS_Derivative-OPLS-2005>
1.38379919528961

$$$$
99
                    3D
 Structure written by MMmdl.
162170  0  0  1  0            999 V2000
  -30.4743  -15.2619   20.3694 C   0  0  0  0  0  0
  -30.4259  -12.8099   19.5138 C   0  0  0  0  0  0
  -29.5213  -12.5710   18.2804 C   0  0  0  0  0  0
  -28.0721  -12.3047   18.7163 C   0  0  0  0  0  0
  -27.6060  -13.2835   19.8223 C   0  0  2  0  0  0
  -28.6451  -13.4734   20.9491 C   0  0  0  0  0  0
  -25.2351  -13.8270   20.5793 C   0  0  0  0  0  0
  -24.1717  -13.0439   20.9285 C   0  0  0  0  0  0
  -24.6389  -11.6943   20.8783 C   0  0  0  0  0  0
  -23.9092  -10.4297   21.0412 C   0  0  0  0  0  0
  -24.3633   -9.4205   21.9192 C   0  0  0  0  0  0
  -23.6300   -8.2240   22.0758 C   0  0  0  0  0  0
  -22.4284   -8.0285   21.3537 C   0  0  0  0  0  0
  -21.9924   -9.0265   20.4643 C   0  0  0  0  0  0
  -22.7260  -10.2138   20.3061 C   0  0  0  0  0  0
  -21.6859   -6.0733   22.5271 C   0  0  0  0  0  0
  -21.4024   -6.5638   23.8205 C   0  0  0  0  0  0
  -21.3664   -5.6789   24.9166 C   0  0  0  0  0  0
  -21.6045   -4.3051   24.7217 C   0  0  0  0  0  0
  -21.8817   -3.8143   23.4338 C   0  0  0  0  0  0
  -21.9193   -4.6961   22.3395 C   0  0  0  0  0  0
  -22.7731  -13.5177   21.1925 C   0  0  0  0  0  0
  -22.1660   -4.2149   21.0971 F   0  0  0  0  0  0
  -21.5629   -3.4532   25.7728 F   0  0  0  0  0  0
  -29.8711  -13.9720   20.3057 N   0  0  0  0  0  0
  -26.2793  -12.9570   20.3267 N   0  0  0  0  0  0
  -25.9335  -11.6664   20.5756 N   0  0  0  0  0  0
  -22.0396  -12.8160   22.0484 N   0  0  0  0  0  0
  -25.3940  -15.2018   20.4233 N   0  0  0  0  0  0
  -31.6995  -15.1855   20.1876 O   0  0  0  0  0  0
  -21.6647   -6.8885   21.4238 O   0  0  0  0  0  0
  -22.3411  -14.5482   20.6768 O   0  0  0  0  0  0
  -24.6597  -31.8235   23.1715 C   0  0  0  0  0  0
  -25.9287  -32.4588   23.8168 C   0  0  1  0  0  0
  -27.2173  -26.9392   20.1793 C   0  0  0  0  0  0
  -25.5938  -33.8404   24.2076 N   0  0  0  0  0  0
  -23.4760  -30.4347   21.5204 C   0  0  2  0  0  0
  -24.9294  -28.8243   20.1129 C   0  0  0  0  0  0
  -22.7667  -29.4429   22.4780 C   0  0  0  0  0  0
  -18.0319  -28.1413   22.8458 C   0  0  0  0  0  0
  -24.1508  -36.7233   23.2647 C   0  0  0  0  0  0
  -26.0436  -30.6330   21.4014 C   0  0  0  0  0  0
  -26.1127  -29.2241   20.7453 C   0  0  0  0  0  0
  -27.2531  -28.3031   20.7524 C   0  0  0  0  0  0
  -26.0035  -26.6862   19.5025 C   0  0  0  0  0  0
  -24.8998  -27.5760   19.4708 C   0  0  0  0  0  0
  -23.7165  -29.7521   20.1464 C   0  0  0  0  0  0
  -25.4146  -36.2974   24.0293 C   0  0  1  0  0  0
  -20.5945  -28.3755   23.1186 C   0  0  2  0  0  0
  -20.6802  -26.9433   22.5403 C   0  0  0  0  0  0
  -19.5783  -26.6379   21.5207 C   0  0  0  0  0  0
  -18.1969  -26.7944   22.1612 C   0  0  0  0  0  0
  -19.1576  -28.8902   23.2804 C   0  0  0  0  0  0
  -18.9492  -30.1488   23.8843 C   0  0  0  0  0  0
  -17.6484  -30.6594   24.0558 C   0  0  0  0  0  0
  -25.9095  -34.9345   23.5017 C   0  0  0  0  0  0
  -16.5374  -29.9086   23.6335 C   0  0  0  0  0  0
  -16.7300  -28.6513   23.0340 C   0  0  0  0  0  0
  -26.4535  -31.6523   25.0692 C   0  0  0  0  0  0
  -25.3659  -31.3752   26.1344 C   0  0  0  0  0  0
  -27.0436  -30.2892   24.6428 C   0  0  0  0  0  0
  -27.6035  -32.4333   25.7491 C   0  0  0  0  0  0
  -27.5591  -37.1765   24.8452 C   0  0  0  0  0  0
  -21.4330  -29.3044   22.3541 N   0  0  0  0  0  0
  -26.4304  -37.3695   23.9390 N   0  0  0  0  0  0
  -24.7476  -30.9903   22.0848 N   0  0  0  0  0  0
  -23.4219  -28.7988   23.3015 O   0  0  0  0  0  0
  -28.2246  -25.8444   20.2522 O   0  0  0  0  0  0
  -26.5728  -34.8876   22.4630 O   0  0  0  0  0  0
  -23.5671  -32.1192   23.6815 O   0  0  0  0  0  0
  -31.0434  -20.2463   20.6734 C   0  0  0  0  0  0
  -29.8268  -19.6611   20.4314 C   0  0  0  0  0  0
  -30.2544  -18.1092   20.5002 C   0  0  0  0  0  0
  -36.0841  -19.0286   22.8132 C   0  0  0  0  0  0
  -35.0560  -20.3979   24.6693 C   0  0  0  0  0  0
  -28.6820  -20.9606   20.2115 C   0  0  0  0  0  0
  -28.9668  -22.7424   20.3406 C   0  0  0  0  0  0
  -33.6058  -19.6696   22.7327 C   0  0  0  0  0  0
  -33.4150  -19.5462   21.2116 C   0  0  0  0  0  0
  -27.9681  -24.2228   20.1088 C   0  0  0  0  0  0
  -35.0255  -20.0871   23.1650 C   0  0  0  0  0  0
  -31.5504  -18.0743   20.7859 N   0  0  0  0  0  0
  -32.0199  -19.3186   20.8810 N   0  0  0  0  0  0
  -29.7675  -16.5808   20.3983 N   0  0  0  0  0  0
  -31.4442  -12.9997   19.1714 H   0  0  0  0  0  0
  -30.4895  -11.9125   20.1311 H   0  0  0  0  0  0
  -29.8942  -11.7342   17.6877 H   0  0  0  0  0  0
  -29.5527  -13.4471   17.6313 H   0  0  0  0  0  0
  -28.0265  -11.2820   19.0926 H   0  0  0  0  0  0
  -27.4003  -12.3489   17.8586 H   0  0  0  0  0  0
  -27.5137  -14.2468   19.3191 H   0  0  0  0  0  0
  -28.8174  -12.5488   21.5020 H   0  0  0  0  0  0
  -28.2905  -14.2100   21.6719 H   0  0  0  0  0  0
  -25.2767   -9.5686   22.4783 H   0  0  0  0  0  0
  -23.9999   -7.4639   22.7489 H   0  0  0  0  0  0
  -21.0852   -8.8794   19.8957 H   0  0  0  0  0  0
  -22.3715  -10.9686   19.6184 H   0  0  0  0  0  0
  -21.2024   -7.6148   23.9709 H   0  0  0  0  0  0
  -21.1491   -6.0519   25.9073 H   0  0  0  0  0  0
  -22.0593   -2.7605   23.2832 H   0  0  0  0  0  0
  -22.4026  -11.9808   22.4842 H   0  0  0  0  0  0
  -21.1023  -13.1186   22.2727 H   0  0  0  0  0  0
  -24.6186  -15.8455   20.5427 H   0  0  0  0  0  0
  -26.2290  -15.6510   20.0723 H   0  0  0  0  0  0
  -26.7350  -32.5127   23.0871 H   0  0  0  0  0  0
  -24.9927  -33.9463   25.0115 H   0  0  0  0  0  0
  -22.7883  -31.2651   21.3521 H   0  0  0  0  0  0
  -23.3764  -35.9570   23.3264 H   0  0  0  0  0  0
  -24.3572  -36.8945   22.2072 H   0  0  0  0  0  0
  -23.7282  -37.6412   23.6741 H   0  0  0  0  0  0
  -26.2229  -31.3747   20.6222 H   0  0  0  0  0  0
  -26.9024  -30.6889   22.0584 H   0  0  0  0  0  0
  -28.1514  -28.6053   21.2726 H   0  0  0  0  0  0
  -25.8752  -25.7318   19.0131 H   0  0  0  0  0  0
  -23.9997  -27.2651   18.9571 H   0  0  0  0  0  0
  -23.8737  -30.5213   19.3899 H   0  0  0  0  0  0
  -22.8255  -29.2074   19.8286 H   0  0  0  0  0  0
  -25.1345  -36.1783   25.0784 H   0  0  0  0  0  0
  -21.0011  -28.3380   24.1310 H   0  0  0  0  0  0
  -20.5701  -26.2363   23.3644 H   0  0  0  0  0  0
  -21.6673  -26.7422   22.1206 H   0  0  0  0  0  0
  -19.6938  -25.6270   21.1278 H   0  0  0  0  0  0
  -19.6740  -27.3159   20.6721 H   0  0  0  0  0  0
  -17.4236  -26.6665   21.4024 H   0  0  0  0  0  0
  -18.0358  -26.0112   22.9036 H   0  0  0  0  0  0
  -19.7970  -30.7308   24.2210 H   0  0  0  0  0  0
  -17.5042  -31.6268   24.5169 H   0  0  0  0  0  0
  -15.5371  -30.2964   23.7707 H   0  0  0  0  0  0
  -15.8707  -28.0824   22.7059 H   0  0  0  0  0  0
  -24.5855  -30.7090   25.7625 H   0  0  0  0  0  0
  -24.8809  -32.2938   26.4654 H   0  0  0  0  0  0
  -25.7879  -30.8980   27.0202 H   0  0  0  0  0  0
  -26.3092  -29.6541   24.1464 H   0  0  0  0  0  0
  -27.3974  -29.7274   25.5081 H   0  0  0  0  0  0
  -27.9034  -30.4049   23.9830 H   0  0  0  0  0  0
  -27.2606  -33.3676   26.1945 H   0  0  0  0  0  0
  -28.3899  -32.6827   25.0356 H   0  0  0  0  0  0
  -28.0639  -31.8544   26.5506 H   0  0  0  0  0  0
  -28.2558  -38.0106   24.7511 H   0  0  0  0  0  0
  -28.1146  -36.2626   24.6276 H   0  0  0  0  0  0
  -27.2288  -37.1395   25.8846 H   0  0  0  0  0  0
  -20.9583  -29.8746   21.6675 H   0  0  0  0  0  0
  -26.0158  -38.2761   24.1389 H   0  0  0  0  0  0
  -31.3025  -21.2941   20.7302 H   0  0  0  0  0  0
  -37.0702  -19.3230   23.1757 H   0  0  0  0  0  0
  -36.1720  -18.8884   21.7354 H   0  0  0  0  0  0
  -35.8456  -18.0610   23.2572 H   0  0  0  0  0  0
  -36.0430  -20.7410   24.9823 H   0  0  0  0  0  0
  -34.8048  -19.5176   25.2630 H   0  0  0  0  0  0
  -34.3440  -21.1836   24.9259 H   0  0  0  0  0  0
  -27.8423  -20.7624   20.8788 H   0  0  0  0  0  0
  -28.2455  -20.8304   19.2212 H   0  0  0  0  0  0
  -29.8192  -22.9141   19.6829 H   0  0  0  0  0  0
  -29.3747  -22.8688   21.3435 H   0  0  0  0  0  0
  -33.3295  -18.7280   23.2097 H   0  0  0  0  0  0
  -32.8971  -20.4119   23.1040 H   0  0  0  0  0  0
  -34.0139  -18.7295   20.8080 H   0  0  0  0  0  0
  -33.7424  -20.4576   20.7092 H   0  0  0  0  0  0
  -27.0883  -24.0559   20.7299 H   0  0  0  0  0  0
  -27.5935  -24.1224   19.0905 H   0  0  0  0  0  0
  -35.2837  -21.0085   22.6394 H   0  0  0  0  0  0
  -28.7642  -16.4827   20.3802 H   0  0  0  0  0  0
  1 25  1  0  0  0
  1 30  2  0  0  0
  1 84  1  0  0  0
  2  3  1  0  0  0
  2 25  1  0  0  0
  2 85  1  0  0  0
  2 86  1  0  0  0
  3  4  1  0  0  0
  3 87  1  0  0  0
  3 88  1  0  0  0
  4  5  1  0  0  0
  4 89  1  0  0  0
  4 90  1  0  0  0
  5  6  1  0  0  0
  5 26  1  0  0  0
  5 91  1  0  0  0
  6 25  1  0  0  0
  6 92  1  0  0  0
  6 93  1  0  0  0
  7  8  2  0  0  0
  7 26  1  0  0  0
  7 29  1  0  0  0
  8  9  1  0  0  0
  8 22  1  0  0  0
  9 10  1  0  0  0
  9 27  2  0  0  0
 10 11  2  0  0  0
 10 15  1  0  0  0
 11 12  1  0  0  0
 11 94  1  0  0  0
 12 13  2  0  0  0
 12 95  1  0  0  0
 13 14  1  0  0  0
 13 31  1  0  0  0
 14 15  2  0  0  0
 14 96  1  0  0  0
 15 97  1  0  0  0
 16 17  2  0  0  0
 16 21  1  0  0  0
 16 31  1  0  0  0
 17 18  1  0  0  0
 17 98  1  0  0  0
 18 19  2  0  0  0
 18 99  1  0  0  0
 19 20  1  0  0  0
 19 24  1  0  0  0
 20 21  2  0  0  0
 20100  1  0  0  0
 21 23  1  0  0  0
 22 28  1  0  0  0
 22 32  2  0  0  0
 26 27  1  0  0  0
 28101  1  0  0  0
 28102  1  0  0  0
 29103  1  0  0  0
 29104  1  0  0  0
 33 34  1  0  0  0
 33 66  1  0  0  0
 33 70  2  0  0  0
 34 36  1  0  0  0
 34 59  1  0  0  0
 34105  1  0  0  0
 35 44  2  0  0  0
 35 45  1  0  0  0
 35 68  1  0  0  0
 36 56  1  0  0  0
 36106  1  0  0  0
 37 39  1  0  0  0
 37 47  1  0  0  0
 37 66  1  0  0  0
 37107  1  0  0  0
 38 43  2  0  0  0
 38 46  1  0  0  0
 38 47  1  0  0  0
 39 64  1  0  0  0
 39 67  2  0  0  0
 40 52  1  0  0  0
 40 53  2  0  0  0
 40 58  1  0  0  0
 41108  1  0  0  0
 41109  1  0  0  0
 41110  1  0  0  0
 41 48  1  0  0  0
 42 43  1  0  0  0
 42 66  1  0  0  0
 42111  1  0  0  0
 42112  1  0  0  0
 43 44  1  0  0  0
 44113  1  0  0  0
 45 46  2  0  0  0
 45114  1  0  0  0
 46115  1  0  0  0
 47116  1  0  0  0
 47117  1  0  0  0
 48 56  1  0  0  0
 48 65  1  0  0  0
 48118  1  0  0  0
 49 50  1  0  0  0
 49 53  1  0  0  0
 49 64  1  0  0  0
 49119  1  0  0  0
 50 51  1  0  0  0
 50120  1  0  0  0
 50121  1  0  0  0
 51 52  1  0  0  0
 51122  1  0  0  0
 51123  1  0  0  0
 52124  1  0  0  0
 52125  1  0  0  0
 53 54  1  0  0  0
 54 55  2  0  0  0
 54126  1  0  0  0
 55 57  1  0  0  0
 55127  1  0  0  0
 56 69  2  0  0  0
 57 58  2  0  0  0
 57128  1  0  0  0
 58129  1  0  0  0
 59 60  1  0  0  0
 59 61  1  0  0  0
 59 62  1  0  0  0
 60130  1  0  0  0
 60131  1  0  0  0
 60132  1  0  0  0
 61133  1  0  0  0
 61134  1  0  0  0
 61135  1  0  0  0
 62136  1  0  0  0
 62137  1  0  0  0
 62138  1  0  0  0
 63 65  1  0  0  0
 63139  1  0  0  0
 63140  1  0  0  0
 63141  1  0  0  0
 64142  1  0  0  0
 65143  1  0  0  0
 68 80  1  0  0  0
 71 72  2  0  0  0
 71 83  1  0  0  0
 71144  1  0  0  0
 72 73  1  0  0  0
 72 76  1  0  0  0
 73 82  2  0  0  0
 73 84  1  0  0  0
 74145  1  0  0  0
 74146  1  0  0  0
 74147  1  0  0  0
 74 81  1  0  0  0
 75 81  1  0  0  0
 75148  1  0  0  0
 75149  1  0  0  0
 75150  1  0  0  0
 76 77  1  0  0  0
 76151  1  0  0  0
 76152  1  0  0  0
 77 80  1  0  0  0
 77153  1  0  0  0
 77154  1  0  0  0
 78 79  1  0  0  0
 78 81  1  0  0  0
 78155  1  0  0  0
 78156  1  0  0  0
 79 83  1  0  0  0
 79157  1  0  0  0
 79158  1  0  0  0
 80159  1  0  0  0
 80160  1  0  0  0
 81161  1  0  0  0
 82 83  1  0  0  0
 84162  1  0  0  0
M  ISO  4   1 100  68 101  80 101  84 100
M  END
> <chiral flag>
0

> <version>
0

> <s_m_source_file>
/data/baiqing/PycharmProjects/Reinvent-master-3.2/result/LINK_invent/BTK/process_docking_weight1_custom_sum_contain_oxygen_bond_distance_aromatic_linkinvent_7_9_3/rearranged_h_0093.sdf

> <i_m_source_file_index>
100

> <r_mmod_Potential_Energy-OPLS-2005>
1305.12670898438

> <r_mmod_Stretch_Energy-OPLS-2005>
615.808288574219

> <r_mmod_Bend_Energy-OPLS-2005>
500.742645263672

> <r_mmod_Torsional_Energy-OPLS-2005>
219.257766723633

> <r_mmod_Improper_Torsional_Energy-OPLS-2005>
5.0754656791687

> <r_mmod_Van_der_Waal_Energy-OPLS-2005>
111.688545227051

> <r_mmod_Electrostatic_Energy-OPLS-2005>
-358.653350830078

> <r_mmod_Solvation_Energy-OPLS-2005>
-232.427627563477

> <b_mmod_Minimization_Converged-OPLS-2005>
0

> <r_mmod_RMS_Derivative-OPLS-2005>
1.68093502521515

$$$$
