0
                    3D
 Structure written by MMmdl.
158167  0  0  1  0            999 V2000
  -30.6010  -14.9174   20.4525 C   0  0  0  0  0  0
  -30.4380  -12.5806   19.4865 C   0  0  0  0  0  0
  -29.5154  -12.5305   18.2479 C   0  0  0  0  0  0
  -28.0479  -12.3153   18.6652 C   0  0  0  0  0  0
  -27.6319  -13.2361   19.8404 C   0  0  2  0  0  0
  -28.6840  -13.2361   20.9722 C   0  0  0  0  0  0
  -25.2419  -13.8156   20.5654 C   0  0  0  0  0  0
  -24.1753  -13.0396   20.9235 C   0  0  0  0  0  0
  -24.6382  -11.6895   20.8782 C   0  0  0  0  0  0
  -23.9067  -10.4278   21.0426 C   0  0  0  0  0  0
  -24.3616   -9.4195   21.9203 C   0  0  0  0  0  0
  -23.6296   -8.2228   22.0760 C   0  0  0  0  0  0
  -22.4278   -8.0273   21.3549 C   0  0  0  0  0  0
  -21.9917   -9.0248   20.4650 C   0  0  0  0  0  0
  -22.7245  -10.2128   20.3067 C   0  0  0  0  0  0
  -21.6842   -6.0739   22.5288 C   0  0  0  0  0  0
  -21.4003   -6.5641   23.8223 C   0  0  0  0  0  0
  -21.3658   -5.6791   24.9180 C   0  0  0  0  0  0
  -21.6050   -4.3056   24.7225 C   0  0  0  0  0  0
  -21.8818   -3.8147   23.4344 C   0  0  0  0  0  0
  -21.9185   -4.6967   22.3405 C   0  0  0  0  0  0
  -22.7776  -13.5184   21.1880 C   0  0  0  0  0  0
  -22.1656   -4.2152   21.0985 F   0  0  0  0  0  0
  -21.5631   -3.4542   25.7739 F   0  0  0  0  0  0
  -29.9542  -13.6787   20.3749 N   0  0  0  0  0  0
  -26.2879  -12.9398   20.3259 N   0  0  0  0  0  0
  -25.9317  -11.6537   20.5781 N   0  0  0  0  0  0
  -22.0410  -12.8206   22.0446 N   0  0  0  0  0  0
  -25.3938  -15.1870   20.3950 N   0  0  0  0  0  0
  -31.7990  -14.9272   20.1455 O   0  0  0  0  0  0
  -21.6630   -6.8882   21.4251 O   0  0  0  0  0  0
  -22.3476  -14.5490   20.6712 O   0  0  0  0  0  0
  -24.6436  -31.8471   23.1932 C   0  0  0  0  0  0
  -25.9221  -32.4707   23.8302 C   0  0  1  0  0  0
  -27.2136  -27.1484   20.1349 C   0  0  0  0  0  0
  -25.5981  -33.8512   24.2216 N   0  0  0  0  0  0
  -23.4455  -30.4702   21.5400 C   0  0  2  0  0  0
  -24.8935  -28.9091   20.1123 C   0  0  0  0  0  0
  -22.7564  -29.4569   22.4883 C   0  0  0  0  0  0
  -18.0303  -28.1393   22.8474 C   0  0  0  0  0  0
  -24.1497  -36.7252   23.2639 C   0  0  0  0  0  0
  -26.0049  -30.7228   21.3945 C   0  0  0  0  0  0
  -26.0747  -29.3382   20.7307 C   0  0  0  0  0  0
  -27.2362  -28.4750   20.7274 C   0  0  0  0  0  0
  -25.9996  -26.8317   19.4753 C   0  0  0  0  0  0
  -24.8682  -27.6674   19.4707 C   0  0  0  0  0  0
  -23.6707  -29.8085   20.1579 C   0  0  0  0  0  0
  -25.4129  -36.3036   24.0318 C   0  0  1  0  0  0
  -20.5914  -28.3722   23.1229 C   0  0  2  0  0  0
  -20.6788  -26.9429   22.5394 C   0  0  0  0  0  0
  -19.5766  -26.6380   21.5205 C   0  0  0  0  0  0
  -18.1945  -26.7934   22.1616 C   0  0  0  0  0  0
  -19.1557  -28.8877   23.2843 C   0  0  0  0  0  0
  -18.9472  -30.1472   23.8869 C   0  0  0  0  0  0
  -17.6469  -30.6594   24.0551 C   0  0  0  0  0  0
  -25.9083  -34.9411   23.5070 C   0  0  0  0  0  0
  -16.5362  -29.9080   23.6343 C   0  0  0  0  0  0
  -16.7286  -28.6498   23.0365 C   0  0  0  0  0  0
  -26.4543  -31.6568   25.0739 C   0  0  0  0  0  0
  -25.3726  -31.3751   26.1430 C   0  0  0  0  0  0
  -27.0407  -30.2959   24.6325 C   0  0  0  0  0  0
  -27.6082  -32.4326   25.7519 C   0  0  0  0  0  0
  -27.5578  -37.1784   24.8464 C   0  0  0  0  0  0
  -21.4261  -29.3050   22.3611 N   0  0  0  0  0  0
  -26.4292  -37.3746   23.9408 N   0  0  0  0  0  0
  -24.7177  -31.0338   22.0972 N   0  0  0  0  0  0
  -23.4207  -28.8107   23.3024 O   0  0  0  0  0  0
  -28.2496  -26.1398   20.1994 O   0  0  0  0  0  0
  -26.5650  -34.8902   22.4637 O   0  0  0  0  0  0
  -23.5556  -32.1350   23.7151 O   0  0  0  0  0  0
  -28.8709  -21.0768   19.0441 C   0  0  0  0  0  0
  -29.2151  -20.3325   20.2204 C   0  0  0  0  0  0
  -29.0678  -22.4979   21.3107 C   0  0  0  0  0  0
  -28.6528  -23.2284   20.1316 C   0  0  0  0  0  0
  -28.3855  -18.0011   21.3462 C   0  0  0  0  0  0
  -28.6324  -16.4564   21.2279 C   0  0  0  0  0  0
  -30.4175  -17.6000   20.2224 C   0  0  0  0  0  0
  -29.2077  -18.6808   20.2512 C   0  0  2  0  0  0
  -29.1591  -23.2060   22.6546 C   0  0  0  0  0  0
  -27.8217  -24.6552   20.0582 C   0  0  0  0  0  0
  -28.6047  -22.4393   19.0030 N   0  0  0  0  0  0
  -29.3554  -21.1193   21.3466 N   0  0  0  0  0  0
  -29.9215  -16.1732   20.5667 N   0  0  0  0  0  0
  -30.2874  -22.6836   23.4355 N   0  3  0  0  0  0
  -31.4701  -12.7287   19.1649 H   0  0  0  0  0  0
  -30.4354  -11.6244   20.0124 H   0  0  0  0  0  0
  -29.8342  -11.7369   17.5711 H   0  0  0  0  0  0
  -29.6053  -13.4637   17.6893 H   0  0  0  0  0  0
  -27.9376  -11.2713   18.9603 H   0  0  0  0  0  0
  -27.3845  -12.4623   17.8121 H   0  0  0  0  0  0
  -27.5990  -14.2355   19.4111 H   0  0  0  0  0  0
  -28.7842  -12.2390   21.4032 H   0  0  0  0  0  0
  -28.3808  -13.8742   21.7980 H   0  0  0  0  0  0
  -25.2747   -9.5672   22.4796 H   0  0  0  0  0  0
  -24.0000   -7.4608   22.7469 H   0  0  0  0  0  0
  -21.0852   -8.8765   19.8956 H   0  0  0  0  0  0
  -22.3697  -10.9673   19.6180 H   0  0  0  0  0  0
  -21.1991   -7.6149   23.9734 H   0  0  0  0  0  0
  -21.1487   -6.0514   25.9088 H   0  0  0  0  0  0
  -22.0599   -2.7612   23.2836 H   0  0  0  0  0  0
  -22.4002  -11.9862   22.4845 H   0  0  0  0  0  0
  -21.1032  -13.1262   22.2638 H   0  0  0  0  0  0
  -24.6142  -15.8265   20.4977 H   0  0  0  0  0  0
  -26.2217  -15.6311   20.0211 H   0  0  0  0  0  0
  -26.7282  -32.5313   23.1028 H   0  0  0  0  0  0
  -25.0143  -33.9630   25.0373 H   0  0  0  0  0  0
  -22.7477  -31.2967   21.3902 H   0  0  0  0  0  0
  -23.3769  -35.9573   23.3292 H   0  0  0  0  0  0
  -24.3588  -36.8887   22.2055 H   0  0  0  0  0  0
  -23.7237  -37.6441   23.6678 H   0  0  0  0  0  0
  -26.1641  -31.4807   20.6261 H   0  0  0  0  0  0
  -26.8734  -30.7651   22.0399 H   0  0  0  0  0  0
  -28.1330  -28.7989   21.2365 H   0  0  0  0  0  0
  -25.8567  -25.8979   18.9580 H   0  0  0  0  0  0
  -23.9680  -27.3343   18.9725 H   0  0  0  0  0  0
  -23.8064  -30.5867   19.4061 H   0  0  0  0  0  0
  -22.7861  -29.2511   19.8452 H   0  0  0  0  0  0
  -25.1319  -36.1866   25.0810 H   0  0  0  0  0  0
  -20.9999  -28.3303   24.1352 H   0  0  0  0  0  0
  -20.5684  -26.2336   23.3609 H   0  0  0  0  0  0
  -21.6652  -26.7436   22.1188 H   0  0  0  0  0  0
  -19.6927  -25.6283   21.1259 H   0  0  0  0  0  0
  -19.6710  -27.3170   20.6719 H   0  0  0  0  0  0
  -17.4215  -26.6667   21.4019 H   0  0  0  0  0  0
  -18.0355  -26.0077   22.9015 H   0  0  0  0  0  0
  -19.7948  -30.7291   24.2224 H   0  0  0  0  0  0
  -17.5027  -31.6277   24.5146 H   0  0  0  0  0  0
  -15.5362  -30.2971   23.7693 H   0  0  0  0  0  0
  -15.8680  -28.0808   22.7103 H   0  0  0  0  0  0
  -24.5918  -30.7088   25.7751 H   0  0  0  0  0  0
  -24.8901  -32.2925   26.4808 H   0  0  0  0  0  0
  -25.8007  -30.8958   27.0241 H   0  0  0  0  0  0
  -26.3027  -29.6682   24.1317 H   0  0  0  0  0  0
  -27.3993  -29.7262   25.4908 H   0  0  0  0  0  0
  -27.8954  -30.4195   23.9671 H   0  0  0  0  0  0
  -27.2691  -33.3649   26.2049 H   0  0  0  0  0  0
  -28.3919  -32.6843   25.0363 H   0  0  0  0  0  0
  -28.0724  -31.8479   26.5470 H   0  0  0  0  0  0
  -28.2584  -38.0092   24.7520 H   0  0  0  0  0  0
  -28.1085  -36.2620   24.6288 H   0  0  0  0  0  0
  -27.2294  -37.1422   25.8865 H   0  0  0  0  0  0
  -20.9470  -29.8773   21.6800 H   0  0  0  0  0  0
  -26.0161  -38.2815   24.1408 H   0  0  0  0  0  0
  -28.7224  -20.5510   18.1121 H   0  0  0  0  0  0
  -28.7315  -18.3516   22.3196 H   0  0  0  0  0  0
  -27.3257  -18.2523   21.2777 H   0  0  0  0  0  0
  -27.8439  -16.0290   20.6205 H   0  0  0  0  0  0
  -28.5864  -15.9991   22.2158 H   0  0  0  0  0  0
  -31.1718  -17.8756   20.9598 H   0  0  0  0  0  0
  -30.9125  -17.6022   19.2505 H   0  0  0  0  0  0
  -28.6641  -18.4587   19.3309 H   0  0  0  0  0  0
  -28.2290  -23.0493   23.2007 H   0  0  0  0  0  0
  -29.2806  -24.2809   22.5180 H   0  0  0  0  0  0
  -26.9783  -24.5184   20.7358 H   0  0  0  0  0  0
  -27.4057  -24.5875   19.0551 H   0  0  0  0  0  0
  -30.2146  -21.6812   23.4335 H   0  0  0  0  0  0
  -30.2650  -23.0281   24.3767 H   0  0  0  0  0  0
  -31.1548  -22.9382   23.0018 H   0  0  0  0  0  0
  1 25  1  0  0  0
  1 30  2  0  0  0
  1 83  1  0  0  0
  2  3  1  0  0  0
  2 25  1  0  0  0
  2 85  1  0  0  0
  2 86  1  0  0  0
  3  4  1  0  0  0
  3 87  1  0  0  0
  3 88  1  0  0  0
  4  5  1  0  0  0
  4 89  1  0  0  0
  4 90  1  0  0  0
  5  6  1  0  0  0
  5 26  1  0  0  0
  5 91  1  0  0  0
  6 25  1  0  0  0
  6 92  1  0  0  0
  6 93  1  0  0  0
  7  8  2  0  0  0
  7 26  1  0  0  0
  7 29  1  0  0  0
  8  9  1  0  0  0
  8 22  1  0  0  0
  9 10  1  0  0  0
  9 27  2  0  0  0
 10 11  2  0  0  0
 10 15  1  0  0  0
 11 12  1  0  0  0
 11 94  1  0  0  0
 12 13  2  0  0  0
 12 95  1  0  0  0
 13 14  1  0  0  0
 13 31  1  0  0  0
 14 15  2  0  0  0
 14 96  1  0  0  0
 15 97  1  0  0  0
 16 17  2  0  0  0
 16 21  1  0  0  0
 16 31  1  0  0  0
 17 18  1  0  0  0
 17 98  1  0  0  0
 18 19  2  0  0  0
 18 99  1  0  0  0
 19 20  1  0  0  0
 19 24  1  0  0  0
 20 21  2  0  0  0
 20100  1  0  0  0
 21 23  1  0  0  0
 22 28  1  0  0  0
 22 32  2  0  0  0
 26 27  1  0  0  0
 28101  1  0  0  0
 28102  1  0  0  0
 29103  1  0  0  0
 29104  1  0  0  0
 33 34  1  0  0  0
 33 66  1  0  0  0
 33 70  2  0  0  0
 34 36  1  0  0  0
 34 59  1  0  0  0
 34105  1  0  0  0
 35 44  2  0  0  0
 35 45  1  0  0  0
 35 68  1  0  0  0
 36 56  1  0  0  0
 36106  1  0  0  0
 37 39  1  0  0  0
 37 47  1  0  0  0
 37 66  1  0  0  0
 37107  1  0  0  0
 38 43  2  0  0  0
 38 46  1  0  0  0
 38 47  1  0  0  0
 39 64  1  0  0  0
 39 67  2  0  0  0
 40 52  1  0  0  0
 40 53  2  0  0  0
 40 58  1  0  0  0
 41108  1  0  0  0
 41109  1  0  0  0
 41110  1  0  0  0
 41 48  1  0  0  0
 42 43  1  0  0  0
 42 66  1  0  0  0
 42111  1  0  0  0
 42112  1  0  0  0
 43 44  1  0  0  0
 44113  1  0  0  0
 45 46  2  0  0  0
 45114  1  0  0  0
 46115  1  0  0  0
 47116  1  0  0  0
 47117  1  0  0  0
 48 56  1  0  0  0
 48 65  1  0  0  0
 48118  1  0  0  0
 49 50  1  0  0  0
 49 53  1  0  0  0
 49 64  1  0  0  0
 49119  1  0  0  0
 50 51  1  0  0  0
 50120  1  0  0  0
 50121  1  0  0  0
 51 52  1  0  0  0
 51122  1  0  0  0
 51123  1  0  0  0
 52124  1  0  0  0
 52125  1  0  0  0
 53 54  1  0  0  0
 54 55  2  0  0  0
 54126  1  0  0  0
 55 57  1  0  0  0
 55127  1  0  0  0
 56 69  2  0  0  0
 57 58  2  0  0  0
 57128  1  0  0  0
 58129  1  0  0  0
 59 60  1  0  0  0
 59 61  1  0  0  0
 59 62  1  0  0  0
 60130  1  0  0  0
 60131  1  0  0  0
 60132  1  0  0  0
 61133  1  0  0  0
 61134  1  0  0  0
 61135  1  0  0  0
 62136  1  0  0  0
 62137  1  0  0  0
 62138  1  0  0  0
 63 65  1  0  0  0
 63139  1  0  0  0
 63140  1  0  0  0
 63141  1  0  0  0
 64142  1  0  0  0
 65143  1  0  0  0
 68 80  1  0  0  0
 71 72  2  0  0  0
 71 81  1  0  0  0
 71144  1  0  0  0
 72 82  1  0  0  0
 72 78  1  0  0  0
 73 74  1  0  0  0
 73 79  1  0  0  0
 73 82  2  0  0  0
 74 80  1  0  0  0
 74 81  2  0  0  0
 75 76  1  0  0  0
 75 78  1  0  0  0
 75145  1  0  0  0
 75146  1  0  0  0
 76 83  1  0  0  0
 76147  1  0  0  0
 76148  1  0  0  0
 77 78  1  0  0  0
 77 83  1  0  0  0
 77149  1  0  0  0
 77150  1  0  0  0
 78151  1  0  0  0
 79 84  1  0  0  0
 79152  1  0  0  0
 79153  1  0  0  0
 80154  1  0  0  0
 80155  1  0  0  0
 84156  1  0  0  0
 84157  1  0  0  0
 84158  1  0  0  0
M  CHG  1  84   1
M  ISO  4   1 100  68 101  80 101  83 100
M  END
> <chiral flag>
0

> <version>
0

> <s_m_source_file>
/data/baiqing/PycharmProjects/Reinvent-master-3.2/result/LINK_invent/BTK/process_docking_weight1_custom_sum_contain_oxygen_bond_distance_aromatic_linkinvent_7_9_3/rearranged_h_0193.sdf

> <i_m_source_file_index>
1

> <r_mmod_Potential_Energy-OPLS-2005>
402.914794921875

> <r_mmod_Stretch_Energy-OPLS-2005>
219.981811523438

> <r_mmod_Bend_Energy-OPLS-2005>
307.874389648438

> <r_mmod_Torsional_Energy-OPLS-2005>
310.762756347656

> <r_mmod_Improper_Torsional_Energy-OPLS-2005>
11.806339263916

> <r_mmod_Van_der_Waal_Energy-OPLS-2005>
145.595962524414

> <r_mmod_Electrostatic_Energy-OPLS-2005>
-265.925445556641

> <r_mmod_Solvation_Energy-OPLS-2005>
-500.777709960938

> <b_mmod_Minimization_Converged-OPLS-2005>
0

> <r_mmod_RMS_Derivative-OPLS-2005>
1.1725070476532

$$$$
1
                    3D
 Structure written by MMmdl.
157166  0  0  1  0            999 V2000
  -30.6044  -14.8712   20.4383 C   0  0  0  0  0  0
  -30.4163  -12.5339   19.4992 C   0  0  0  0  0  0
  -29.5150  -12.5235   18.2467 C   0  0  0  0  0  0
  -28.0390  -12.3440   18.6498 C   0  0  0  0  0  0
  -27.6273  -13.2564   19.8382 C   0  0  2  0  0  0
  -28.6682  -13.2622   20.9766 C   0  0  0  0  0  0
  -25.2437  -13.8234   20.5689 C   0  0  0  0  0  0
  -24.1757  -13.0441   20.9207 C   0  0  0  0  0  0
  -24.6392  -11.6937   20.8731 C   0  0  0  0  0  0
  -23.9075  -10.4295   21.0379 C   0  0  0  0  0  0
  -24.3623   -9.4212   21.9163 C   0  0  0  0  0  0
  -23.6302   -8.2247   22.0747 C   0  0  0  0  0  0
  -22.4281   -8.0278   21.3543 C   0  0  0  0  0  0
  -21.9909   -9.0252   20.4649 C   0  0  0  0  0  0
  -22.7237  -10.2131   20.3036 C   0  0  0  0  0  0
  -21.6871   -6.0724   22.5281 C   0  0  0  0  0  0
  -21.4037   -6.5631   23.8215 C   0  0  0  0  0  0
  -21.3658   -5.6783   24.9178 C   0  0  0  0  0  0
  -21.6040   -4.3044   24.7226 C   0  0  0  0  0  0
  -21.8823   -3.8134   23.4350 C   0  0  0  0  0  0
  -21.9202   -4.6953   22.3404 C   0  0  0  0  0  0
  -22.7777  -13.5212   21.1877 C   0  0  0  0  0  0
  -22.1668   -4.2138   21.0983 F   0  0  0  0  0  0
  -21.5618   -3.4524   25.7734 F   0  0  0  0  0  0
  -29.9498  -13.6459   20.3760 N   0  0  0  0  0  0
  -26.2872  -12.9491   20.3233 N   0  0  0  0  0  0
  -25.9328  -11.6612   20.5715 N   0  0  0  0  0  0
  -22.0434  -12.8204   22.0445 N   0  0  0  0  0  0
  -25.4080  -15.1951   20.4083 N   0  0  0  0  0  0
  -31.8076  -14.8672   20.1512 O   0  0  0  0  0  0
  -21.6662   -6.8861   21.4234 O   0  0  0  0  0  0
  -22.3446  -14.5507   20.6722 O   0  0  0  0  0  0
  -24.6406  -31.8451   23.1906 C   0  0  0  0  0  0
  -25.9195  -32.4713   23.8276 C   0  0  1  0  0  0
  -27.2207  -27.1661   20.1413 C   0  0  0  0  0  0
  -25.5958  -33.8523   24.2177 N   0  0  0  0  0  0
  -23.4430  -30.4660   21.5338 C   0  0  2  0  0  0
  -24.8893  -28.8950   20.1048 C   0  0  0  0  0  0
  -22.7542  -29.4563   22.4849 C   0  0  0  0  0  0
  -18.0308  -28.1422   22.8467 C   0  0  0  0  0  0
  -24.1473  -36.7255   23.2643 C   0  0  0  0  0  0
  -25.9954  -30.7254   21.3860 C   0  0  0  0  0  0
  -26.0619  -29.3406   20.7252 C   0  0  0  0  0  0
  -27.2240  -28.4898   20.7311 C   0  0  0  0  0  0
  -26.0197  -26.8055   19.4923 C   0  0  0  0  0  0
  -24.8783  -27.6389   19.4767 C   0  0  0  0  0  0
  -23.6654  -29.7964   20.1512 C   0  0  0  0  0  0
  -25.4114  -36.3037   24.0299 C   0  0  1  0  0  0
  -20.5915  -28.3740   23.1229 C   0  0  2  0  0  0
  -20.6787  -26.9440   22.5409 C   0  0  0  0  0  0
  -19.5769  -26.6400   21.5211 C   0  0  0  0  0  0
  -18.1948  -26.7970   22.1611 C   0  0  0  0  0  0
  -19.1564  -28.8902   23.2846 C   0  0  0  0  0  0
  -18.9480  -30.1500   23.8873 C   0  0  0  0  0  0
  -17.6477  -30.6613   24.0579 C   0  0  0  0  0  0
  -25.9061  -34.9416   23.5032 C   0  0  0  0  0  0
  -16.5367  -29.9103   23.6368 C   0  0  0  0  0  0
  -16.7294  -28.6532   23.0359 C   0  0  0  0  0  0
  -26.4507  -31.6630   25.0755 C   0  0  0  0  0  0
  -25.3684  -31.3862   26.1455 C   0  0  0  0  0  0
  -27.0394  -30.3040   24.6372 C   0  0  0  0  0  0
  -27.6020  -32.4418   25.7550 C   0  0  0  0  0  0
  -27.5562  -37.1789   24.8453 C   0  0  0  0  0  0
  -21.4240  -29.3059   22.3589 N   0  0  0  0  0  0
  -26.4269  -37.3764   23.9409 N   0  0  0  0  0  0
  -24.7123  -31.0337   22.0919 N   0  0  0  0  0  0
  -23.4193  -28.8101   23.2990 O   0  0  0  0  0  0
  -28.2997  -26.2270   20.2579 O   0  0  0  0  0  0
  -26.5646  -34.8911   22.4611 O   0  0  0  0  0  0
  -23.5540  -32.1307   23.7162 O   0  0  0  0  0  0
  -31.0457  -21.0440   21.4220 C   0  0  0  0  0  0
  -30.3784  -23.0630   21.2832 C   0  0  0  0  0  0
  -29.8259  -20.9536   20.7760 C   0  0  0  0  0  0
  -30.3524  -18.6328   19.4991 C   0  0  0  0  0  0
  -29.2329  -18.4048   21.5902 C   0  0  0  0  0  0
  -30.1023  -17.0785   19.2039 C   0  0  0  0  0  0
  -29.0242  -16.8174   21.3279 C   0  0  0  0  0  0
  -29.3330  -19.4527   20.3894 C   0  0  0  0  0  0
  -28.2080  -23.2656   20.1943 C   0  0  0  0  0  0
  -28.3970  -24.8316   19.6064 C   0  0  0  0  0  0
  -31.3877  -22.3468   21.7414 N   0  0  0  0  0  0
  -29.3933  -22.3892   20.6673 N   0  0  0  0  0  0
  -29.9041  -16.1104   20.3375 N   0  0  0  0  0  0
  -31.4631  -12.6351   19.2066 H   0  0  0  0  0  0
  -30.3496  -11.5786   20.0231 H   0  0  0  0  0  0
  -29.8191  -11.7246   17.5684 H   0  0  0  0  0  0
  -29.6372  -13.4572   17.6963 H   0  0  0  0  0  0
  -27.8996  -11.2975   18.9198 H   0  0  0  0  0  0
  -27.3877  -12.5207   17.7925 H   0  0  0  0  0  0
  -27.5992  -14.2695   19.4357 H   0  0  0  0  0  0
  -28.7318  -12.2836   21.4572 H   0  0  0  0  0  0
  -28.3794  -13.9687   21.7550 H   0  0  0  0  0  0
  -25.2762   -9.5716   22.4735 H   0  0  0  0  0  0
  -24.0029   -7.4645   22.7464 H   0  0  0  0  0  0
  -21.0839   -8.8764   19.8961 H   0  0  0  0  0  0
  -22.3681  -10.9664   19.6144 H   0  0  0  0  0  0
  -21.2057   -7.6145   23.9722 H   0  0  0  0  0  0
  -21.1467   -6.0510   25.9081 H   0  0  0  0  0  0
  -22.0604   -2.7596   23.2857 H   0  0  0  0  0  0
  -22.4082  -11.9904   22.4875 H   0  0  0  0  0  0
  -21.1040  -13.1205   22.2628 H   0  0  0  0  0  0
  -24.6363  -15.8447   20.5140 H   0  0  0  0  0  0
  -26.2517  -15.6323   20.0602 H   0  0  0  0  0  0
  -26.7265  -32.5299   23.1007 H   0  0  0  0  0  0
  -25.0136  -33.9647   25.0347 H   0  0  0  0  0  0
  -22.7469  -31.2936   21.3838 H   0  0  0  0  0  0
  -23.3744  -35.9580   23.3297 H   0  0  0  0  0  0
  -24.3546  -36.8903   22.2061 H   0  0  0  0  0  0
  -23.7224  -37.6441   23.6692 H   0  0  0  0  0  0
  -26.1570  -31.4823   20.6180 H   0  0  0  0  0  0
  -26.8638  -30.7681   22.0320 H   0  0  0  0  0  0
  -28.1129  -28.8275   21.2448 H   0  0  0  0  0  0
  -25.9178  -25.8346   19.0321 H   0  0  0  0  0  0
  -23.9774  -27.2860   18.9931 H   0  0  0  0  0  0
  -23.8024  -30.5737   19.3980 H   0  0  0  0  0  0
  -22.7792  -29.2394   19.8408 H   0  0  0  0  0  0
  -25.1314  -36.1850   25.0794 H   0  0  0  0  0  0
  -21.0031  -28.3343   24.1342 H   0  0  0  0  0  0
  -20.5688  -26.2349   23.3627 H   0  0  0  0  0  0
  -21.6648  -26.7451   22.1201 H   0  0  0  0  0  0
  -19.6915  -25.6300   21.1269 H   0  0  0  0  0  0
  -19.6727  -27.3183   20.6719 H   0  0  0  0  0  0
  -17.4220  -26.6735   21.4011 H   0  0  0  0  0  0
  -18.0332  -26.0129   22.9021 H   0  0  0  0  0  0
  -19.7952  -30.7335   24.2221 H   0  0  0  0  0  0
  -17.5032  -31.6297   24.5178 H   0  0  0  0  0  0
  -15.5368  -30.2992   23.7737 H   0  0  0  0  0  0
  -15.8690  -28.0863   22.7069 H   0  0  0  0  0  0
  -24.5798  -30.7287   25.7781 H   0  0  0  0  0  0
  -24.8955  -32.3081   26.4865 H   0  0  0  0  0  0
  -25.7945  -30.9028   27.0256 H   0  0  0  0  0  0
  -26.3048  -29.6782   24.1306 H   0  0  0  0  0  0
  -27.3920  -29.7347   25.4982 H   0  0  0  0  0  0
  -27.8975  -30.4302   23.9766 H   0  0  0  0  0  0
  -27.2583  -33.3723   26.2089 H   0  0  0  0  0  0
  -28.3865  -32.7000   25.0418 H   0  0  0  0  0  0
  -28.0658  -31.8595   26.5522 H   0  0  0  0  0  0
  -28.2573  -38.0094   24.7529 H   0  0  0  0  0  0
  -28.1066  -36.2635   24.6243 H   0  0  0  0  0  0
  -27.2281  -37.1383   25.8854 H   0  0  0  0  0  0
  -20.9436  -29.8772   21.6775 H   0  0  0  0  0  0
  -26.0118  -38.2813   24.1476 H   0  0  0  0  0  0
  -31.7128  -20.2407   21.7053 H   0  0  0  0  0  0
  -30.3492  -24.1372   21.4158 H   0  0  0  0  0  0
  -30.4547  -19.1407   18.5396 H   0  0  0  0  0  0
  -31.3413  -18.6983   19.9543 H   0  0  0  0  0  0
  -30.1519  -18.4854   22.1727 H   0  0  0  0  0  0
  -28.4525  -18.7442   22.2730 H   0  0  0  0  0  0
  -30.9198  -16.7217   18.5737 H   0  0  0  0  0  0
  -29.2146  -16.9994   18.5759 H   0  0  0  0  0  0
  -27.9957  -16.6658   20.9975 H   0  0  0  0  0  0
  -29.0994  -16.2957   22.2833 H   0  0  0  0  0  0
  -28.3724  -19.5068   19.8747 H   0  0  0  0  0  0
  -27.7394  -22.6874   19.3965 H   0  0  0  0  0  0
  -27.4685  -23.2774   20.9942 H   0  0  0  0  0  0
  -27.7832  -24.8746   18.7082 H   0  0  0  0  0  0
  -29.3982  -24.8395   19.1752 H   0  0  0  0  0  0
  1 25  1  0  0  0
  1 30  2  0  0  0
  1 83  1  0  0  0
  2  3  1  0  0  0
  2 25  1  0  0  0
  2 84  1  0  0  0
  2 85  1  0  0  0
  3  4  1  0  0  0
  3 86  1  0  0  0
  3 87  1  0  0  0
  4  5  1  0  0  0
  4 88  1  0  0  0
  4 89  1  0  0  0
  5  6  1  0  0  0
  5 26  1  0  0  0
  5 90  1  0  0  0
  6 25  1  0  0  0
  6 91  1  0  0  0
  6 92  1  0  0  0
  7  8  2  0  0  0
  7 26  1  0  0  0
  7 29  1  0  0  0
  8  9  1  0  0  0
  8 22  1  0  0  0
  9 10  1  0  0  0
  9 27  2  0  0  0
 10 11  2  0  0  0
 10 15  1  0  0  0
 11 12  1  0  0  0
 11 93  1  0  0  0
 12 13  2  0  0  0
 12 94  1  0  0  0
 13 14  1  0  0  0
 13 31  1  0  0  0
 14 15  2  0  0  0
 14 95  1  0  0  0
 15 96  1  0  0  0
 16 17  2  0  0  0
 16 21  1  0  0  0
 16 31  1  0  0  0
 17 18  1  0  0  0
 17 97  1  0  0  0
 18 19  2  0  0  0
 18 98  1  0  0  0
 19 20  1  0  0  0
 19 24  1  0  0  0
 20 21  2  0  0  0
 20 99  1  0  0  0
 21 23  1  0  0  0
 22 28  1  0  0  0
 22 32  2  0  0  0
 26 27  1  0  0  0
 28100  1  0  0  0
 28101  1  0  0  0
 29102  1  0  0  0
 29103  1  0  0  0
 33 34  1  0  0  0
 33 66  1  0  0  0
 33 70  2  0  0  0
 34 36  1  0  0  0
 34 59  1  0  0  0
 34104  1  0  0  0
 35 44  2  0  0  0
 35 45  1  0  0  0
 35 68  1  0  0  0
 36 56  1  0  0  0
 36105  1  0  0  0
 37 39  1  0  0  0
 37 47  1  0  0  0
 37 66  1  0  0  0
 37106  1  0  0  0
 38 43  2  0  0  0
 38 46  1  0  0  0
 38 47  1  0  0  0
 39 64  1  0  0  0
 39 67  2  0  0  0
 40 52  1  0  0  0
 40 53  2  0  0  0
 40 58  1  0  0  0
 41107  1  0  0  0
 41108  1  0  0  0
 41109  1  0  0  0
 41 48  1  0  0  0
 42 43  1  0  0  0
 42 66  1  0  0  0
 42110  1  0  0  0
 42111  1  0  0  0
 43 44  1  0  0  0
 44112  1  0  0  0
 45 46  2  0  0  0
 45113  1  0  0  0
 46114  1  0  0  0
 47115  1  0  0  0
 47116  1  0  0  0
 48 56  1  0  0  0
 48 65  1  0  0  0
 48117  1  0  0  0
 49 50  1  0  0  0
 49 53  1  0  0  0
 49 64  1  0  0  0
 49118  1  0  0  0
 50 51  1  0  0  0
 50119  1  0  0  0
 50120  1  0  0  0
 51 52  1  0  0  0
 51121  1  0  0  0
 51122  1  0  0  0
 52123  1  0  0  0
 52124  1  0  0  0
 53 54  1  0  0  0
 54 55  2  0  0  0
 54125  1  0  0  0
 55 57  1  0  0  0
 55126  1  0  0  0
 56 69  2  0  0  0
 57 58  2  0  0  0
 57127  1  0  0  0
 58128  1  0  0  0
 59 60  1  0  0  0
 59 61  1  0  0  0
 59 62  1  0  0  0
 60129  1  0  0  0
 60130  1  0  0  0
 60131  1  0  0  0
 61132  1  0  0  0
 61133  1  0  0  0
 61134  1  0  0  0
 62135  1  0  0  0
 62136  1  0  0  0
 62137  1  0  0  0
 63 65  1  0  0  0
 63138  1  0  0  0
 63139  1  0  0  0
 63140  1  0  0  0
 64141  1  0  0  0
 65142  1  0  0  0
 68 80  1  0  0  0
 71 73  2  0  0  0
 71 81  1  0  0  0
 71143  1  0  0  0
 72 81  2  0  0  0
 72 82  1  0  0  0
 72144  1  0  0  0
 73 82  1  0  0  0
 73 78  1  0  0  0
 74 76  1  0  0  0
 74 78  1  0  0  0
 74145  1  0  0  0
 74146  1  0  0  0
 75 77  1  0  0  0
 75 78  1  0  0  0
 75147  1  0  0  0
 75148  1  0  0  0
 76 83  1  0  0  0
 76149  1  0  0  0
 76150  1  0  0  0
 77 83  1  0  0  0
 77151  1  0  0  0
 77152  1  0  0  0
 78153  1  0  0  0
 79 80  1  0  0  0
 79 82  1  0  0  0
 79154  1  0  0  0
 79155  1  0  0  0
 80156  1  0  0  0
 80157  1  0  0  0
M  ISO  4   1 100  68 101  80 101  83 100
M  END
> <chiral flag>
0

> <version>
0

> <s_m_source_file>
/data/baiqing/PycharmProjects/Reinvent-master-3.2/result/LINK_invent/BTK/process_docking_weight1_custom_sum_contain_oxygen_bond_distance_aromatic_linkinvent_7_9_3/rearranged_h_0193.sdf

> <i_m_source_file_index>
2

> <r_mmod_Potential_Energy-OPLS-2005>
693.813171386719

> <r_mmod_Stretch_Energy-OPLS-2005>
222.020385742188

> <r_mmod_Bend_Energy-OPLS-2005>
340.429504394531

> <r_mmod_Torsional_Energy-OPLS-2005>
339.248931884766

> <r_mmod_Improper_Torsional_Energy-OPLS-2005>
15.7452707290649

> <r_mmod_Van_der_Waal_Energy-OPLS-2005>
113.847412109375

> <r_mmod_Electrostatic_Energy-OPLS-2005>
-268.562927246094

> <r_mmod_Solvation_Energy-OPLS-2005>
-220.771560668945

> <b_mmod_Minimization_Converged-OPLS-2005>
0

> <r_mmod_RMS_Derivative-OPLS-2005>
2.56761193275452

$$$$
2
                    3D
 Structure written by MMmdl.
166175  0  0  1  0            999 V2000
  -30.6521  -14.6187   20.5175 C   0  0  0  0  0  0
  -30.4353  -12.4246   19.3818 C   0  0  0  0  0  0
  -29.4679  -12.4798   18.1797 C   0  0  0  0  0  0
  -28.0124  -12.2679   18.6398 C   0  0  0  0  0  0
  -27.6372  -13.1797   19.8390 C   0  0  2  0  0  0
  -28.6946  -13.0679   20.9520 C   0  0  0  0  0  0
  -25.2551  -13.8076   20.5768 C   0  0  0  0  0  0
  -24.1750  -13.0365   20.9174 C   0  0  0  0  0  0
  -24.6283  -11.6858   20.8726 C   0  0  0  0  0  0
  -23.8982  -10.4255   21.0448 C   0  0  0  0  0  0
  -24.3574   -9.4192   21.9221 C   0  0  0  0  0  0
  -23.6264   -8.2227   22.0762 C   0  0  0  0  0  0
  -22.4273   -8.0251   21.3513 C   0  0  0  0  0  0
  -21.9877   -9.0226   20.4640 C   0  0  0  0  0  0
  -22.7182  -10.2112   20.3085 C   0  0  0  0  0  0
  -21.6807   -6.0763   22.5288 C   0  0  0  0  0  0
  -21.3967   -6.5642   23.8222 C   0  0  0  0  0  0
  -21.3648   -5.6787   24.9178 C   0  0  0  0  0  0
  -21.6053   -4.3051   24.7221 C   0  0  0  0  0  0
  -21.8821   -3.8156   23.4339 C   0  0  0  0  0  0
  -21.9187   -4.6997   22.3418 C   0  0  0  0  0  0
  -22.7785  -13.5191   21.1807 C   0  0  0  0  0  0
  -22.1658   -4.2188   21.0994 F   0  0  0  0  0  0
  -21.5648   -3.4541   25.7741 F   0  0  0  0  0  0
  -29.9872  -13.4345   20.3625 N   0  0  0  0  0  0
  -26.2886  -12.9157   20.3293 N   0  0  0  0  0  0
  -25.9182  -11.6360   20.5765 N   0  0  0  0  0  0
  -22.0403  -12.8246   22.0389 N   0  0  0  0  0  0
  -25.4412  -15.1766   20.4482 N   0  0  0  0  0  0
  -31.8173  -14.7408   20.1241 O   0  0  0  0  0  0
  -21.6568   -6.8904   21.4248 O   0  0  0  0  0  0
  -22.3538  -14.5504   20.6611 O   0  0  0  0  0  0
  -24.6140  -31.8682   23.1991 C   0  0  0  0  0  0
  -25.9037  -32.4823   23.8240 C   0  0  1  0  0  0
  -27.2253  -27.3792   20.0960 C   0  0  0  0  0  0
  -25.5867  -33.8611   24.2199 N   0  0  0  0  0  0
  -23.3994  -30.4824   21.5480 C   0  0  2  0  0  0
  -24.8446  -28.9414   20.1235 C   0  0  0  0  0  0
  -22.7369  -29.4649   22.5068 C   0  0  0  0  0  0
  -18.0225  -28.1340   22.8411 C   0  0  0  0  0  0
  -24.1457  -36.7317   23.2652 C   0  0  0  0  0  0
  -25.9278  -30.8181   21.3484 C   0  0  0  0  0  0
  -26.0083  -29.4429   20.7107 C   0  0  0  0  0  0
  -27.2032  -28.6702   20.6937 C   0  0  0  0  0  0
  -26.0234  -26.9047   19.5168 C   0  0  0  0  0  0
  -24.8479  -27.6732   19.5278 C   0  0  0  0  0  0
  -23.6052  -29.8034   20.1695 C   0  0  0  0  0  0
  -25.4086  -36.3108   24.0318 C   0  0  1  0  0  0
  -20.5827  -28.3497   23.1262 C   0  0  2  0  0  0
  -20.6614  -26.9380   22.4998 C   0  0  0  0  0  0
  -19.5654  -26.6782   21.4606 C   0  0  0  0  0  0
  -18.1878  -26.8053   22.1191 C   0  0  0  0  0  0
  -19.1499  -28.8698   23.2920 C   0  0  0  0  0  0
  -18.9471  -30.1286   23.9078 C   0  0  0  0  0  0
  -17.6492  -30.6428   24.0780 C   0  0  0  0  0  0
  -25.9039  -34.9497   23.5081 C   0  0  0  0  0  0
  -16.5348  -29.8998   23.6483 C   0  0  0  0  0  0
  -16.7229  -28.6506   23.0336 C   0  0  0  0  0  0
  -26.4427  -31.6612   25.0594 C   0  0  0  0  0  0
  -25.3627  -31.3763   26.1283 C   0  0  0  0  0  0
  -27.0278  -30.3050   24.6010 C   0  0  0  0  0  0
  -27.5966  -32.4350   25.7421 C   0  0  0  0  0  0
  -27.5563  -37.1804   24.8484 C   0  0  0  0  0  0
  -21.4105  -29.2952   22.3799 N   0  0  0  0  0  0
  -26.4263  -37.3814   23.9423 N   0  0  0  0  0  0
  -24.6661  -31.0683   22.0935 N   0  0  0  0  0  0
  -23.4172  -28.8224   23.3142 O   0  0  0  0  0  0
  -28.4074  -26.6412   20.0842 O   0  0  0  0  0  0
  -26.5679  -34.9001   22.4689 O   0  0  0  0  0  0
  -23.5341  -32.1436   23.7394 O   0  0  0  0  0  0
  -29.4391  -18.0632   21.0277 C   0  0  0  0  0  0
  -27.3943  -17.5521   19.3275 C   0  0  0  0  0  0
  -28.5966  -19.1651   20.6759 C   0  0  0  0  0  0
  -27.4803  -18.8565   19.8539 C   0  0  0  0  0  0
  -29.2233  -16.7425   20.5412 C   0  0  0  0  0  0
  -27.8628  -20.9498   22.4205 C   0  0  0  0  0  0
  -27.3304  -22.3599   22.1148 C   0  0  0  0  0  0
  -28.9478  -21.8382   20.3943 C   0  0  0  0  0  0
  -28.8445  -20.5704   21.3094 C   0  0  2  0  0  0
  -26.2828  -19.7813   19.6310 C   0  0  0  0  0  0
  -28.4604  -24.3177   21.0420 C   0  0  0  0  0  0
  -26.1581  -20.3813   18.2137 C   0  0  0  0  0  0
  -28.4240  -25.2152   19.7663 C   0  0  0  0  0  0
  -28.2214  -16.5343   19.6648 N   0  0  0  0  0  0
  -30.0293  -15.6775   21.1140 N   0  0  0  0  0  0
  -27.9925  -22.8839   20.8941 N   0  3  2  0  0  0
  -24.8522  -20.9255   18.0797 O   0  0  0  0  0  0
  -31.4528  -12.6071   19.0225 H   0  0  0  0  0  0
  -30.4595  -11.4364   19.8425 H   0  0  0  0  0  0
  -29.7441  -11.7308   17.4359 H   0  0  0  0  0  0
  -29.5539  -13.4472   17.6822 H   0  0  0  0  0  0
  -27.9044  -11.2215   18.9299 H   0  0  0  0  0  0
  -27.3219  -12.4247   17.8115 H   0  0  0  0  0  0
  -27.6310  -14.1851   19.4391 H   0  0  0  0  0  0
  -28.7228  -12.0422   21.3285 H   0  0  0  0  0  0
  -28.4445  -13.6999   21.8052 H   0  0  0  0  0  0
  -25.2743   -9.5644   22.4766 H   0  0  0  0  0  0
  -23.9985   -7.4619   22.7458 H   0  0  0  0  0  0
  -21.0839   -8.8720   19.8947 H   0  0  0  0  0  0
  -22.3670  -10.9634   19.6180 H   0  0  0  0  0  0
  -21.1892   -7.6138   23.9728 H   0  0  0  0  0  0
  -21.1457   -6.0515   25.9081 H   0  0  0  0  0  0
  -22.0612   -2.7620   23.2817 H   0  0  0  0  0  0
  -22.4046  -12.0032   22.4997 H   0  0  0  0  0  0
  -21.0978  -13.1256   22.2471 H   0  0  0  0  0  0
  -24.7142  -15.8605   20.6253 H   0  0  0  0  0  0
  -26.3545  -15.5794   20.2496 H   0  0  0  0  0  0
  -26.7097  -32.5529   23.1000 H   0  0  0  0  0  0
  -24.9790  -33.9683   25.0170 H   0  0  0  0  0  0
  -22.6879  -31.2915   21.3913 H   0  0  0  0  0  0
  -23.3740  -35.9654   23.3368 H   0  0  0  0  0  0
  -24.3535  -36.8903   22.2077 H   0  0  0  0  0  0
  -23.7210  -37.6518   23.6663 H   0  0  0  0  0  0
  -26.0080  -31.5674   20.5590 H   0  0  0  0  0  0
  -26.8220  -30.8997   21.9547 H   0  0  0  0  0  0
  -28.1031  -29.0607   21.1477 H   0  0  0  0  0  0
  -25.9321  -25.9445   19.0372 H   0  0  0  0  0  0
  -23.9459  -27.2692   19.0870 H   0  0  0  0  0  0
  -23.7090  -30.5584   19.3845 H   0  0  0  0  0  0
  -22.7315  -29.2092   19.8951 H   0  0  0  0  0  0
  -25.1291  -36.1945   25.0811 H   0  0  0  0  0  0
  -20.9937  -28.2826   24.1359 H   0  0  0  0  0  0
  -20.5217  -26.2060   23.2947 H   0  0  0  0  0  0
  -21.6470  -26.7293   22.0811 H   0  0  0  0  0  0
  -19.6783  -25.7006   20.9900 H   0  0  0  0  0  0
  -19.6452  -27.4039   20.6515 H   0  0  0  0  0  0
  -17.4103  -26.7061   21.3561 H   0  0  0  0  0  0
  -18.0277  -25.9858   22.8177 H   0  0  0  0  0  0
  -19.8013  -30.6944   24.2559 H   0  0  0  0  0  0
  -17.5057  -31.6017   24.5548 H   0  0  0  0  0  0
  -15.5329  -30.2868   23.7931 H   0  0  0  0  0  0
  -15.8607  -28.0923   22.6921 H   0  0  0  0  0  0
  -24.5745  -30.7230   25.7515 H   0  0  0  0  0  0
  -24.8879  -32.2984   26.4696 H   0  0  0  0  0  0
  -25.7862  -30.8844   27.0035 H   0  0  0  0  0  0
  -26.2831  -29.6814   24.1048 H   0  0  0  0  0  0
  -27.4029  -29.7314   25.4485 H   0  0  0  0  0  0
  -27.8660  -30.4383   23.9154 H   0  0  0  0  0  0
  -27.2525  -33.3616   26.2043 H   0  0  0  0  0  0
  -28.3785  -32.6978   25.0278 H   0  0  0  0  0  0
  -28.0621  -31.8424   26.5316 H   0  0  0  0  0  0
  -28.2608  -38.0059   24.7496 H   0  0  0  0  0  0
  -28.0998  -36.2611   24.6330 H   0  0  0  0  0  0
  -27.2287  -37.1481   25.8876 H   0  0  0  0  0  0
  -20.9163  -29.8733   21.7140 H   0  0  0  0  0  0
  -26.0174  -38.2892   24.1412 H   0  0  0  0  0  0
  -30.2459  -18.2267   21.7356 H   0  0  0  0  0  0
  -26.5653  -17.2905   18.6844 H   0  0  0  0  0  0
  -27.0407  -20.2427   22.5217 H   0  0  0  0  0  0
  -28.3823  -20.9545   23.3795 H   0  0  0  0  0  0
  -27.4483  -23.0171   22.9779 H   0  0  0  0  0  0
  -26.2585  -22.3189   21.9164 H   0  0  0  0  0  0
  -28.7311  -21.5987   19.3572 H   0  0  0  0  0  0
  -29.9755  -22.2127   20.4079 H   0  0  0  0  0  0
  -29.8279  -20.4897   21.7845 H   0  0  0  0  0  0
  -25.3954  -19.1826   19.8573 H   0  0  0  0  0  0
  -26.2392  -20.5689   20.3793 H   0  0  0  0  0  0
  -27.7787  -24.8077   21.7379 H   0  0  0  0  0  0
  -29.4421  -24.3657   21.5174 H   0  0  0  0  0  0
  -26.3087  -19.6128   17.4517 H   0  0  0  0  0  0
  -26.9100  -21.1592   18.0511 H   0  0  0  0  0  0
  -27.6316  -24.9102   19.0944 H   0  0  0  0  0  0
  -29.3298  -25.0188   19.1870 H   0  0  0  0  0  0
  -30.6587  -16.0759   21.7917 H   0  0  0  0  0  0
  -27.2453  -22.8941   20.2170 H   0  0  0  0  0  0
  -24.7924  -21.4237   17.2681 H   0  0  0  0  0  0
  1 25  1  0  0  0
  1 30  2  0  0  0
  1 85  1  0  0  0
  2  3  1  0  0  0
  2 25  1  0  0  0
  2 88  1  0  0  0
  2 89  1  0  0  0
  3  4  1  0  0  0
  3 90  1  0  0  0
  3 91  1  0  0  0
  4  5  1  0  0  0
  4 92  1  0  0  0
  4 93  1  0  0  0
  5  6  1  0  0  0
  5 26  1  0  0  0
  5 94  1  0  0  0
  6 25  1  0  0  0
  6 95  1  0  0  0
  6 96  1  0  0  0
  7  8  2  0  0  0
  7 26  1  0  0  0
  7 29  1  0  0  0
  8  9  1  0  0  0
  8 22  1  0  0  0
  9 10  1  0  0  0
  9 27  2  0  0  0
 10 11  2  0  0  0
 10 15  1  0  0  0
 11 12  1  0  0  0
 11 97  1  0  0  0
 12 13  2  0  0  0
 12 98  1  0  0  0
 13 14  1  0  0  0
 13 31  1  0  0  0
 14 15  2  0  0  0
 14 99  1  0  0  0
 15100  1  0  0  0
 16 17  2  0  0  0
 16 21  1  0  0  0
 16 31  1  0  0  0
 17 18  1  0  0  0
 17101  1  0  0  0
 18 19  2  0  0  0
 18102  1  0  0  0
 19 20  1  0  0  0
 19 24  1  0  0  0
 20 21  2  0  0  0
 20103  1  0  0  0
 21 23  1  0  0  0
 22 28  1  0  0  0
 22 32  2  0  0  0
 26 27  1  0  0  0
 28104  1  0  0  0
 28105  1  0  0  0
 29106  1  0  0  0
 29107  1  0  0  0
 33 34  1  0  0  0
 33 66  1  0  0  0
 33 70  2  0  0  0
 34 36  1  0  0  0
 34 59  1  0  0  0
 34108  1  0  0  0
 35 44  2  0  0  0
 35 45  1  0  0  0
 35 68  1  0  0  0
 36 56  1  0  0  0
 36109  1  0  0  0
 37 39  1  0  0  0
 37 47  1  0  0  0
 37 66  1  0  0  0
 37110  1  0  0  0
 38 43  2  0  0  0
 38 46  1  0  0  0
 38 47  1  0  0  0
 39 64  1  0  0  0
 39 67  2  0  0  0
 40 52  1  0  0  0
 40 53  2  0  0  0
 40 58  1  0  0  0
 41111  1  0  0  0
 41112  1  0  0  0
 41113  1  0  0  0
 41 48  1  0  0  0
 42 43  1  0  0  0
 42 66  1  0  0  0
 42114  1  0  0  0
 42115  1  0  0  0
 43 44  1  0  0  0
 44116  1  0  0  0
 45 46  2  0  0  0
 45117  1  0  0  0
 46118  1  0  0  0
 47119  1  0  0  0
 47120  1  0  0  0
 48 56  1  0  0  0
 48 65  1  0  0  0
 48121  1  0  0  0
 49 50  1  0  0  0
 49 53  1  0  0  0
 49 64  1  0  0  0
 49122  1  0  0  0
 50 51  1  0  0  0
 50123  1  0  0  0
 50124  1  0  0  0
 51 52  1  0  0  0
 51125  1  0  0  0
 51126  1  0  0  0
 52127  1  0  0  0
 52128  1  0  0  0
 53 54  1  0  0  0
 54 55  2  0  0  0
 54129  1  0  0  0
 55 57  1  0  0  0
 55130  1  0  0  0
 56 69  2  0  0  0
 57 58  2  0  0  0
 57131  1  0  0  0
 58132  1  0  0  0
 59 60  1  0  0  0
 59 61  1  0  0  0
 59 62  1  0  0  0
 60133  1  0  0  0
 60134  1  0  0  0
 60135  1  0  0  0
 61136  1  0  0  0
 61137  1  0  0  0
 61138  1  0  0  0
 62139  1  0  0  0
 62140  1  0  0  0
 62141  1  0  0  0
 63 65  1  0  0  0
 63142  1  0  0  0
 63143  1  0  0  0
 63144  1  0  0  0
 64145  1  0  0  0
 65146  1  0  0  0
 68 83  1  0  0  0
 71 73  2  0  0  0
 71 75  1  0  0  0
 71147  1  0  0  0
 72 74  2  0  0  0
 72 84  1  0  0  0
 72148  1  0  0  0
 73 74  1  0  0  0
 73 79  1  0  0  0
 74 80  1  0  0  0
 75 84  2  0  0  0
 75 85  1  0  0  0
 76 77  1  0  0  0
 76 79  1  0  0  0
 76149  1  0  0  0
 76150  1  0  0  0
 77 86  1  0  0  0
 77151  1  0  0  0
 77152  1  0  0  0
 78 79  1  0  0  0
 78 86  1  0  0  0
 78153  1  0  0  0
 78154  1  0  0  0
 79155  1  0  0  0
 80 82  1  0  0  0
 80156  1  0  0  0
 80157  1  0  0  0
 81 83  1  0  0  0
 81158  1  0  0  0
 81159  1  0  0  0
 81 86  1  0  0  0
 82 87  1  0  0  0
 82160  1  0  0  0
 82161  1  0  0  0
 83162  1  0  0  0
 83163  1  0  0  0
 85164  1  0  0  0
 86165  1  0  0  0
 87166  1  0  0  0
M  CHG  1  86   1
M  ISO  4   1 100  68 101  83 101  85 100
M  END
> <chiral flag>
0

> <version>
0

> <s_m_source_file>
/data/baiqing/PycharmProjects/Reinvent-master-3.2/result/LINK_invent/BTK/process_docking_weight1_custom_sum_contain_oxygen_bond_distance_aromatic_linkinvent_7_9_3/rearranged_h_0193.sdf

> <i_m_source_file_index>
3

> <r_mmod_Potential_Energy-OPLS-2005>
-106.982200622559

> <r_mmod_Stretch_Energy-OPLS-2005>
59.5572166442871

> <r_mmod_Bend_Energy-OPLS-2005>
166.879043579102

> <r_mmod_Torsional_Energy-OPLS-2005>
363.099426269531

> <r_mmod_Improper_Torsional_Energy-OPLS-2005>
6.84971189498901

> <r_mmod_Van_der_Waal_Energy-OPLS-2005>
144.065628051758

> <r_mmod_Electrostatic_Energy-OPLS-2005>
-416.649749755859

> <r_mmod_Solvation_Energy-OPLS-2005>
-468.762542724609

> <b_mmod_Minimization_Converged-OPLS-2005>
0

> <r_mmod_RMS_Derivative-OPLS-2005>
9.01460361480713

$$$$
3
                    3D
 Structure written by MMmdl.
159167  0  0  1  0            999 V2000
  -30.6421  -14.6449   20.4974 C   0  0  0  0  0  0
  -30.4357  -12.3930   19.4581 C   0  0  0  0  0  0
  -29.5088  -12.5102   18.2279 C   0  0  0  0  0  0
  -28.0326  -12.3464   18.6412 C   0  0  0  0  0  0
  -27.6553  -13.2208   19.8666 C   0  0  2  0  0  0
  -28.7016  -13.0864   20.9976 C   0  0  0  0  0  0
  -25.2554  -13.8166   20.5658 C   0  0  0  0  0  0
  -24.1832  -13.0431   20.9206 C   0  0  0  0  0  0
  -24.6410  -11.6904   20.8763 C   0  0  0  0  0  0
  -23.9074  -10.4288   21.0413 C   0  0  0  0  0  0
  -24.3618   -9.4201   21.9187 C   0  0  0  0  0  0
  -23.6288   -8.2238   22.0758 C   0  0  0  0  0  0
  -22.4270   -8.0281   21.3550 C   0  0  0  0  0  0
  -21.9909   -9.0251   20.4648 C   0  0  0  0  0  0
  -22.7242  -10.2130   20.3056 C   0  0  0  0  0  0
  -21.6851   -6.0731   22.5278 C   0  0  0  0  0  0
  -21.4012   -6.5635   23.8211 C   0  0  0  0  0  0
  -21.3660   -5.6787   24.9171 C   0  0  0  0  0  0
  -21.6042   -4.3050   24.7224 C   0  0  0  0  0  0
  -21.8817   -3.8143   23.4346 C   0  0  0  0  0  0
  -21.9193   -4.6960   22.3402 C   0  0  0  0  0  0
  -22.7853  -13.5236   21.1854 C   0  0  0  0  0  0
  -22.1661   -4.2145   21.0979 F   0  0  0  0  0  0
  -21.5630   -3.4533   25.7739 F   0  0  0  0  0  0
  -30.0187  -13.4226   20.4330 N   0  0  0  0  0  0
  -26.3004  -12.9366   20.3340 N   0  0  0  0  0  0
  -25.9344  -11.6522   20.5791 N   0  0  0  0  0  0
  -22.0483  -12.8232   22.0402 N   0  0  0  0  0  0
  -25.4227  -15.1871   20.3967 N   0  0  0  0  0  0
  -31.8013  -14.7839   20.0966 O   0  0  0  0  0  0
  -21.6640   -6.8872   21.4239 O   0  0  0  0  0  0
  -22.3549  -14.5550   20.6708 O   0  0  0  0  0  0
  -24.6281  -31.8576   23.2014 C   0  0  0  0  0  0
  -25.9124  -32.4777   23.8319 C   0  0  1  0  0  0
  -27.2210  -27.3085   20.1111 C   0  0  0  0  0  0
  -25.5933  -33.8571   24.2252 N   0  0  0  0  0  0
  -23.4219  -30.4837   21.5444 C   0  0  2  0  0  0
  -24.8653  -28.9368   20.1107 C   0  0  0  0  0  0
  -22.7492  -29.4623   22.4925 C   0  0  0  0  0  0
  -18.0292  -28.1398   22.8492 C   0  0  0  0  0  0
  -24.1488  -36.7271   23.2640 C   0  0  0  0  0  0
  -25.9651  -30.7836   21.3751 C   0  0  0  0  0  0
  -26.0356  -29.4115   20.7144 C   0  0  0  0  0  0
  -27.2154  -28.6093   20.7039 C   0  0  0  0  0  0
  -26.0219  -26.8859   19.4872 C   0  0  0  0  0  0
  -24.8589  -27.6777   19.4921 C   0  0  0  0  0  0
  -23.6373  -29.8209   20.1589 C   0  0  0  0  0  0
  -25.4117  -36.3074   24.0334 C   0  0  1  0  0  0
  -20.5898  -28.3692   23.1289 C   0  0  2  0  0  0
  -20.6793  -26.9411   22.5415 C   0  0  0  0  0  0
  -19.5763  -26.6387   21.5229 C   0  0  0  0  0  0
  -18.1939  -26.7949   22.1624 C   0  0  0  0  0  0
  -19.1546  -28.8860   23.2897 C   0  0  0  0  0  0
  -18.9477  -30.1470   23.8908 C   0  0  0  0  0  0
  -17.6474  -30.6598   24.0577 C   0  0  0  0  0  0
  -25.9056  -34.9453   23.5097 C   0  0  0  0  0  0
  -16.5360  -29.9103   23.6340 C   0  0  0  0  0  0
  -16.7275  -28.6525   23.0345 C   0  0  0  0  0  0
  -26.4493  -31.6599   25.0699 C   0  0  0  0  0  0
  -25.3712  -31.3780   26.1426 C   0  0  0  0  0  0
  -27.0329  -30.3019   24.6159 C   0  0  0  0  0  0
  -27.6040  -32.4345   25.7470 C   0  0  0  0  0  0
  -27.5593  -37.1780   24.8464 C   0  0  0  0  0  0
  -21.4198  -29.3045   22.3678 N   0  0  0  0  0  0
  -26.4288  -37.3781   23.9434 N   0  0  0  0  0  0
  -24.6911  -31.0583   22.0967 N   0  0  0  0  0  0
  -23.4218  -28.8151   23.2990 O   0  0  0  0  0  0
  -28.3428  -26.4608   20.1583 O   0  0  0  0  0  0
  -26.5618  -34.8935   22.4662 O   0  0  0  0  0  0
  -23.5445  -32.1371   23.7339 O   0  0  0  0  0  0
  -29.0652  -18.0034   21.4078 C   0  0  0  0  0  0
  -29.9938  -19.9840   20.5363 C   0  0  0  0  0  0
  -29.9895  -17.1526   20.7206 C   0  0  0  0  0  0
  -30.9281  -19.1487   19.8308 C   0  0  0  0  0  0
  -28.0306  -17.4338   22.3577 C   0  0  0  0  0  0
  -33.1248  -18.8782   18.7128 C   0  0  0  0  0  0
  -30.1250  -21.5555   20.6833 C   0  0  0  0  0  0
  -29.2922  -23.9917   20.3876 C   0  0  0  0  0  0
  -28.1472  -25.0033   19.9403 C   0  0  0  0  0  0
  -29.0609  -19.3714   21.3144 N   0  0  0  0  0  0
  -30.9022  -17.7778   19.9218 N   0  0  0  0  0  0
  -29.8678  -15.7019   20.8981 N   0  0  0  0  0  0
  -31.9491  -19.6873   19.0297 N   0  0  0  0  0  0
  -29.0638  -22.4968   20.1455 N   0  3  0  0  0  0
  -31.4792  -12.5025   19.1606 H   0  0  0  0  0  0
  -30.3593  -11.3997   19.9021 H   0  0  0  0  0  0
  -29.7740  -11.7572   17.4843 H   0  0  0  0  0  0
  -29.6509  -13.4793   17.7466 H   0  0  0  0  0  0
  -27.8739  -11.2939   18.8781 H   0  0  0  0  0  0
  -27.3749  -12.5695   17.8004 H   0  0  0  0  0  0
  -27.6706  -14.2552   19.5224 H   0  0  0  0  0  0
  -28.7116  -12.0687   21.3920 H   0  0  0  0  0  0
  -28.4467  -13.7272   21.8431 H   0  0  0  0  0  0
  -25.2758   -9.5678   22.4769 H   0  0  0  0  0  0
  -23.9994   -7.4630   22.7478 H   0  0  0  0  0  0
  -21.0842   -8.8769   19.8952 H   0  0  0  0  0  0
  -22.3699  -10.9670   19.6170 H   0  0  0  0  0  0
  -21.1997   -7.6142   23.9715 H   0  0  0  0  0  0
  -21.1484   -6.0514   25.9074 H   0  0  0  0  0  0
  -22.0599   -2.7603   23.2846 H   0  0  0  0  0  0
  -22.4069  -11.9875   22.4782 H   0  0  0  0  0  0
  -21.1119  -13.1293   22.2626 H   0  0  0  0  0  0
  -24.6301  -15.8192   20.4446 H   0  0  0  0  0  0
  -26.2317  -15.6047   19.9553 H   0  0  0  0  0  0
  -26.7186  -32.5429   23.1047 H   0  0  0  0  0  0
  -25.0103  -33.9703   25.0417 H   0  0  0  0  0  0
  -22.7178  -31.3066   21.4024 H   0  0  0  0  0  0
  -23.3783  -35.9570   23.3263 H   0  0  0  0  0  0
  -24.3580  -36.8918   22.2061 H   0  0  0  0  0  0
  -23.7196  -37.6447   23.6672 H   0  0  0  0  0  0
  -26.1034  -31.5465   20.6085 H   0  0  0  0  0  0
  -26.8451  -30.8246   22.0057 H   0  0  0  0  0  0
  -28.1139  -28.9687   21.1860 H   0  0  0  0  0  0
  -25.9451  -25.9266   18.9983 H   0  0  0  0  0  0
  -23.9584  -27.3059   19.0222 H   0  0  0  0  0  0
  -23.7674  -30.5992   19.4071 H   0  0  0  0  0  0
  -22.7546  -29.2583   19.8491 H   0  0  0  0  0  0
  -25.1298  -36.1903   25.0825 H   0  0  0  0  0  0
  -20.9996  -28.3259   24.1409 H   0  0  0  0  0  0
  -20.5710  -26.2297   23.3617 H   0  0  0  0  0  0
  -21.6655  -26.7449   22.1185 H   0  0  0  0  0  0
  -19.6924  -25.6298   21.1250 H   0  0  0  0  0  0
  -19.6717  -27.3215   20.6780 H   0  0  0  0  0  0
  -17.4214  -26.6709   21.4017 H   0  0  0  0  0  0
  -18.0313  -26.0088   22.9017 H   0  0  0  0  0  0
  -19.7955  -30.7289   24.2266 H   0  0  0  0  0  0
  -17.5034  -31.6283   24.5183 H   0  0  0  0  0  0
  -15.5366  -30.3016   23.7680 H   0  0  0  0  0  0
  -15.8669  -28.0869   22.7039 H   0  0  0  0  0  0
  -24.5839  -30.7192   25.7747 H   0  0  0  0  0  0
  -24.8978  -32.2988   26.4848 H   0  0  0  0  0  0
  -25.8009  -30.8923   27.0197 H   0  0  0  0  0  0
  -26.2895  -29.6772   24.1196 H   0  0  0  0  0  0
  -27.4053  -29.7274   25.4648 H   0  0  0  0  0  0
  -27.8754  -30.4312   23.9364 H   0  0  0  0  0  0
  -27.2631  -33.3663   26.1999 H   0  0  0  0  0  0
  -28.3870  -32.6876   25.0309 H   0  0  0  0  0  0
  -28.0676  -31.8500   26.5425 H   0  0  0  0  0  0
  -28.2564  -38.0123   24.7577 H   0  0  0  0  0  0
  -28.1132  -36.2658   24.6193 H   0  0  0  0  0  0
  -27.2321  -37.1305   25.8865 H   0  0  0  0  0  0
  -20.9378  -29.8779   21.6895 H   0  0  0  0  0  0
  -26.0161  -38.2841   24.1494 H   0  0  0  0  0  0
  -28.5226  -17.0135   23.2356 H   0  0  0  0  0  0
  -27.4443  -16.6530   21.8752 H   0  0  0  0  0  0
  -27.3417  -18.2071   22.6984 H   0  0  0  0  0  0
  -33.8463  -19.4617   18.1385 H   0  0  0  0  0  0
  -32.8597  -17.9995   18.1223 H   0  0  0  0  0  0
  -33.6223  -18.5387   19.6231 H   0  0  0  0  0  0
  -31.0857  -21.8689   20.2756 H   0  0  0  0  0  0
  -30.2034  -21.7470   21.7535 H   0  0  0  0  0  0
  -29.4690  -24.1395   21.4529 H   0  0  0  0  0  0
  -30.2159  -24.2795   19.8861 H   0  0  0  0  0  0
  -27.2401  -24.6952   20.4609 H   0  0  0  0  0  0
  -27.9599  -24.8477   18.8773 H   0  0  0  0  0  0
  -28.9941  -15.4100   21.3047 H   0  0  0  0  0  0
  -32.0429  -20.6945   18.9421 H   0  0  0  0  0  0
  -28.1876  -22.2179   20.5577 H   0  0  0  0  0  0
  -28.9905  -22.3327   19.1545 H   0  0  0  0  0  0
  1 25  1  0  0  0
  1 30  2  0  0  0
  1 82  1  0  0  0
  2  3  1  0  0  0
  2 25  1  0  0  0
  2 85  1  0  0  0
  2 86  1  0  0  0
  3  4  1  0  0  0
  3 87  1  0  0  0
  3 88  1  0  0  0
  4  5  1  0  0  0
  4 89  1  0  0  0
  4 90  1  0  0  0
  5  6  1  0  0  0
  5 26  1  0  0  0
  5 91  1  0  0  0
  6 25  1  0  0  0
  6 92  1  0  0  0
  6 93  1  0  0  0
  7  8  2  0  0  0
  7 26  1  0  0  0
  7 29  1  0  0  0
  8  9  1  0  0  0
  8 22  1  0  0  0
  9 10  1  0  0  0
  9 27  2  0  0  0
 10 11  2  0  0  0
 10 15  1  0  0  0
 11 12  1  0  0  0
 11 94  1  0  0  0
 12 13  2  0  0  0
 12 95  1  0  0  0
 13 14  1  0  0  0
 13 31  1  0  0  0
 14 15  2  0  0  0
 14 96  1  0  0  0
 15 97  1  0  0  0
 16 17  2  0  0  0
 16 21  1  0  0  0
 16 31  1  0  0  0
 17 18  1  0  0  0
 17 98  1  0  0  0
 18 19  2  0  0  0
 18 99  1  0  0  0
 19 20  1  0  0  0
 19 24  1  0  0  0
 20 21  2  0  0  0
 20100  1  0  0  0
 21 23  1  0  0  0
 22 28  1  0  0  0
 22 32  2  0  0  0
 26 27  1  0  0  0
 28101  1  0  0  0
 28102  1  0  0  0
 29103  1  0  0  0
 29104  1  0  0  0
 33 34  1  0  0  0
 33 66  1  0  0  0
 33 70  2  0  0  0
 34 36  1  0  0  0
 34 59  1  0  0  0
 34105  1  0  0  0
 35 44  2  0  0  0
 35 45  1  0  0  0
 35 68  1  0  0  0
 36 56  1  0  0  0
 36106  1  0  0  0
 37 39  1  0  0  0
 37 47  1  0  0  0
 37 66  1  0  0  0
 37107  1  0  0  0
 38 43  2  0  0  0
 38 46  1  0  0  0
 38 47  1  0  0  0
 39 64  1  0  0  0
 39 67  2  0  0  0
 40 52  1  0  0  0
 40 53  2  0  0  0
 40 58  1  0  0  0
 41108  1  0  0  0
 41109  1  0  0  0
 41110  1  0  0  0
 41 48  1  0  0  0
 42 43  1  0  0  0
 42 66  1  0  0  0
 42111  1  0  0  0
 42112  1  0  0  0
 43 44  1  0  0  0
 44113  1  0  0  0
 45 46  2  0  0  0
 45114  1  0  0  0
 46115  1  0  0  0
 47116  1  0  0  0
 47117  1  0  0  0
 48 56  1  0  0  0
 48 65  1  0  0  0
 48118  1  0  0  0
 49 50  1  0  0  0
 49 53  1  0  0  0
 49 64  1  0  0  0
 49119  1  0  0  0
 50 51  1  0  0  0
 50120  1  0  0  0
 50121  1  0  0  0
 51 52  1  0  0  0
 51122  1  0  0  0
 51123  1  0  0  0
 52124  1  0  0  0
 52125  1  0  0  0
 53 54  1  0  0  0
 54 55  2  0  0  0
 54126  1  0  0  0
 55 57  1  0  0  0
 55127  1  0  0  0
 56 69  2  0  0  0
 57 58  2  0  0  0
 57128  1  0  0  0
 58129  1  0  0  0
 59 60  1  0  0  0
 59 61  1  0  0  0
 59 62  1  0  0  0
 60130  1  0  0  0
 60131  1  0  0  0
 60132  1  0  0  0
 61133  1  0  0  0
 61134  1  0  0  0
 61135  1  0  0  0
 62136  1  0  0  0
 62137  1  0  0  0
 62138  1  0  0  0
 63 65  1  0  0  0
 63139  1  0  0  0
 63140  1  0  0  0
 63141  1  0  0  0
 64142  1  0  0  0
 65143  1  0  0  0
 68 79  1  0  0  0
 71 73  2  0  0  0
 71 75  1  0  0  0
 71 80  1  0  0  0
 72 74  1  0  0  0
 72 77  1  0  0  0
 72 80  2  0  0  0
 73 81  1  0  0  0
 73 82  1  0  0  0
 74 81  2  0  0  0
 74 83  1  0  0  0
 75144  1  0  0  0
 75145  1  0  0  0
 75146  1  0  0  0
 76 83  1  0  0  0
 76147  1  0  0  0
 76148  1  0  0  0
 76149  1  0  0  0
 77 84  1  0  0  0
 77150  1  0  0  0
 77151  1  0  0  0
 78 79  1  0  0  0
 78 84  1  0  0  0
 78152  1  0  0  0
 78153  1  0  0  0
 79154  1  0  0  0
 79155  1  0  0  0
 82156  1  0  0  0
 83157  1  0  0  0
 84158  1  0  0  0
 84159  1  0  0  0
M  CHG  1  84   1
M  ISO  4   1 100  68 101  79 101  82 100
M  END
> <chiral flag>
0

> <version>
0

> <s_m_source_file>
/data/baiqing/PycharmProjects/Reinvent-master-3.2/result/LINK_invent/BTK/process_docking_weight1_custom_sum_contain_oxygen_bond_distance_aromatic_linkinvent_7_9_3/rearranged_h_0193.sdf

> <i_m_source_file_index>
4

> <r_mmod_Potential_Energy-OPLS-2005>
-150.317779541016

> <r_mmod_Stretch_Energy-OPLS-2005>
87.9103546142578

> <r_mmod_Bend_Energy-OPLS-2005>
149.494155883789

> <r_mmod_Torsional_Energy-OPLS-2005>
192.500045776367

> <r_mmod_Improper_Torsional_Energy-OPLS-2005>
6.40505123138428

> <r_mmod_Van_der_Waal_Energy-OPLS-2005>
151.160140991211

> <r_mmod_Electrostatic_Energy-OPLS-2005>
-279.938232421875

> <r_mmod_Solvation_Energy-OPLS-2005>
-508.492919921875

> <b_mmod_Minimization_Converged-OPLS-2005>
0

> <r_mmod_RMS_Derivative-OPLS-2005>
1.95151102542877

$$$$
4
                    3D
 Structure written by MMmdl.
160169  0  0  1  0            999 V2000
  -30.7240  -14.5169   20.5749 C   0  0  0  0  0  0
  -30.4204  -12.3296   19.4570 C   0  0  0  0  0  0
  -29.5130  -12.5083   18.2224 C   0  0  0  0  0  0
  -28.0255  -12.3759   18.6136 C   0  0  0  0  0  0
  -27.6586  -13.2193   19.8670 C   0  0  2  0  0  0
  -28.6970  -13.0342   20.9973 C   0  0  0  0  0  0
  -25.2570  -13.8163   20.5684 C   0  0  0  0  0  0
  -24.1821  -13.0397   20.9148 C   0  0  0  0  0  0
  -24.6424  -11.6886   20.8657 C   0  0  0  0  0  0
  -23.9093  -10.4252   21.0340 C   0  0  0  0  0  0
  -24.3606   -9.4156   21.9140 C   0  0  0  0  0  0
  -23.6249   -8.2219   22.0747 C   0  0  0  0  0  0
  -22.4217   -8.0274   21.3560 C   0  0  0  0  0  0
  -21.9887   -9.0233   20.4637 C   0  0  0  0  0  0
  -22.7242  -10.2109   20.3026 C   0  0  0  0  0  0
  -21.6845   -6.0710   22.5274 C   0  0  0  0  0  0
  -21.4014   -6.5603   23.8210 C   0  0  0  0  0  0
  -21.3678   -5.6755   24.9182 C   0  0  0  0  0  0
  -21.6049   -4.3023   24.7223 C   0  0  0  0  0  0
  -21.8804   -3.8114   23.4339 C   0  0  0  0  0  0
  -21.9180   -4.6933   22.3400 C   0  0  0  0  0  0
  -22.7849  -13.5219   21.1797 C   0  0  0  0  0  0
  -22.1645   -4.2108   21.0988 F   0  0  0  0  0  0
  -21.5645   -3.4505   25.7747 F   0  0  0  0  0  0
  -30.0284  -13.3446   20.4520 N   0  0  0  0  0  0
  -26.3006  -12.9355   20.3273 N   0  0  0  0  0  0
  -25.9359  -11.6492   20.5668 N   0  0  0  0  0  0
  -22.0465  -12.8247   22.0371 N   0  0  0  0  0  0
  -25.4246  -15.1898   20.4259 N   0  0  0  0  0  0
  -31.8420  -14.6569   20.0695 O   0  0  0  0  0  0
  -21.6601   -6.8855   21.4240 O   0  0  0  0  0  0
  -22.3539  -14.5511   20.6639 O   0  0  0  0  0  0
  -24.6226  -31.8692   23.2063 C   0  0  0  0  0  0
  -25.9102  -32.4836   23.8388 C   0  0  1  0  0  0
  -27.2144  -27.3841   20.1014 C   0  0  0  0  0  0
  -25.5951  -33.8630   24.2332 N   0  0  0  0  0  0
  -23.4101  -30.4941   21.5531 C   0  0  2  0  0  0
  -24.8474  -28.9608   20.1061 C   0  0  0  0  0  0
  -22.7475  -29.4661   22.4997 C   0  0  0  0  0  0
  -18.0301  -28.1403   22.8481 C   0  0  0  0  0  0
  -24.1481  -36.7315   23.2645 C   0  0  0  0  0  0
  -25.9464  -30.8137   21.3648 C   0  0  0  0  0  0
  -26.0159  -29.4469   20.7090 C   0  0  0  0  0  0
  -27.2021  -28.6704   20.7006 C   0  0  0  0  0  0
  -26.0286  -26.9406   19.4677 C   0  0  0  0  0  0
  -24.8540  -27.7097   19.4743 C   0  0  0  0  0  0
  -23.6149  -29.8355   20.1637 C   0  0  0  0  0  0
  -25.4093  -36.3125   24.0353 C   0  0  1  0  0  0
  -20.5892  -28.3685   23.1313 C   0  0  2  0  0  0
  -20.6790  -26.9428   22.5414 C   0  0  0  0  0  0
  -19.5749  -26.6388   21.5240 C   0  0  0  0  0  0
  -18.1929  -26.7946   22.1632 C   0  0  0  0  0  0
  -19.1556  -28.8857   23.2886 C   0  0  0  0  0  0
  -18.9480  -30.1471   23.8878 C   0  0  0  0  0  0
  -17.6477  -30.6594   24.0560 C   0  0  0  0  0  0
  -25.9016  -34.9491   23.5121 C   0  0  0  0  0  0
  -16.5363  -29.9088   23.6333 C   0  0  0  0  0  0
  -16.7282  -28.6522   23.0313 C   0  0  0  0  0  0
  -26.4459  -31.6615   25.0746 C   0  0  0  0  0  0
  -25.3728  -31.3747   26.1519 C   0  0  0  0  0  0
  -27.0295  -30.3065   24.6132 C   0  0  0  0  0  0
  -27.6023  -32.4349   25.7513 C   0  0  0  0  0  0
  -27.5576  -37.1824   24.8480 C   0  0  0  0  0  0
  -21.4203  -29.3049   22.3747 N   0  0  0  0  0  0
  -26.4278  -37.3825   23.9442 N   0  0  0  0  0  0
  -24.6796  -31.0753   22.0982 N   0  0  0  0  0  0
  -23.4254  -28.8189   23.3019 O   0  0  0  0  0  0
  -28.3366  -26.5621   20.1616 O   0  0  0  0  0  0
  -26.5596  -34.8959   22.4703 O   0  0  0  0  0  0
  -23.5398  -32.1449   23.7422 O   0  0  0  0  0  0
  -28.0536  -20.3626   22.1923 C   0  0  0  0  0  0
  -27.4129  -21.5370   22.5989 C   0  0  0  0  0  0
  -29.1101  -20.4819   21.2914 C   0  0  0  0  0  0
  -28.7654  -22.7803   21.2353 C   0  0  0  0  0  0
  -29.9383  -17.4862   22.5508 C   0  0  0  0  0  0
  -29.9076  -15.9489   22.4277 C   0  0  0  0  0  0
  -30.0967  -16.8949   20.2610 C   0  0  0  0  0  0
  -29.4843  -17.9768   21.1776 C   0  0  2  0  0  0
  -28.0397  -25.1410   20.3481 C   0  0  0  0  0  0
  -29.2114  -24.1798   20.7420 C   0  0  2  0  0  0
  -27.7843  -22.7408   22.1290 N   0  0  0  0  0  0
  -29.4567  -21.7011   20.8080 N   0  0  0  0  0  0
  -30.0360  -15.6140   21.0000 N   0  0  0  0  0  0
  -29.8645  -19.3680   20.8630 N   0  0  0  0  0  0
  -30.0950  -23.9146   19.5978 N   0  3  0  0  0  0
  -31.4691  -12.4097   19.1696 H   0  0  0  0  0  0
  -30.3066  -11.3276   19.8726 H   0  0  0  0  0  0
  -29.7725  -11.7683   17.4650 H   0  0  0  0  0  0
  -29.6906  -13.4841   17.7701 H   0  0  0  0  0  0
  -27.8238  -11.3215   18.7965 H   0  0  0  0  0  0
  -27.3929  -12.6530   17.7682 H   0  0  0  0  0  0
  -27.6909  -14.2646   19.5630 H   0  0  0  0  0  0
  -28.6774  -12.0061   21.3615 H   0  0  0  0  0  0
  -28.4411  -13.6567   21.8524 H   0  0  0  0  0  0
  -25.2762   -9.5582   22.4709 H   0  0  0  0  0  0
  -23.9883   -7.4600   22.7510 H   0  0  0  0  0  0
  -21.0793   -8.8778   19.8967 H   0  0  0  0  0  0
  -22.3688  -10.9627   19.6116 H   0  0  0  0  0  0
  -21.2008   -7.6107   23.9707 H   0  0  0  0  0  0
  -21.1546   -6.0499   25.9092 H   0  0  0  0  0  0
  -22.0586   -2.7566   23.2865 H   0  0  0  0  0  0
  -22.4026  -11.9934   22.4823 H   0  0  0  0  0  0
  -21.1128  -13.1369   22.2580 H   0  0  0  0  0  0
  -24.6672  -15.8453   20.5895 H   0  0  0  0  0  0
  -26.2978  -15.6415   20.1860 H   0  0  0  0  0  0
  -26.7197  -32.5493   23.1166 H   0  0  0  0  0  0
  -25.0208  -33.9782   25.0548 H   0  0  0  0  0  0
  -22.6991  -31.3118   21.4182 H   0  0  0  0  0  0
  -23.3750  -35.9653   23.3308 H   0  0  0  0  0  0
  -24.3565  -36.8907   22.2061 H   0  0  0  0  0  0
  -23.7226  -37.6522   23.6629 H   0  0  0  0  0  0
  -26.0739  -31.5678   20.5860 H   0  0  0  0  0  0
  -26.8326  -30.8620   21.9851 H   0  0  0  0  0  0
  -28.0914  -29.0417   21.1879 H   0  0  0  0  0  0
  -25.9803  -25.9926   18.9555 H   0  0  0  0  0  0
  -23.9652  -27.3342   18.9843 H   0  0  0  0  0  0
  -23.7291  -30.6146   19.4107 H   0  0  0  0  0  0
  -22.7356  -29.2638   19.8619 H   0  0  0  0  0  0
  -25.1257  -36.1982   25.0842 H   0  0  0  0  0  0
  -20.9955  -28.3261   24.1438 H   0  0  0  0  0  0
  -20.5746  -26.2313   23.3625 H   0  0  0  0  0  0
  -21.6660  -26.7493   22.1181 H   0  0  0  0  0  0
  -19.6918  -25.6306   21.1252 H   0  0  0  0  0  0
  -19.6667  -27.3221   20.6793 H   0  0  0  0  0  0
  -17.4219  -26.6719   21.4005 H   0  0  0  0  0  0
  -18.0272  -26.0103   22.9021 H   0  0  0  0  0  0
  -19.7957  -30.7304   24.2214 H   0  0  0  0  0  0
  -17.5026  -31.6256   24.5213 H   0  0  0  0  0  0
  -15.5356  -30.2974   23.7677 H   0  0  0  0  0  0
  -15.8682  -28.0846   22.6983 H   0  0  0  0  0  0
  -24.5877  -30.7097   25.7902 H   0  0  0  0  0  0
  -24.8947  -32.2909   26.4996 H   0  0  0  0  0  0
  -25.8091  -30.8924   27.0276 H   0  0  0  0  0  0
  -26.2854  -29.6864   24.1129 H   0  0  0  0  0  0
  -27.4027  -29.7254   25.4567 H   0  0  0  0  0  0
  -27.8688  -30.4413   23.9318 H   0  0  0  0  0  0
  -27.2629  -33.3650   26.2096 H   0  0  0  0  0  0
  -28.3828  -32.6930   25.0336 H   0  0  0  0  0  0
  -28.0714  -31.8500   26.5443 H   0  0  0  0  0  0
  -28.2609  -38.0105   24.7513 H   0  0  0  0  0  0
  -28.1031  -36.2640   24.6269 H   0  0  0  0  0  0
  -27.2309  -37.1454   25.8886 H   0  0  0  0  0  0
  -20.9432  -29.8779   21.6941 H   0  0  0  0  0  0
  -26.0148  -38.2908   24.1407 H   0  0  0  0  0  0
  -27.7157  -19.4179   22.5904 H   0  0  0  0  0  0
  -26.5949  -21.5101   23.3069 H   0  0  0  0  0  0
  -30.9595  -17.8165   22.7551 H   0  0  0  0  0  0
  -29.3093  -17.8469   23.3665 H   0  0  0  0  0  0
  -28.9619  -15.5733   22.8125 H   0  0  0  0  0  0
  -30.7038  -15.5012   23.0235 H   0  0  0  0  0  0
  -29.5640  -16.8242   19.3139 H   0  0  0  0  0  0
  -31.1396  -17.1354   20.0385 H   0  0  0  0  0  0
  -28.4010  -17.8758   21.1146 H   0  0  0  0  0  0
  -27.2938  -25.0988   21.1476 H   0  0  0  0  0  0
  -27.5643  -24.7207   19.4651 H   0  0  0  0  0  0
  -29.7953  -24.6329   21.5434 H   0  0  0  0  0  0
  -30.5696  -19.5256   20.1481 H   0  0  0  0  0  0
  -30.8319  -24.5839   19.5031 H   0  0  0  0  0  0
  -29.5736  -23.8057   18.7486 H   0  0  0  0  0  0
  -30.4579  -22.9955   19.8312 H   0  0  0  0  0  0
  1 25  1  0  0  0
  1 30  2  0  0  0
  1 83  1  0  0  0
  2  3  1  0  0  0
  2 25  1  0  0  0
  2 86  1  0  0  0
  2 87  1  0  0  0
  3  4  1  0  0  0
  3 88  1  0  0  0
  3 89  1  0  0  0
  4  5  1  0  0  0
  4 90  1  0  0  0
  4 91  1  0  0  0
  5  6  1  0  0  0
  5 26  1  0  0  0
  5 92  1  0  0  0
  6 25  1  0  0  0
  6 93  1  0  0  0
  6 94  1  0  0  0
  7  8  2  0  0  0
  7 26  1  0  0  0
  7 29  1  0  0  0
  8  9  1  0  0  0
  8 22  1  0  0  0
  9 10  1  0  0  0
  9 27  2  0  0  0
 10 11  2  0  0  0
 10 15  1  0  0  0
 11 12  1  0  0  0
 11 95  1  0  0  0
 12 13  2  0  0  0
 12 96  1  0  0  0
 13 14  1  0  0  0
 13 31  1  0  0  0
 14 15  2  0  0  0
 14 97  1  0  0  0
 15 98  1  0  0  0
 16 17  2  0  0  0
 16 21  1  0  0  0
 16 31  1  0  0  0
 17 18  1  0  0  0
 17 99  1  0  0  0
 18 19  2  0  0  0
 18100  1  0  0  0
 19 20  1  0  0  0
 19 24  1  0  0  0
 20 21  2  0  0  0
 20101  1  0  0  0
 21 23  1  0  0  0
 22 28  1  0  0  0
 22 32  2  0  0  0
 26 27  1  0  0  0
 28102  1  0  0  0
 28103  1  0  0  0
 29104  1  0  0  0
 29105  1  0  0  0
 33 34  1  0  0  0
 33 66  1  0  0  0
 33 70  2  0  0  0
 34 36  1  0  0  0
 34 59  1  0  0  0
 34106  1  0  0  0
 35 44  2  0  0  0
 35 45  1  0  0  0
 35 68  1  0  0  0
 36 56  1  0  0  0
 36107  1  0  0  0
 37 39  1  0  0  0
 37 47  1  0  0  0
 37 66  1  0  0  0
 37108  1  0  0  0
 38 43  2  0  0  0
 38 46  1  0  0  0
 38 47  1  0  0  0
 39 64  1  0  0  0
 39 67  2  0  0  0
 40 52  1  0  0  0
 40 53  2  0  0  0
 40 58  1  0  0  0
 41109  1  0  0  0
 41110  1  0  0  0
 41111  1  0  0  0
 41 48  1  0  0  0
 42 43  1  0  0  0
 42 66  1  0  0  0
 42112  1  0  0  0
 42113  1  0  0  0
 43 44  1  0  0  0
 44114  1  0  0  0
 45 46  2  0  0  0
 45115  1  0  0  0
 46116  1  0  0  0
 47117  1  0  0  0
 47118  1  0  0  0
 48 56  1  0  0  0
 48 65  1  0  0  0
 48119  1  0  0  0
 49 50  1  0  0  0
 49 53  1  0  0  0
 49 64  1  0  0  0
 49120  1  0  0  0
 50 51  1  0  0  0
 50121  1  0  0  0
 50122  1  0  0  0
 51 52  1  0  0  0
 51123  1  0  0  0
 51124  1  0  0  0
 52125  1  0  0  0
 52126  1  0  0  0
 53 54  1  0  0  0
 54 55  2  0  0  0
 54127  1  0  0  0
 55 57  1  0  0  0
 55128  1  0  0  0
 56 69  2  0  0  0
 57 58  2  0  0  0
 57129  1  0  0  0
 58130  1  0  0  0
 59 60  1  0  0  0
 59 61  1  0  0  0
 59 62  1  0  0  0
 60131  1  0  0  0
 60132  1  0  0  0
 60133  1  0  0  0
 61134  1  0  0  0
 61135  1  0  0  0
 61136  1  0  0  0
 62137  1  0  0  0
 62138  1  0  0  0
 62139  1  0  0  0
 63 65  1  0  0  0
 63140  1  0  0  0
 63141  1  0  0  0
 63142  1  0  0  0
 64143  1  0  0  0
 65144  1  0  0  0
 68 79  1  0  0  0
 71 72  2  0  0  0
 71 73  1  0  0  0
 71145  1  0  0  0
 72 81  1  0  0  0
 72146  1  0  0  0
 73 82  2  0  0  0
 73 84  1  0  0  0
 74 80  1  0  0  0
 74 81  2  0  0  0
 74 82  1  0  0  0
 75 76  1  0  0  0
 75 78  1  0  0  0
 75147  1  0  0  0
 75148  1  0  0  0
 76 83  1  0  0  0
 76149  1  0  0  0
 76150  1  0  0  0
 77 78  1  0  0  0
 77 83  1  0  0  0
 77151  1  0  0  0
 77152  1  0  0  0
 78 84  1  0  0  0
 78153  1  0  0  0
 79 80  1  0  0  0
 79154  1  0  0  0
 79155  1  0  0  0
 80 85  1  0  0  0
 80156  1  0  0  0
 84157  1  0  0  0
 85158  1  0  0  0
 85159  1  0  0  0
 85160  1  0  0  0
M  CHG  1  85   1
M  ISO  4   1 100  68 101  79 101  83 100
M  END
> <chiral flag>
0

> <version>
0

> <s_m_source_file>
/data/baiqing/PycharmProjects/Reinvent-master-3.2/result/LINK_invent/BTK/process_docking_weight1_custom_sum_contain_oxygen_bond_distance_aromatic_linkinvent_7_9_3/rearranged_h_0193.sdf

> <i_m_source_file_index>
5

> <r_mmod_Potential_Energy-OPLS-2005>
-768.871215820312

> <r_mmod_Stretch_Energy-OPLS-2005>
49.8023834228516

> <r_mmod_Bend_Energy-OPLS-2005>
148.509948730469

> <r_mmod_Torsional_Energy-OPLS-2005>
322.719635009766

> <r_mmod_Improper_Torsional_Energy-OPLS-2005>
11.073130607605

> <r_mmod_Van_der_Waal_Energy-OPLS-2005>
173.126113891602

> <r_mmod_Electrostatic_Energy-OPLS-2005>
-1028.59020996094

> <r_mmod_Solvation_Energy-OPLS-2005>
-469.810607910156

> <b_mmod_Minimization_Converged-OPLS-2005>
0

> <r_mmod_RMS_Derivative-OPLS-2005>
5.41892385482788

$$$$
5
                    3D
 Structure written by MMmdl.
166175  0  0  1  0            999 V2000
  -28.9760  -16.1689   20.6944 C   0  0  0  0  0  0
  -30.1062  -13.6694   19.7488 C   0  0  0  0  0  0
  -29.4991  -12.8891   18.5093 C   0  0  0  0  0  0
  -28.1370  -12.2811   18.8561 C   0  0  0  0  0  0
  -27.4429  -13.2536   19.8193 C   0  0  2  0  0  0
  -28.2464  -13.6161   21.0620 C   0  0  0  0  0  0
  -25.1527  -13.8010   20.5577 C   0  0  0  0  0  0
  -24.1065  -13.0212   20.9274 C   0  0  0  0  0  0
  -24.5785  -11.6723   20.8776 C   0  0  0  0  0  0
  -23.8686  -10.4132   21.0491 C   0  0  0  0  0  0
  -24.3404   -9.4112   21.9236 C   0  0  0  0  0  0
  -23.6172   -8.2112   22.0767 C   0  0  0  0  0  0
  -22.4164   -8.0136   21.3540 C   0  0  0  0  0  0
  -21.9711   -9.0059   20.4645 C   0  0  0  0  0  0
  -22.6934  -10.1966   20.3079 C   0  0  0  0  0  0
  -21.6804   -6.0653   22.5293 C   0  0  0  0  0  0
  -21.3979   -6.5593   23.8216 C   0  0  0  0  0  0
  -21.3648   -5.6763   24.9190 C   0  0  0  0  0  0
  -21.6044   -4.3027   24.7252 C   0  0  0  0  0  0
  -21.8825   -3.8098   23.4382 C   0  0  0  0  0  0
  -21.9178   -4.6895   22.3428 C   0  0  0  0  0  0
  -22.7222  -13.5069   21.2042 C   0  0  0  0  0  0
  -22.1656   -4.2087   21.1004 F   0  0  0  0  0  0
  -21.5634   -3.4526   25.7773 F   0  0  0  0  0  0
  -29.0972  -14.6466   20.5332 N   0  0  0  0  0  0
  -26.1544  -12.9060   20.2632 N   0  0  0  0  0  0
  -25.8550  -11.6250   20.5414 N   0  0  0  0  0  0
  -21.9945  -12.8090   22.0655 N   0  0  0  0  0  0
  -25.3314  -15.1782   20.4274 N   0  0  0  0  0  0
  -30.2257  -16.3321   20.4083 O   0  0  0  0  0  0
  -21.6565   -6.8738   21.4233 O   0  0  0  0  0  0
  -22.3001  -14.5428   20.6919 O   0  0  0  0  0  0
  -24.5758  -31.8612   23.0696 C   0  0  0  0  0  0
  -25.8668  -32.4752   23.7864 C   0  0  1  0  0  0
  -26.7085  -27.7249   21.0563 C   0  0  0  0  0  0
  -25.5229  -33.8533   24.1669 N   0  0  0  0  0  0
  -23.4407  -30.2611   21.2707 C   0  0  2  0  0  0
  -25.1196  -29.2869   19.6144 C   0  0  0  0  0  0
  -23.2685  -28.6702   21.5433 C   0  0  0  0  0  0
  -18.4631  -27.4205   23.1905 C   0  0  0  0  0  0
  -24.1444  -36.7374   23.2660 C   0  0  0  0  0  0
  -25.8881  -31.0743   21.1753 C   0  0  0  0  0  0
  -26.1324  -29.7953   20.4446 C   0  0  0  0  0  0
  -27.1953  -28.9908   20.8485 C   0  0  0  0  0  0
  -26.1051  -27.0993   19.9075 C   0  0  0  0  0  0
  -25.2308  -27.9365   19.1568 C   0  0  0  0  0  0
  -23.7831  -30.0363   19.7592 C   0  0  0  0  0  0
  -25.4085  -36.3102   24.0289 C   0  0  1  0  0  0
  -21.6237  -27.1617   23.3314 C   0  0  2  0  0  0
  -21.5819  -26.6563   21.2176 C   0  0  0  0  0  0
  -19.8425  -26.4382   20.7476 C   0  0  0  0  0  0
  -18.5343  -26.5206   21.8590 C   0  0  0  0  0  0
  -19.7291  -27.7173   24.0263 C   0  0  0  0  0  0
  -19.3618  -29.0862   24.5837 C   0  0  0  0  0  0
  -18.1868  -29.9375   24.3961 C   0  0  0  0  0  0
  -25.8937  -34.9505   23.4926 C   0  0  0  0  0  0
  -17.0547  -29.4721   23.7258 C   0  0  0  0  0  0
  -17.2146  -28.1945   23.1694 C   0  0  0  0  0  0
  -26.4694  -31.7187   25.0662 C   0  0  0  0  0  0
  -25.4022  -31.3669   26.1301 C   0  0  0  0  0  0
  -27.2985  -30.4498   24.7170 C   0  0  0  0  0  0
  -27.5158  -32.6222   25.7730 C   0  0  0  0  0  0
  -27.5565  -37.1767   24.8455 C   0  0  0  0  0  0
  -22.6937  -27.6761   22.3068 N   0  0  0  0  0  0
  -26.4276  -37.3793   23.9407 N   0  0  0  0  0  0
  -24.6173  -31.0584   21.9336 N   0  0  0  0  0  0
  -24.0177  -27.8354   21.4394 O   0  0  0  0  0  0
  -26.1461  -27.6040   22.4022 O   0  0  0  0  0  0
  -26.5836  -34.9071   22.4706 O   0  0  0  0  0  0
  -23.4897  -32.1510   23.5812 O   0  0  0  0  0  0
  -20.7345  -24.4849   24.0426 C   0  0  0  0  0  0
  -21.5153  -23.1412   23.6643 C   0  0  0  0  0  0
  -27.5936  -19.4810   20.3455 C   0  0  0  0  0  0
  -28.4890  -18.6552   21.3239 C   0  0  0  0  0  0
  -20.7750  -25.1877   22.6432 C   0  0  2  0  0  0
  -22.4760  -23.6465   22.5473 C   0  0  2  0  0  0
  -26.3472  -18.9416   20.9963 C   0  0  2  0  0  0
  -20.4485  -28.4377   21.9861 C   0  0  0  0  0  0
  -24.9926  -20.6196   21.9426 C   0  0  0  0  0  0
  -23.1268  -29.3204   24.0229 C   0  0  0  0  0  0
  -25.0339  -28.5954   23.5154 C   0  0  0  0  0  0
  -27.7299  -17.3873   21.1231 N   0  0  0  0  0  0
  -23.5380  -22.0648   21.7540 N   0  3  0  0  0  0
  -21.4760  -29.6022   23.1269 N   0  3  0  0  0  0
  -30.9540  -14.2465   19.3785 H   0  0  0  0  0  0
  -30.5699  -12.9619   20.4394 H   0  0  0  0  0  0
  -30.1866  -12.1249   18.1447 H   0  0  0  0  0  0
  -29.3643  -13.5960   17.6898 H   0  0  0  0  0  0
  -28.2848  -11.3205   19.3513 H   0  0  0  0  0  0
  -27.5413  -12.0917   17.9627 H   0  0  0  0  0  0
  -27.2766  -14.1359   19.1947 H   0  0  0  0  0  0
  -28.7399  -12.7584   21.5226 H   0  0  0  0  0  0
  -27.6320  -14.0663   21.8434 H   0  0  0  0  0  0
  -25.2541   -9.5672   22.4801 H   0  0  0  0  0  0
  -23.9918   -7.4505   22.7467 H   0  0  0  0  0  0
  -21.0652   -8.8507   19.8955 H   0  0  0  0  0  0
  -22.3360  -10.9502   19.6203 H   0  0  0  0  0  0
  -21.1960   -7.6103   23.9696 H   0  0  0  0  0  0
  -21.1473   -6.0508   25.9088 H   0  0  0  0  0  0
  -22.0621   -2.7561   23.2902 H   0  0  0  0  0  0
  -22.3559  -11.9721   22.4979 H   0  0  0  0  0  0
  -21.0600  -13.1161   22.2961 H   0  0  0  0  0  0
  -24.5802  -15.8286   20.6266 H   0  0  0  0  0  0
  -26.1810  -15.6396   20.1336 H   0  0  0  0  0  0
  -26.7071  -32.5965   23.1150 H   0  0  0  0  0  0
  -24.9045  -33.9639   24.9580 H   0  0  0  0  0  0
  -22.5175  -30.8397   21.3002 H   0  0  0  0  0  0
  -23.3668  -35.9738   23.3330 H   0  0  0  0  0  0
  -24.3479  -36.9037   22.2065 H   0  0  0  0  0  0
  -23.7251  -37.6579   23.6745 H   0  0  0  0  0  0
  -25.8581  -31.8948   20.4558 H   0  0  0  0  0  0
  -26.7909  -31.2279   21.7468 H   0  0  0  0  0  0
  -27.8427  -29.3955   21.6112 H   0  0  0  0  0  0
  -25.8610  -26.0471   19.9080 H   0  0  0  0  0  0
  -24.4633  -27.4860   18.5435 H   0  0  0  0  0  0
  -23.8684  -30.9966   19.2504 H   0  0  0  0  0  0
  -22.9966  -29.5062   19.2143 H   0  0  0  0  0  0
  -25.1302  -36.1864   25.0781 H   0  0  0  0  0  0
  -22.2384  -26.6027   24.0396 H   0  0  0  0  0  0
  -22.2089  -25.7928   20.9392 H   0  0  0  0  0  0
  -21.8338  -27.2399   20.3147 H   0  0  0  0  0  0
  -19.7451  -25.5193   20.1652 H   0  0  0  0  0  0
  -19.6220  -27.1661   19.9651 H   0  0  0  0  0  0
  -17.7063  -26.8190   21.2131 H   0  0  0  0  0  0
  -18.2061  -25.5254   22.1603 H   0  0  0  0  0  0
  -20.1170  -29.5462   25.2092 H   0  0  0  0  0  0
  -18.1548  -30.9130   24.8599 H   0  0  0  0  0  0
  -16.1491  -30.0532   23.6115 H   0  0  0  0  0  0
  -16.3955  -27.8538   22.5509 H   0  0  0  0  0  0
  -24.9010  -30.4291   25.9180 H   0  0  0  0  0  0
  -24.6441  -32.1457   26.2224 H   0  0  0  0  0  0
  -25.8482  -31.2415   27.1173 H   0  0  0  0  0  0
  -26.8942  -29.5373   25.1471 H   0  0  0  0  0  0
  -28.3027  -30.4823   25.1420 H   0  0  0  0  0  0
  -27.4855  -30.3308   23.6540 H   0  0  0  0  0  0
  -27.0721  -33.5292   26.1843 H   0  0  0  0  0  0
  -28.3059  -32.9361   25.0887 H   0  0  0  0  0  0
  -27.9952  -32.1264   26.6198 H   0  0  0  0  0  0
  -28.2595  -38.0060   24.7549 H   0  0  0  0  0  0
  -28.1046  -36.2597   24.6228 H   0  0  0  0  0  0
  -27.2280  -37.1359   25.8856 H   0  0  0  0  0  0
  -23.3009  -26.9076   22.0577 H   0  0  0  0  0  0
  -26.0161  -38.2860   24.1446 H   0  0  0  0  0  0
  -21.2586  -24.9950   24.8466 H   0  0  0  0  0  0
  -19.7176  -24.2936   24.3873 H   0  0  0  0  0  0
  -20.8267  -22.3921   23.2724 H   0  0  0  0  0  0
  -22.0436  -22.7142   24.5180 H   0  0  0  0  0  0
  -27.7006  -19.1831   19.2991 H   0  0  0  0  0  0
  -27.7120  -20.5604   20.4459 H   0  0  0  0  0  0
  -28.4546  -19.0282   22.3491 H   0  0  0  0  0  0
  -29.5268  -18.6643   20.9868 H   0  0  0  0  0  0
  -20.0384  -24.5766   22.1197 H   0  0  0  0  0  0
  -23.2977  -24.1969   23.0080 H   0  0  0  0  0  0
  -25.6839  -18.5931   20.2052 H   0  0  0  0  0  0
  -19.4771  -28.9148   21.8286 H   0  0  0  0  0  0
  -20.7345  -28.7980   20.9921 H   0  0  0  0  0  0
  -25.7475  -21.2550   22.4035 H   0  0  0  0  0  0
  -24.5620  -20.0989   22.7953 H   0  0  0  0  0  0
  -23.2326  -30.1648   24.6859 H   0  0  0  0  0  0
  -22.8531  -28.6362   24.8231 H   0  0  0  0  0  0
  -25.3298  -28.1627   24.4698 H   0  0  0  0  0  0
  -25.5811  -29.4944   23.4440 H   0  0  0  0  0  0
  -23.8925  -22.5109   20.9247 H   0  0  0  0  0  0
  -22.7892  -21.4859   21.4146 H   0  0  0  0  0  0
  -20.8194  -29.7532   23.8806 H   0  0  0  0  0  0
  -21.5244  -30.5032   22.6746 H   0  0  0  0  0  0
  1 25  1  0  0  0
  1 30  2  0  0  0
  1 82  1  0  0  0
  2  3  1  0  0  0
  2 25  1  0  0  0
  2 85  1  0  0  0
  2 86  1  0  0  0
  3  4  1  0  0  0
  3 87  1  0  0  0
  3 88  1  0  0  0
  4  5  1  0  0  0
  4 89  1  0  0  0
  4 90  1  0  0  0
  5  6  1  0  0  0
  5 26  1  0  0  0
  5 91  1  0  0  0
  6 25  1  0  0  0
  6 92  1  0  0  0
  6 93  1  0  0  0
  7  8  2  0  0  0
  7 26  1  0  0  0
  7 29  1  0  0  0
  8  9  1  0  0  0
  8 22  1  0  0  0
  9 10  1  0  0  0
  9 27  2  0  0  0
 10 11  2  0  0  0
 10 15  1  0  0  0
 11 12  1  0  0  0
 11 94  1  0  0  0
 12 13  2  0  0  0
 12 95  1  0  0  0
 13 14  1  0  0  0
 13 31  1  0  0  0
 14 15  2  0  0  0
 14 96  1  0  0  0
 15 97  1  0  0  0
 16 17  2  0  0  0
 16 21  1  0  0  0
 16 31  1  0  0  0
 17 18  1  0  0  0
 17 98  1  0  0  0
 18 19  2  0  0  0
 18 99  1  0  0  0
 19 20  1  0  0  0
 19 24  1  0  0  0
 20 21  2  0  0  0
 20100  1  0  0  0
 21 23  1  0  0  0
 22 28  1  0  0  0
 22 32  2  0  0  0
 26 27  1  0  0  0
 28101  1  0  0  0
 28102  1  0  0  0
 29103  1  0  0  0
 29104  1  0  0  0
 33 34  1  0  0  0
 33 66  1  0  0  0
 33 70  2  0  0  0
 34 36  1  0  0  0
 34 59  1  0  0  0
 34105  1  0  0  0
 35 44  2  0  0  0
 35 45  1  0  0  0
 35 68  1  0  0  0
 36 56  1  0  0  0
 36106  1  0  0  0
 37 39  1  0  0  0
 37 47  1  0  0  0
 37 66  1  0  0  0
 37107  1  0  0  0
 38 43  2  0  0  0
 38 46  1  0  0  0
 38 47  1  0  0  0
 39 64  1  0  0  0
 39 67  2  0  0  0
 40 52  1  0  0  0
 40 53  2  0  0  0
 40 58  1  0  0  0
 41108  1  0  0  0
 41109  1  0  0  0
 41110  1  0  0  0
 41 48  1  0  0  0
 42 43  1  0  0  0
 42 66  1  0  0  0
 42111  1  0  0  0
 42112  1  0  0  0
 43 44  1  0  0  0
 44113  1  0  0  0
 45 46  2  0  0  0
 45114  1  0  0  0
 46115  1  0  0  0
 47116  1  0  0  0
 47117  1  0  0  0
 48 56  1  0  0  0
 48 65  1  0  0  0
 48118  1  0  0  0
 49 50  1  0  0  0
 49 53  1  0  0  0
 49 64  1  0  0  0
 49119  1  0  0  0
 50 51  1  0  0  0
 50120  1  0  0  0
 50121  1  0  0  0
 51 52  1  0  0  0
 51122  1  0  0  0
 51123  1  0  0  0
 52124  1  0  0  0
 52125  1  0  0  0
 53 54  1  0  0  0
 54 55  2  0  0  0
 54126  1  0  0  0
 55 57  1  0  0  0
 55127  1  0  0  0
 56 69  2  0  0  0
 57 58  2  0  0  0
 57128  1  0  0  0
 58129  1  0  0  0
 59 60  1  0  0  0
 59 61  1  0  0  0
 59 62  1  0  0  0
 60130  1  0  0  0
 60131  1  0  0  0
 60132  1  0  0  0
 61133  1  0  0  0
 61134  1  0  0  0
 61135  1  0  0  0
 62136  1  0  0  0
 62137  1  0  0  0
 62138  1  0  0  0
 63 65  1  0  0  0
 63139  1  0  0  0
 63140  1  0  0  0
 63141  1  0  0  0
 64142  1  0  0  0
 65143  1  0  0  0
 68 81  1  0  0  0
 71 72  1  0  0  0
 71 75  1  0  0  0
 71144  1  0  0  0
 71145  1  0  0  0
 72 76  1  0  0  0
 72146  1  0  0  0
 72147  1  0  0  0
 73 74  1  0  0  0
 73 77  1  0  0  0
 73148  1  0  0  0
 73149  1  0  0  0
 74 82  1  0  0  0
 74150  1  0  0  0
 74151  1  0  0  0
 75 76  1  0  0  0
 75 78  1  0  0  0
 75152  1  0  0  0
 76 83  1  0  0  0
 76153  1  0  0  0
 77 79  1  0  0  0
 77 82  1  0  0  0
 77154  1  0  0  0
 78 84  1  0  0  0
 78155  1  0  0  0
 78156  1  0  0  0
 79 83  1  0  0  0
 79157  1  0  0  0
 79158  1  0  0  0
 80 81  1  0  0  0
 80 84  1  0  0  0
 80159  1  0  0  0
 80160  1  0  0  0
 81161  1  0  0  0
 81162  1  0  0  0
 83163  1  0  0  0
 83164  1  0  0  0
 84165  1  0  0  0
 84166  1  0  0  0
M  CHG  2  83   1  84   1
M  ISO  4   1 100  68 101  81 101  82 100
M  END
> <chiral flag>
0

> <version>
0

> <s_m_source_file>
/data/baiqing/PycharmProjects/Reinvent-master-3.2/result/LINK_invent/BTK/process_docking_weight1_custom_sum_contain_oxygen_bond_distance_aromatic_linkinvent_7_9_3/rearranged_h_0193.sdf

> <i_m_source_file_index>
6

> <r_mmod_Potential_Energy-OPLS-2005>
20556.01953125

> <r_mmod_Stretch_Energy-OPLS-2005>
9752.01171875

> <r_mmod_Bend_Energy-OPLS-2005>
2664.5986328125

> <r_mmod_Torsional_Energy-OPLS-2005>
674.137756347656

> <r_mmod_Improper_Torsional_Energy-OPLS-2005>
76.7994995117188

> <r_mmod_Van_der_Waal_Energy-OPLS-2005>
2569.70483398438

> <r_mmod_Electrostatic_Energy-OPLS-2005>
-20.0098705291748

> <r_mmod_Solvation_Energy-OPLS-2005>
-838.463256835938

> <b_mmod_Minimization_Converged-OPLS-2005>
0

> <r_mmod_RMS_Derivative-OPLS-2005>
4.37934637069702

$$$$
6
                    3D
 Structure written by MMmdl.
164173  0  0  1  0            999 V2000
  -30.6958  -14.5592   20.5009 C   0  0  0  0  0  0
  -30.4088  -12.3418   19.4478 C   0  0  0  0  0  0
  -29.4925  -12.4809   18.2158 C   0  0  0  0  0  0
  -28.0150  -12.3453   18.6303 C   0  0  0  0  0  0
  -27.6425  -13.2221   19.8579 C   0  0  2  0  0  0
  -28.6896  -13.0993   20.9872 C   0  0  0  0  0  0
  -25.2472  -13.8166   20.5689 C   0  0  0  0  0  0
  -24.1772  -13.0417   20.9185 C   0  0  0  0  0  0
  -24.6369  -11.6896   20.8738 C   0  0  0  0  0  0
  -23.9057  -10.4285   21.0408 C   0  0  0  0  0  0
  -24.3612   -9.4204   21.9167 C   0  0  0  0  0  0
  -23.6289   -8.2250   22.0743 C   0  0  0  0  0  0
  -22.4268   -8.0285   21.3547 C   0  0  0  0  0  0
  -21.9908   -9.0258   20.4645 C   0  0  0  0  0  0
  -22.7241  -10.2130   20.3052 C   0  0  0  0  0  0
  -21.6845   -6.0752   22.5287 C   0  0  0  0  0  0
  -21.4021   -6.5651   23.8222 C   0  0  0  0  0  0
  -21.3645   -5.6801   24.9180 C   0  0  0  0  0  0
  -21.6024   -4.3063   24.7238 C   0  0  0  0  0  0
  -21.8813   -3.8156   23.4358 C   0  0  0  0  0  0
  -21.9195   -4.6979   22.3415 C   0  0  0  0  0  0
  -22.7797  -13.5203   21.1861 C   0  0  0  0  0  0
  -22.1668   -4.2166   21.0998 F   0  0  0  0  0  0
  -21.5604   -3.4536   25.7748 F   0  0  0  0  0  0
  -30.0104  -13.3830   20.4108 N   0  0  0  0  0  0
  -26.2924  -12.9382   20.3326 N   0  0  0  0  0  0
  -25.9295  -11.6533   20.5773 N   0  0  0  0  0  0
  -22.0475  -12.8192   22.0438 N   0  0  0  0  0  0
  -25.4127  -15.1899   20.4127 N   0  0  0  0  0  0
  -31.8786  -14.6488   20.1537 O   0  0  0  0  0  0
  -21.6626   -6.8895   21.4251 O   0  0  0  0  0  0
  -22.3474  -14.5518   20.6718 O   0  0  0  0  0  0
  -24.6193  -31.8703   23.2156 C   0  0  0  0  0  0
  -25.9090  -32.4825   23.8452 C   0  0  1  0  0  0
  -27.2238  -27.3990   20.0994 C   0  0  0  0  0  0
  -25.5962  -33.8634   24.2413 N   0  0  0  0  0  0
  -23.4087  -30.5010   21.5536 C   0  0  2  0  0  0
  -24.8538  -28.9723   20.1102 C   0  0  0  0  0  0
  -22.7427  -29.4692   22.4937 C   0  0  0  0  0  0
  -18.0248  -28.1419   22.8493 C   0  0  0  0  0  0
  -24.1488  -36.7295   23.2635 C   0  0  0  0  0  0
  -25.9457  -30.8192   21.3847 C   0  0  0  0  0  0
  -26.0135  -29.4544   20.7260 C   0  0  0  0  0  0
  -27.1960  -28.6754   20.7218 C   0  0  0  0  0  0
  -26.0461  -26.9613   19.4459 C   0  0  0  0  0  0
  -24.8703  -27.7286   19.4624 C   0  0  0  0  0  0
  -23.6223  -29.8511   20.1609 C   0  0  0  0  0  0
  -25.4112  -36.3139   24.0364 C   0  0  1  0  0  0
  -20.5837  -28.3757   23.1291 C   0  0  2  0  0  0
  -20.6728  -26.9461   22.5441 C   0  0  0  0  0  0
  -19.5717  -26.6468   21.5226 C   0  0  0  0  0  0
  -18.1896  -26.7934   22.1671 C   0  0  0  0  0  0
  -19.1492  -28.8921   23.2856 C   0  0  0  0  0  0
  -18.9436  -30.1550   23.8813 C   0  0  0  0  0  0
  -17.6443  -30.6660   24.0491 C   0  0  0  0  0  0
  -25.9048  -34.9477   23.5185 C   0  0  0  0  0  0
  -16.5319  -29.9104   23.6364 C   0  0  0  0  0  0
  -16.7228  -28.6530   23.0383 C   0  0  0  0  0  0
  -26.4476  -31.6568   25.0765 C   0  0  0  0  0  0
  -25.3727  -31.3655   26.1492 C   0  0  0  0  0  0
  -27.0319  -30.3024   24.6156 C   0  0  0  0  0  0
  -27.6090  -32.4237   25.7510 C   0  0  0  0  0  0
  -27.5597  -37.1818   24.8476 C   0  0  0  0  0  0
  -21.4125  -29.3158   22.3740 N   0  0  0  0  0  0
  -26.4298  -37.3815   23.9431 N   0  0  0  0  0  0
  -24.6758  -31.0768   22.1085 N   0  0  0  0  0  0
  -23.4200  -28.8129   23.2889 O   0  0  0  0  0  0
  -28.3931  -26.6497   20.1301 O   0  0  0  0  0  0
  -26.5564  -34.8916   22.4717 O   0  0  0  0  0  0
  -23.5368  -32.1492   23.7537 O   0  0  0  0  0  0
  -26.5974  -22.5994   20.9848 C   0  0  0  0  0  0
  -27.7146  -20.8504   21.1543 C   0  0  0  0  0  0
  -28.3968  -17.5027   20.0205 C   0  0  0  0  0  0
  -29.5739  -17.7916   22.1677 C   0  0  0  0  0  0
  -29.4712  -16.4574   19.6212 C   0  0  0  0  0  0
  -30.5628  -16.6684   21.7319 C   0  0  0  0  0  0
  -28.9514  -18.5768   20.9864 C   0  0  0  0  0  0
  -25.4470  -23.5561   20.9560 C   0  0  0  0  0  0
  -29.8547  -24.3615   21.8295 C   0  0  0  0  0  0
  -28.3848  -25.2114   19.9016 C   0  0  0  0  0  0
  -28.4448  -24.3482   21.2029 C   0  0  1  0  0  0
  -26.4341  -21.2799   21.0201 N   0  0  0  0  0  0
  -28.6433  -21.8161   21.1275 N   0  0  0  0  0  0
  -27.8870  -22.9719   21.0648 N   0  0  0  0  0  0
  -29.9817  -15.6932   20.7809 N   0  0  0  0  0  0
  -27.8788  -19.4701   21.4485 N   0  0  0  0  0  0
  -31.4576  -12.4168   19.1540 H   0  0  0  0  0  0
  -30.2964  -11.3558   19.8998 H   0  0  0  0  0  0
  -29.7418  -11.7233   17.4717 H   0  0  0  0  0  0
  -29.6557  -13.4455   17.7324 H   0  0  0  0  0  0
  -27.8353  -11.2939   18.8572 H   0  0  0  0  0  0
  -27.3643  -12.5845   17.7875 H   0  0  0  0  0  0
  -27.6430  -14.2536   19.5111 H   0  0  0  0  0  0
  -28.6797  -12.0998   21.4234 H   0  0  0  0  0  0
  -28.4519  -13.7940   21.7951 H   0  0  0  0  0  0
  -25.2771   -9.5655   22.4707 H   0  0  0  0  0  0
  -23.9989   -7.4650   22.7463 H   0  0  0  0  0  0
  -21.0834   -8.8782   19.8957 H   0  0  0  0  0  0
  -22.3715  -10.9654   19.6136 H   0  0  0  0  0  0
  -21.2025   -7.6159   23.9730 H   0  0  0  0  0  0
  -21.1454   -6.0534   25.9081 H   0  0  0  0  0  0
  -22.0595   -2.7618   23.2858 H   0  0  0  0  0  0
  -22.4167  -11.9872   22.4826 H   0  0  0  0  0  0
  -21.1079  -13.1167   22.2674 H   0  0  0  0  0  0
  -24.6452  -15.8408   20.5375 H   0  0  0  0  0  0
  -26.2750  -15.6358   20.1288 H   0  0  0  0  0  0
  -26.7183  -32.5523   23.1224 H   0  0  0  0  0  0
  -25.0238  -33.9786   25.0644 H   0  0  0  0  0  0
  -22.7042  -31.3252   21.4222 H   0  0  0  0  0  0
  -23.3781  -35.9596   23.3314 H   0  0  0  0  0  0
  -24.3580  -36.8875   22.2043 H   0  0  0  0  0  0
  -23.7194  -37.6494   23.6609 H   0  0  0  0  0  0
  -26.0756  -31.5880   20.6215 H   0  0  0  0  0  0
  -26.8281  -30.8601   22.0118 H   0  0  0  0  0  0
  -28.0881  -29.0416   21.2137 H   0  0  0  0  0  0
  -25.9984  -26.0479   18.8804 H   0  0  0  0  0  0
  -23.9904  -27.3682   18.9485 H   0  0  0  0  0  0
  -23.7420  -30.6406   19.4167 H   0  0  0  0  0  0
  -22.7401  -29.2884   19.8545 H   0  0  0  0  0  0
  -25.1294  -36.2038   25.0859 H   0  0  0  0  0  0
  -20.9929  -28.3338   24.1417 H   0  0  0  0  0  0
  -20.5543  -26.2347   23.3631 H   0  0  0  0  0  0
  -21.6614  -26.7421   22.1276 H   0  0  0  0  0  0
  -19.6924  -25.6402   21.1188 H   0  0  0  0  0  0
  -19.6582  -27.3383   20.6832 H   0  0  0  0  0  0
  -17.4111  -26.6615   21.4142 H   0  0  0  0  0  0
  -18.0380  -26.0110   22.9132 H   0  0  0  0  0  0
  -19.7903  -30.7408   24.2110 H   0  0  0  0  0  0
  -17.4986  -31.6381   24.4976 H   0  0  0  0  0  0
  -15.5313  -30.3007   23.7699 H   0  0  0  0  0  0
  -15.8613  -28.0862   22.7131 H   0  0  0  0  0  0
  -24.5912  -30.7003   25.7801 H   0  0  0  0  0  0
  -24.8911  -32.2784   26.4977 H   0  0  0  0  0  0
  -25.8078  -30.8781   27.0219 H   0  0  0  0  0  0
  -26.2871  -29.6763   24.1228 H   0  0  0  0  0  0
  -27.4116  -29.7274   25.4623 H   0  0  0  0  0  0
  -27.8696  -30.4403   23.9313 H   0  0  0  0  0  0
  -27.2806  -33.3548   26.2112 H   0  0  0  0  0  0
  -28.3869  -32.6763   25.0294 H   0  0  0  0  0  0
  -28.0797  -31.8333   26.5380 H   0  0  0  0  0  0
  -28.2642  -38.0098   24.7532 H   0  0  0  0  0  0
  -28.1066  -36.2627   24.6308 H   0  0  0  0  0  0
  -27.2285  -37.1478   25.8868 H   0  0  0  0  0  0
  -20.9248  -29.9081   21.7169 H   0  0  0  0  0  0
  -26.0212  -38.2900   24.1428 H   0  0  0  0  0  0
  -27.5709  -16.9762   20.4982 H   0  0  0  0  0  0
  -27.9786  -17.9705   19.1270 H   0  0  0  0  0  0
  -30.0777  -18.4782   22.8470 H   0  0  0  0  0  0
  -28.7776  -17.3262   22.7495 H   0  0  0  0  0  0
  -30.3042  -16.9700   19.1348 H   0  0  0  0  0  0
  -29.0638  -15.7864   18.8654 H   0  0  0  0  0  0
  -30.9127  -16.1358   22.6189 H   0  0  0  0  0  0
  -31.4478  -17.1259   21.2875 H   0  0  0  0  0  0
  -29.7158  -19.1656   20.4791 H   0  0  0  0  0  0
  -24.5003  -23.0125   20.9370 H   0  0  0  0  0  0
  -25.4834  -24.1857   20.0699 H   0  0  0  0  0  0
  -25.4554  -24.1874   21.8448 H   0  0  0  0  0  0
  -30.1276  -25.3723   22.1297 H   0  0  0  0  0  0
  -30.6203  -24.0039   21.1358 H   0  0  0  0  0  0
  -29.8964  -23.7384   22.7236 H   0  0  0  0  0  0
  -27.5654  -24.8696   19.2815 H   0  0  0  0  0  0
  -29.2635  -24.9925   19.2961 H   0  0  0  0  0  0
  -27.7930  -24.8446   21.9218 H   0  0  0  0  0  0
  -26.9893  -19.0059   21.5906 H   0  0  0  0  0  0
  1 25  1  0  0  0
  1 30  2  0  0  0
  1 85  1  0  0  0
  2  3  1  0  0  0
  2 25  1  0  0  0
  2 87  1  0  0  0
  2 88  1  0  0  0
  3  4  1  0  0  0
  3 89  1  0  0  0
  3 90  1  0  0  0
  4  5  1  0  0  0
  4 91  1  0  0  0
  4 92  1  0  0  0
  5  6  1  0  0  0
  5 26  1  0  0  0
  5 93  1  0  0  0
  6 25  1  0  0  0
  6 94  1  0  0  0
  6 95  1  0  0  0
  7  8  2  0  0  0
  7 26  1  0  0  0
  7 29  1  0  0  0
  8  9  1  0  0  0
  8 22  1  0  0  0
  9 10  1  0  0  0
  9 27  2  0  0  0
 10 11  2  0  0  0
 10 15  1  0  0  0
 11 12  1  0  0  0
 11 96  1  0  0  0
 12 13  2  0  0  0
 12 97  1  0  0  0
 13 14  1  0  0  0
 13 31  1  0  0  0
 14 15  2  0  0  0
 14 98  1  0  0  0
 15 99  1  0  0  0
 16 17  2  0  0  0
 16 21  1  0  0  0
 16 31  1  0  0  0
 17 18  1  0  0  0
 17100  1  0  0  0
 18 19  2  0  0  0
 18101  1  0  0  0
 19 20  1  0  0  0
 19 24  1  0  0  0
 20 21  2  0  0  0
 20102  1  0  0  0
 21 23  1  0  0  0
 22 28  1  0  0  0
 22 32  2  0  0  0
 26 27  1  0  0  0
 28103  1  0  0  0
 28104  1  0  0  0
 29105  1  0  0  0
 29106  1  0  0  0
 33 34  1  0  0  0
 33 66  1  0  0  0
 33 70  2  0  0  0
 34 36  1  0  0  0
 34 59  1  0  0  0
 34107  1  0  0  0
 35 44  2  0  0  0
 35 45  1  0  0  0
 35 68  1  0  0  0
 36 56  1  0  0  0
 36108  1  0  0  0
 37 39  1  0  0  0
 37 47  1  0  0  0
 37 66  1  0  0  0
 37109  1  0  0  0
 38 43  2  0  0  0
 38 46  1  0  0  0
 38 47  1  0  0  0
 39 64  1  0  0  0
 39 67  2  0  0  0
 40 52  1  0  0  0
 40 53  2  0  0  0
 40 58  1  0  0  0
 41110  1  0  0  0
 41111  1  0  0  0
 41112  1  0  0  0
 41 48  1  0  0  0
 42 43  1  0  0  0
 42 66  1  0  0  0
 42113  1  0  0  0
 42114  1  0  0  0
 43 44  1  0  0  0
 44115  1  0  0  0
 45 46  2  0  0  0
 45116  1  0  0  0
 46117  1  0  0  0
 47118  1  0  0  0
 47119  1  0  0  0
 48 56  1  0  0  0
 48 65  1  0  0  0
 48120  1  0  0  0
 49 50  1  0  0  0
 49 53  1  0  0  0
 49 64  1  0  0  0
 49121  1  0  0  0
 50 51  1  0  0  0
 50122  1  0  0  0
 50123  1  0  0  0
 51 52  1  0  0  0
 51124  1  0  0  0
 51125  1  0  0  0
 52126  1  0  0  0
 52127  1  0  0  0
 53 54  1  0  0  0
 54 55  2  0  0  0
 54128  1  0  0  0
 55 57  1  0  0  0
 55129  1  0  0  0
 56 69  2  0  0  0
 57 58  2  0  0  0
 57130  1  0  0  0
 58131  1  0  0  0
 59 60  1  0  0  0
 59 61  1  0  0  0
 59 62  1  0  0  0
 60132  1  0  0  0
 60133  1  0  0  0
 60134  1  0  0  0
 61135  1  0  0  0
 61136  1  0  0  0
 61137  1  0  0  0
 62138  1  0  0  0
 62139  1  0  0  0
 62140  1  0  0  0
 63 65  1  0  0  0
 63141  1  0  0  0
 63142  1  0  0  0
 63143  1  0  0  0
 64144  1  0  0  0
 65145  1  0  0  0
 68 80  1  0  0  0
 71 78  1  0  0  0
 71 82  2  0  0  0
 71 84  1  0  0  0
 72 82  1  0  0  0
 72 83  2  0  0  0
 72 86  1  0  0  0
 73 75  1  0  0  0
 73 77  1  0  0  0
 73146  1  0  0  0
 73147  1  0  0  0
 74 76  1  0  0  0
 74 77  1  0  0  0
 74148  1  0  0  0
 74149  1  0  0  0
 75 85  1  0  0  0
 75150  1  0  0  0
 75151  1  0  0  0
 76 85  1  0  0  0
 76152  1  0  0  0
 76153  1  0  0  0
 77 86  1  0  0  0
 77154  1  0  0  0
 78155  1  0  0  0
 78156  1  0  0  0
 78157  1  0  0  0
 79158  1  0  0  0
 79159  1  0  0  0
 79160  1  0  0  0
 79 81  1  0  0  0
 80 81  1  0  0  0
 80161  1  0  0  0
 80162  1  0  0  0
 81 84  1  0  0  0
 81163  1  0  0  0
 83 84  1  0  0  0
 86164  1  0  0  0
M  ISO  4   1 100  68 101  80 101  85 100
M  END
> <chiral flag>
0

> <version>
0

> <s_m_source_file>
/data/baiqing/PycharmProjects/Reinvent-master-3.2/result/LINK_invent/BTK/process_docking_weight1_custom_sum_contain_oxygen_bond_distance_aromatic_linkinvent_7_9_3/rearranged_h_0193.sdf

> <i_m_source_file_index>
7

> <r_mmod_Potential_Energy-OPLS-2005>
71.6272735595703

> <r_mmod_Stretch_Energy-OPLS-2005>
50.2927551269531

> <r_mmod_Bend_Energy-OPLS-2005>
154.505294799805

> <r_mmod_Torsional_Energy-OPLS-2005>
343.068969726562

> <r_mmod_Improper_Torsional_Energy-OPLS-2005>
12.5025587081909

> <r_mmod_Van_der_Waal_Energy-OPLS-2005>
125.951179504395

> <r_mmod_Electrostatic_Energy-OPLS-2005>
-429.052276611328

> <r_mmod_Solvation_Energy-OPLS-2005>
-214.385818481445

> <b_mmod_Minimization_Converged-OPLS-2005>
0

> <r_mmod_RMS_Derivative-OPLS-2005>
4.5981297492981

$$$$
7
                    3D
 Structure written by MMmdl.
156165  0  0  1  0            999 V2000
  -30.6426  -14.6954   20.4839 C   0  0  0  0  0  0
  -30.4306  -12.4304   19.4717 C   0  0  0  0  0  0
  -29.5108  -12.5115   18.2343 C   0  0  0  0  0  0
  -28.0360  -12.3367   18.6466 C   0  0  0  0  0  0
  -27.6443  -13.2310   19.8539 C   0  0  2  0  0  0
  -28.6892  -13.1512   20.9899 C   0  0  0  0  0  0
  -25.2510  -13.8196   20.5694 C   0  0  0  0  0  0
  -24.1808  -13.0437   20.9207 C   0  0  0  0  0  0
  -24.6396  -11.6915   20.8739 C   0  0  0  0  0  0
  -23.9068  -10.4290   21.0394 C   0  0  0  0  0  0
  -24.3613   -9.4207   21.9178 C   0  0  0  0  0  0
  -23.6300   -8.2238   22.0751 C   0  0  0  0  0  0
  -22.4275   -8.0275   21.3543 C   0  0  0  0  0  0
  -21.9907   -9.0246   20.4638 C   0  0  0  0  0  0
  -22.7234  -10.2130   20.3051 C   0  0  0  0  0  0
  -21.6847   -6.0737   22.5280 C   0  0  0  0  0  0
  -21.4016   -6.5640   23.8215 C   0  0  0  0  0  0
  -21.3660   -5.6788   24.9176 C   0  0  0  0  0  0
  -21.6048   -4.3053   24.7219 C   0  0  0  0  0  0
  -21.8819   -3.8144   23.4337 C   0  0  0  0  0  0
  -21.9192   -4.6965   22.3399 C   0  0  0  0  0  0
  -22.7826  -13.5209   21.1868 C   0  0  0  0  0  0
  -22.1657   -4.2148   21.0977 F   0  0  0  0  0  0
  -21.5626   -3.4534   25.7735 F   0  0  0  0  0  0
  -29.9984  -13.4846   20.4142 N   0  0  0  0  0  0
  -26.2950  -12.9409   20.3287 N   0  0  0  0  0  0
  -25.9328  -11.6537   20.5741 N   0  0  0  0  0  0
  -22.0466  -12.8214   22.0421 N   0  0  0  0  0  0
  -25.4198  -15.1924   20.4123 N   0  0  0  0  0  0
  -31.8178  -14.8071   20.1242 O   0  0  0  0  0  0
  -21.6635   -6.8875   21.4237 O   0  0  0  0  0  0
  -22.3521  -14.5520   20.6710 O   0  0  0  0  0  0
  -24.6292  -31.8577   23.2003 C   0  0  0  0  0  0
  -25.9123  -32.4768   23.8350 C   0  0  1  0  0  0
  -27.2252  -27.2971   20.1255 C   0  0  0  0  0  0
  -25.5938  -33.8571   24.2281 N   0  0  0  0  0  0
  -23.4255  -30.4807   21.5412 C   0  0  2  0  0  0
  -24.8772  -28.9329   20.1096 C   0  0  0  0  0  0
  -22.7494  -29.4611   22.4899 C   0  0  0  0  0  0
  -18.0288  -28.1390   22.8479 C   0  0  0  0  0  0
  -24.1485  -36.7281   23.2630 C   0  0  0  0  0  0
  -25.9694  -30.7823   21.3763 C   0  0  0  0  0  0
  -26.0475  -29.4072   20.7185 C   0  0  0  0  0  0
  -27.2289  -28.6015   20.7173 C   0  0  0  0  0  0
  -26.0387  -26.8841   19.4848 C   0  0  0  0  0  0
  -24.8753  -27.6774   19.4818 C   0  0  0  0  0  0
  -23.6459  -29.8159   20.1570 C   0  0  0  0  0  0
  -25.4108  -36.3076   24.0333 C   0  0  1  0  0  0
  -20.5889  -28.3698   23.1264 C   0  0  2  0  0  0
  -20.6779  -26.9423   22.5407 C   0  0  0  0  0  0
  -19.5758  -26.6384   21.5205 C   0  0  0  0  0  0
  -18.1938  -26.7932   22.1619 C   0  0  0  0  0  0
  -19.1540  -28.8860   23.2864 C   0  0  0  0  0  0
  -18.9463  -30.1457   23.8890 C   0  0  0  0  0  0
  -17.6466  -30.6594   24.0554 C   0  0  0  0  0  0
  -25.9057  -34.9447   23.5104 C   0  0  0  0  0  0
  -16.5353  -29.9091   23.6327 C   0  0  0  0  0  0
  -16.7273  -28.6503   23.0357 C   0  0  0  0  0  0
  -26.4504  -31.6578   25.0724 C   0  0  0  0  0  0
  -25.3737  -31.3732   26.1457 C   0  0  0  0  0  0
  -27.0334  -30.2996   24.6191 C   0  0  0  0  0  0
  -27.6074  -32.4307   25.7490 C   0  0  0  0  0  0
  -27.5596  -37.1771   24.8444 C   0  0  0  0  0  0
  -21.4202  -29.3043   22.3653 N   0  0  0  0  0  0
  -26.4269  -37.3794   23.9448 N   0  0  0  0  0  0
  -24.6928  -31.0574   22.0957 N   0  0  0  0  0  0
  -23.4207  -28.8153   23.2987 O   0  0  0  0  0  0
  -28.2892  -26.3772   20.1611 O   0  0  0  0  0  0
  -26.5626  -34.8918   22.4669 O   0  0  0  0  0  0
  -23.5448  -32.1384   23.7311 O   0  0  0  0  0  0
  -27.9964  -22.6113   21.4759 C   0  0  0  0  0  0
  -28.5012  -23.6785   20.6775 C   0  0  0  0  0  0
  -29.2728  -21.0504   20.3661 C   0  0  0  0  0  0
  -29.3080  -18.4589   20.9389 C   0  0  0  0  0  0
  -30.7262  -19.2918   19.2240 C   0  0  0  0  0  0
  -30.3469  -17.2935   20.6289 C   0  0  2  0  0  0
  -30.8009  -17.7392   19.2247 C   0  0  2  0  0  0
  -28.0213  -25.1673   20.9900 C   0  0  0  0  0  0
  -28.3753  -21.3053   21.3206 N   0  0  0  0  0  0
  -29.4135  -23.3351   19.7209 N   0  0  0  0  0  0
  -29.7918  -22.0270   19.5730 N   0  0  0  0  0  0
  -29.7034  -19.6916   20.1904 N   0  0  0  0  0  0
  -29.9018  -15.8353   20.7136 N   0  0  0  0  0  0
  -32.1270  -17.2170   18.8588 N   0  3  0  0  0  0
  -31.4750  -12.5423   19.1753 H   0  0  0  0  0  0
  -30.3579  -11.4483   19.9425 H   0  0  0  0  0  0
  -29.7880  -11.7505   17.5042 H   0  0  0  0  0  0
  -29.6427  -13.4740   17.7396 H   0  0  0  0  0  0
  -27.8880  -11.2872   18.9043 H   0  0  0  0  0  0
  -27.3791  -12.5357   17.7987 H   0  0  0  0  0  0
  -27.6410  -14.2545   19.4784 H   0  0  0  0  0  0
  -28.7126  -12.1525   21.4281 H   0  0  0  0  0  0
  -28.4310  -13.8343   21.8011 H   0  0  0  0  0  0
  -25.2757   -9.5692   22.4751 H   0  0  0  0  0  0
  -24.0007   -7.4628   22.7474 H   0  0  0  0  0  0
  -21.0836   -8.8759   19.8954 H   0  0  0  0  0  0
  -22.3684  -10.9661   19.6159 H   0  0  0  0  0  0
  -21.2012   -7.6149   23.9718 H   0  0  0  0  0  0
  -21.1483   -6.0519   25.9080 H   0  0  0  0  0  0
  -22.0599   -2.7609   23.2828 H   0  0  0  0  0  0
  -22.4067  -11.9881   22.4829 H   0  0  0  0  0  0
  -21.1091  -13.1260   22.2611 H   0  0  0  0  0  0
  -24.6459  -15.8410   20.5124 H   0  0  0  0  0  0
  -26.2627  -15.6344   20.0680 H   0  0  0  0  0  0
  -26.7196  -32.5439   23.1108 H   0  0  0  0  0  0
  -25.0095  -33.9714   25.0430 H   0  0  0  0  0  0
  -22.7187  -31.3002   21.3949 H   0  0  0  0  0  0
  -23.3772  -35.9578   23.3232 H   0  0  0  0  0  0
  -24.3590  -36.8972   22.2058 H   0  0  0  0  0  0
  -23.7194  -37.6450   23.6683 H   0  0  0  0  0  0
  -26.1024  -31.5459   20.6087 H   0  0  0  0  0  0
  -26.8483  -30.8320   22.0070 H   0  0  0  0  0  0
  -28.1234  -28.9578   21.2091 H   0  0  0  0  0  0
  -26.0034  -25.9156   19.0062 H   0  0  0  0  0  0
  -23.9802  -27.3095   18.9992 H   0  0  0  0  0  0
  -23.7690  -30.5935   19.4017 H   0  0  0  0  0  0
  -22.7664  -29.2466   19.8518 H   0  0  0  0  0  0
  -25.1272  -36.1912   25.0823 H   0  0  0  0  0  0
  -20.9976  -28.3278   24.1387 H   0  0  0  0  0  0
  -20.5680  -26.2311   23.3603 H   0  0  0  0  0  0
  -21.6646  -26.7445   22.1198 H   0  0  0  0  0  0
  -19.6923  -25.6297   21.1245 H   0  0  0  0  0  0
  -19.6712  -27.3178   20.6729 H   0  0  0  0  0  0
  -17.4212  -26.6668   21.4017 H   0  0  0  0  0  0
  -18.0339  -26.0074   22.9015 H   0  0  0  0  0  0
  -19.7942  -30.7263   24.2266 H   0  0  0  0  0  0
  -17.5027  -31.6273   24.5152 H   0  0  0  0  0  0
  -15.5358  -30.2999   23.7655 H   0  0  0  0  0  0
  -15.8668  -28.0821   22.7090 H   0  0  0  0  0  0
  -24.5887  -30.7116   25.7774 H   0  0  0  0  0  0
  -24.8954  -32.2904   26.4897 H   0  0  0  0  0  0
  -25.8064  -30.8879   27.0218 H   0  0  0  0  0  0
  -26.2906  -29.6748   24.1217 H   0  0  0  0  0  0
  -27.4025  -29.7252   25.4700 H   0  0  0  0  0  0
  -27.8782  -30.4254   23.9412 H   0  0  0  0  0  0
  -27.2699  -33.3609   26.2060 H   0  0  0  0  0  0
  -28.3889  -32.6871   25.0321 H   0  0  0  0  0  0
  -28.0732  -31.8430   26.5412 H   0  0  0  0  0  0
  -28.2525  -38.0157   24.7643 H   0  0  0  0  0  0
  -28.1186  -36.2712   24.6065 H   0  0  0  0  0  0
  -27.2349  -37.1158   25.8843 H   0  0  0  0  0  0
  -20.9374  -29.8772   21.6876 H   0  0  0  0  0  0
  -26.0144  -38.2845   24.1543 H   0  0  0  0  0  0
  -27.2847  -22.8108   22.2623 H   0  0  0  0  0  0
  -29.2559  -18.6624   22.0091 H   0  0  0  0  0  0
  -28.3046  -18.1756   20.6186 H   0  0  0  0  0  0
  -30.4909  -19.6682   18.2268 H   0  0  0  0  0  0
  -31.6765  -19.7328   19.5262 H   0  0  0  0  0  0
  -31.1793  -17.4233   21.3253 H   0  0  0  0  0  0
  -30.0761  -17.3604   18.5024 H   0  0  0  0  0  0
  -28.4257  -25.4040   21.9746 H   0  0  0  0  0  0
  -26.9483  -25.0808   21.1639 H   0  0  0  0  0  0
  -28.9322  -15.6841   20.9487 H   0  0  0  0  0  0
  -32.8583  -17.7235   19.3240 H   0  0  0  0  0  0
  -32.2784  -17.2635   17.8668 H   0  0  0  0  0  0
  -32.1812  -16.2486   19.1607 H   0  0  0  0  0  0
  1 25  1  0  0  0
  1 30  2  0  0  0
  1 83  1  0  0  0
  2  3  1  0  0  0
  2 25  1  0  0  0
  2 85  1  0  0  0
  2 86  1  0  0  0
  3  4  1  0  0  0
  3 87  1  0  0  0
  3 88  1  0  0  0
  4  5  1  0  0  0
  4 89  1  0  0  0
  4 90  1  0  0  0
  5  6  1  0  0  0
  5 26  1  0  0  0
  5 91  1  0  0  0
  6 25  1  0  0  0
  6 92  1  0  0  0
  6 93  1  0  0  0
  7  8  2  0  0  0
  7 26  1  0  0  0
  7 29  1  0  0  0
  8  9  1  0  0  0
  8 22  1  0  0  0
  9 10  1  0  0  0
  9 27  2  0  0  0
 10 11  2  0  0  0
 10 15  1  0  0  0
 11 12  1  0  0  0
 11 94  1  0  0  0
 12 13  2  0  0  0
 12 95  1  0  0  0
 13 14  1  0  0  0
 13 31  1  0  0  0
 14 15  2  0  0  0
 14 96  1  0  0  0
 15 97  1  0  0  0
 16 17  2  0  0  0
 16 21  1  0  0  0
 16 31  1  0  0  0
 17 18  1  0  0  0
 17 98  1  0  0  0
 18 19  2  0  0  0
 18 99  1  0  0  0
 19 20  1  0  0  0
 19 24  1  0  0  0
 20 21  2  0  0  0
 20100  1  0  0  0
 21 23  1  0  0  0
 22 28  1  0  0  0
 22 32  2  0  0  0
 26 27  1  0  0  0
 28101  1  0  0  0
 28102  1  0  0  0
 29103  1  0  0  0
 29104  1  0  0  0
 33 34  1  0  0  0
 33 66  1  0  0  0
 33 70  2  0  0  0
 34 36  1  0  0  0
 34 59  1  0  0  0
 34105  1  0  0  0
 35 44  2  0  0  0
 35 45  1  0  0  0
 35 68  1  0  0  0
 36 56  1  0  0  0
 36106  1  0  0  0
 37 39  1  0  0  0
 37 47  1  0  0  0
 37 66  1  0  0  0
 37107  1  0  0  0
 38 43  2  0  0  0
 38 46  1  0  0  0
 38 47  1  0  0  0
 39 64  1  0  0  0
 39 67  2  0  0  0
 40 52  1  0  0  0
 40 53  2  0  0  0
 40 58  1  0  0  0
 41108  1  0  0  0
 41109  1  0  0  0
 41110  1  0  0  0
 41 48  1  0  0  0
 42 43  1  0  0  0
 42 66  1  0  0  0
 42111  1  0  0  0
 42112  1  0  0  0
 43 44  1  0  0  0
 44113  1  0  0  0
 45 46  2  0  0  0
 45114  1  0  0  0
 46115  1  0  0  0
 47116  1  0  0  0
 47117  1  0  0  0
 48 56  1  0  0  0
 48 65  1  0  0  0
 48118  1  0  0  0
 49 50  1  0  0  0
 49 53  1  0  0  0
 49 64  1  0  0  0
 49119  1  0  0  0
 50 51  1  0  0  0
 50120  1  0  0  0
 50121  1  0  0  0
 51 52  1  0  0  0
 51122  1  0  0  0
 51123  1  0  0  0
 52124  1  0  0  0
 52125  1  0  0  0
 53 54  1  0  0  0
 54 55  2  0  0  0
 54126  1  0  0  0
 55 57  1  0  0  0
 55127  1  0  0  0
 56 69  2  0  0  0
 57 58  2  0  0  0
 57128  1  0  0  0
 58129  1  0  0  0
 59 60  1  0  0  0
 59 61  1  0  0  0
 59 62  1  0  0  0
 60130  1  0  0  0
 60131  1  0  0  0
 60132  1  0  0  0
 61133  1  0  0  0
 61134  1  0  0  0
 61135  1  0  0  0
 62136  1  0  0  0
 62137  1  0  0  0
 62138  1  0  0  0
 63 65  1  0  0  0
 63139  1  0  0  0
 63140  1  0  0  0
 63141  1  0  0  0
 64142  1  0  0  0
 65143  1  0  0  0
 68 78  1  0  0  0
 71 72  2  0  0  0
 71 79  1  0  0  0
 71144  1  0  0  0
 72 78  1  0  0  0
 72 80  1  0  0  0
 73 79  2  0  0  0
 73 81  1  0  0  0
 73 82  1  0  0  0
 74 76  1  0  0  0
 74 82  1  0  0  0
 74145  1  0  0  0
 74146  1  0  0  0
 75 77  1  0  0  0
 75 82  1  0  0  0
 75147  1  0  0  0
 75148  1  0  0  0
 76 77  1  0  0  0
 76 83  1  0  0  0
 76149  1  0  0  0
 77 84  1  0  0  0
 77150  1  0  0  0
 78151  1  0  0  0
 78152  1  0  0  0
 80 81  2  0  0  0
 83153  1  0  0  0
 84154  1  0  0  0
 84155  1  0  0  0
 84156  1  0  0  0
M  CHG  1  84   1
M  ISO  4   1 100  68 101  78 101  83 100
M  END
> <chiral flag>
0

> <version>
0

> <s_m_source_file>
/data/baiqing/PycharmProjects/Reinvent-master-3.2/result/LINK_invent/BTK/process_docking_weight1_custom_sum_contain_oxygen_bond_distance_aromatic_linkinvent_7_9_3/rearranged_h_0193.sdf

> <i_m_source_file_index>
8

> <r_mmod_Potential_Energy-OPLS-2005>
-290.723907470703

> <r_mmod_Stretch_Energy-OPLS-2005>
98.8741760253906

> <r_mmod_Bend_Energy-OPLS-2005>
197.023193359375

> <r_mmod_Torsional_Energy-OPLS-2005>
301.935424804688

> <r_mmod_Improper_Torsional_Energy-OPLS-2005>
5.85799741744995

> <r_mmod_Van_der_Waal_Energy-OPLS-2005>
152.488708496094

> <r_mmod_Electrostatic_Energy-OPLS-2005>
-621.031188964844

> <r_mmod_Solvation_Energy-OPLS-2005>
-495.583679199219

> <b_mmod_Minimization_Converged-OPLS-2005>
0

> <r_mmod_RMS_Derivative-OPLS-2005>
2.30245876312256

$$$$
8
                    3D
 Structure written by MMmdl.
152161  0  0  1  0            999 V2000
  -30.4404  -15.3500   20.3412 C   0  0  0  0  0  0
  -30.4289  -12.8744   19.5092 C   0  0  0  0  0  0
  -29.5270  -12.5814   18.2849 C   0  0  0  0  0  0
  -28.0856  -12.2824   18.7304 C   0  0  0  0  0  0
  -27.6033  -13.2659   19.8245 C   0  0  2  0  0  0
  -28.6437  -13.5140   20.9374 C   0  0  0  0  0  0
  -25.2396  -13.8204   20.5837 C   0  0  0  0  0  0
  -24.1723  -13.0410   20.9282 C   0  0  0  0  0  0
  -24.6372  -11.6905   20.8790 C   0  0  0  0  0  0
  -23.9066  -10.4276   21.0419 C   0  0  0  0  0  0
  -24.3617   -9.4192   21.9192 C   0  0  0  0  0  0
  -23.6289   -8.2228   22.0753 C   0  0  0  0  0  0
  -22.4271   -8.0274   21.3541 C   0  0  0  0  0  0
  -21.9913   -9.0248   20.4639 C   0  0  0  0  0  0
  -22.7242  -10.2126   20.3056 C   0  0  0  0  0  0
  -21.6851   -6.0728   22.5275 C   0  0  0  0  0  0
  -21.4010   -6.5634   23.8211 C   0  0  0  0  0  0
  -21.3661   -5.6789   24.9173 C   0  0  0  0  0  0
  -21.6047   -4.3052   24.7226 C   0  0  0  0  0  0
  -21.8818   -3.8144   23.4349 C   0  0  0  0  0  0
  -21.9189   -4.6958   22.3401 C   0  0  0  0  0  0
  -22.7747  -13.5182   21.1907 C   0  0  0  0  0  0
  -22.1658   -4.2141   21.0981 F   0  0  0  0  0  0
  -21.5632   -3.4540   25.7744 F   0  0  0  0  0  0
  -29.8480  -14.0467   20.2719 N   0  0  0  0  0  0
  -26.2805  -12.9445   20.3336 N   0  0  0  0  0  0
  -25.9310  -11.6562   20.5783 N   0  0  0  0  0  0
  -22.0395  -12.8171   22.0457 N   0  0  0  0  0  0
  -25.4081  -15.1936   20.4316 N   0  0  0  0  0  0
  -31.6758  -15.2778   20.2280 O   0  0  0  0  0  0
  -21.6633   -6.8872   21.4237 O   0  0  0  0  0  0
  -22.3439  -14.5486   20.6739 O   0  0  0  0  0  0
  -24.6679  -31.8181   23.1653 C   0  0  0  0  0  0
  -25.9342  -32.4554   23.8135 C   0  0  1  0  0  0
  -27.2190  -26.8782   20.1851 C   0  0  0  0  0  0
  -25.5995  -33.8371   24.2044 N   0  0  0  0  0  0
  -23.4845  -30.4281   21.5159 C   0  0  2  0  0  0
  -24.9394  -28.8067   20.1093 C   0  0  0  0  0  0
  -22.7687  -29.4414   22.4760 C   0  0  0  0  0  0
  -18.0323  -28.1405   22.8465 C   0  0  0  0  0  0
  -24.1492  -36.7192   23.2647 C   0  0  0  0  0  0
  -26.0563  -30.6071   21.4031 C   0  0  0  0  0  0
  -26.1241  -29.1924   20.7484 C   0  0  0  0  0  0
  -27.2559  -28.2496   20.7634 C   0  0  0  0  0  0
  -26.0068  -26.6622   19.4891 C   0  0  0  0  0  0
  -24.9085  -27.5629   19.4590 C   0  0  0  0  0  0
  -23.7273  -29.7410   20.1434 C   0  0  0  0  0  0
  -25.4132  -36.2942   24.0298 C   0  0  1  0  0  0
  -20.5954  -28.3754   23.1176 C   0  0  2  0  0  0
  -20.6796  -26.9432   22.5395 C   0  0  0  0  0  0
  -19.5772  -26.6374   21.5208 C   0  0  0  0  0  0
  -18.1955  -26.7939   22.1617 C   0  0  0  0  0  0
  -19.1586  -28.8902   23.2809 C   0  0  0  0  0  0
  -18.9501  -30.1494   23.8846 C   0  0  0  0  0  0
  -17.6495  -30.6601   24.0554 C   0  0  0  0  0  0
  -25.9111  -34.9332   23.4994 C   0  0  0  0  0  0
  -16.5386  -29.9086   23.6348 C   0  0  0  0  0  0
  -16.7306  -28.6504   23.0366 C   0  0  0  0  0  0
  -26.4580  -31.6515   25.0683 C   0  0  0  0  0  0
  -25.3689  -31.3787   26.1330 C   0  0  0  0  0  0
  -27.0479  -30.2870   24.6450 C   0  0  0  0  0  0
  -27.6062  -32.4340   25.7480 C   0  0  0  0  0  0
  -27.5563  -37.1755   24.8472 C   0  0  0  0  0  0
  -21.4348  -29.3045   22.3525 N   0  0  0  0  0  0
  -26.4272  -37.3684   23.9413 N   0  0  0  0  0  0
  -24.7578  -30.9796   22.0813 N   0  0  0  0  0  0
  -23.4215  -28.7978   23.3013 O   0  0  0  0  0  0
  -28.1938  -25.7332   20.2859 O   0  0  0  0  0  0
  -26.5720  -34.8880   22.4591 O   0  0  0  0  0  0
  -23.5741  -32.1179   23.6717 O   0  0  0  0  0  0
  -29.0807  -20.6666   21.8611 C   0  0  0  0  0  0
  -29.3176  -19.5768   20.9359 C   0  0  0  0  0  0
  -29.1883  -20.1132   19.6533 C   0  0  0  0  0  0
  -28.6340  -22.5258   20.3058 C   0  0  0  0  0  0
  -29.7754  -17.9726   21.2443 C   0  0  0  0  0  0
  -29.5648  -19.0040   18.6150 C   0  0  0  0  0  0
  -29.4278  -17.3800   18.9228 C   0  0  2  0  0  0
  -28.0421  -16.9117   18.4495 C   0  0  0  0  0  0
  -27.8948  -24.1180   19.9714 C   0  0  0  0  0  0
  -28.7546  -22.0101   21.5664 N   0  0  0  0  0  0
  -28.8555  -21.4947   19.3611 N   0  0  0  0  0  0
  -29.7523  -16.7012   20.2638 N   0  0  0  0  0  0
  -31.4415  -13.0843   19.1617 H   0  0  0  0  0  0
  -30.5172  -11.9937   20.1477 H   0  0  0  0  0  0
  -29.9246  -11.7442   17.7094 H   0  0  0  0  0  0
  -29.5303  -13.4442   17.6170 H   0  0  0  0  0  0
  -28.0653  -11.2645   19.1222 H   0  0  0  0  0  0
  -27.4090  -12.2948   17.8743 H   0  0  0  0  0  0
  -27.4813  -14.2074   19.3039 H   0  0  0  0  0  0
  -28.8512  -12.6066   21.5064 H   0  0  0  0  0  0
  -28.2683  -14.2516   21.6490 H   0  0  0  0  0  0
  -25.2756   -9.5672   22.4775 H   0  0  0  0  0  0
  -23.9995   -7.4622   22.7480 H   0  0  0  0  0  0
  -21.0842   -8.8767   19.8950 H   0  0  0  0  0  0
  -22.3697  -10.9668   19.6172 H   0  0  0  0  0  0
  -21.1994   -7.6141   23.9710 H   0  0  0  0  0  0
  -21.1487   -6.0520   25.9076 H   0  0  0  0  0  0
  -22.0593   -2.7602   23.2850 H   0  0  0  0  0  0
  -22.4015  -11.9838   22.4851 H   0  0  0  0  0  0
  -21.1009  -13.1188   22.2654 H   0  0  0  0  0  0
  -24.6484  -15.8526   20.5607 H   0  0  0  0  0  0
  -26.2722  -15.6335   20.1428 H   0  0  0  0  0  0
  -26.7412  -32.5079   23.0844 H   0  0  0  0  0  0
  -25.0108  -33.9446   25.0172 H   0  0  0  0  0  0
  -22.8006  -31.2617   21.3423 H   0  0  0  0  0  0
  -23.3765  -35.9513   23.3282 H   0  0  0  0  0  0
  -24.3563  -36.8863   22.2066 H   0  0  0  0  0  0
  -23.7244  -37.6370   23.6724 H   0  0  0  0  0  0
  -26.2411  -31.3435   20.6199 H   0  0  0  0  0  0
  -26.9153  -30.6665   22.0592 H   0  0  0  0  0  0
  -28.1477  -28.5427   21.2994 H   0  0  0  0  0  0
  -25.8632  -25.7157   18.9887 H   0  0  0  0  0  0
  -24.0115  -27.2618   18.9357 H   0  0  0  0  0  0
  -23.8852  -30.5095   19.3859 H   0  0  0  0  0  0
  -22.8352  -29.2000   19.8236 H   0  0  0  0  0  0
  -25.1327  -36.1725   25.0789 H   0  0  0  0  0  0
  -21.0050  -28.3356   24.1296 H   0  0  0  0  0  0
  -20.5665  -26.2374   23.3636 H   0  0  0  0  0  0
  -21.6656  -26.7391   22.1212 H   0  0  0  0  0  0
  -19.6935  -25.6272   21.1271 H   0  0  0  0  0  0
  -19.6712  -27.3155   20.6716 H   0  0  0  0  0  0
  -17.4222  -26.6687   21.4024 H   0  0  0  0  0  0
  -18.0352  -26.0086   22.9018 H   0  0  0  0  0  0
  -19.7980  -30.7321   24.2190 H   0  0  0  0  0  0
  -17.5049  -31.6276   24.5162 H   0  0  0  0  0  0
  -15.5387  -30.2971   23.7701 H   0  0  0  0  0  0
  -15.8703  -28.0805   22.7112 H   0  0  0  0  0  0
  -24.5884  -30.7126   25.7635 H   0  0  0  0  0  0
  -24.8872  -32.2998   26.4621 H   0  0  0  0  0  0
  -25.7900  -30.9033   27.0197 H   0  0  0  0  0  0
  -26.3152  -29.6538   24.1434 H   0  0  0  0  0  0
  -27.3970  -29.7243   25.5121 H   0  0  0  0  0  0
  -27.9105  -30.4037   23.9887 H   0  0  0  0  0  0
  -27.2633  -33.3711   26.1876 H   0  0  0  0  0  0
  -28.3952  -32.6789   25.0357 H   0  0  0  0  0  0
  -28.0636  -31.8586   26.5540 H   0  0  0  0  0  0
  -28.2564  -38.0064   24.7503 H   0  0  0  0  0  0
  -28.1077  -36.2592   24.6314 H   0  0  0  0  0  0
  -27.2291  -37.1404   25.8879 H   0  0  0  0  0  0
  -20.9609  -29.8740   21.6651 H   0  0  0  0  0  0
  -26.0116  -38.2740   24.1420 H   0  0  0  0  0  0
  -29.1580  -20.4552   22.9178 H   0  0  0  0  0  0
  -29.2033  -17.6673   22.1211 H   0  0  0  0  0  0
  -30.8045  -18.0322   21.6012 H   0  0  0  0  0  0
  -30.6206  -19.1843   18.4097 H   0  0  0  0  0  0
  -29.0697  -19.2480   17.6750 H   0  0  0  0  0  0
  -30.1238  -16.9308   18.2119 H   0  0  0  0  0  0
  -27.2833  -17.0755   19.2149 H   0  0  0  0  0  0
  -28.0592  -15.8597   18.1803 H   0  0  0  0  0  0
  -27.7170  -17.4395   17.5527 H   0  0  0  0  0  0
  -26.8854  -23.9791   20.3587 H   0  0  0  0  0  0
  -27.7610  -24.0985   18.8899 H   0  0  0  0  0  0
  1 25  1  0  0  0
  1 30  2  0  0  0
  1 82  1  0  0  0
  2  3  1  0  0  0
  2 25  1  0  0  0
  2 83  1  0  0  0
  2 84  1  0  0  0
  3  4  1  0  0  0
  3 85  1  0  0  0
  3 86  1  0  0  0
  4  5  1  0  0  0
  4 87  1  0  0  0
  4 88  1  0  0  0
  5  6  1  0  0  0
  5 26  1  0  0  0
  5 89  1  0  0  0
  6 25  1  0  0  0
  6 90  1  0  0  0
  6 91  1  0  0  0
  7  8  2  0  0  0
  7 26  1  0  0  0
  7 29  1  0  0  0
  8  9  1  0  0  0
  8 22  1  0  0  0
  9 10  1  0  0  0
  9 27  2  0  0  0
 10 11  2  0  0  0
 10 15  1  0  0  0
 11 12  1  0  0  0
 11 92  1  0  0  0
 12 13  2  0  0  0
 12 93  1  0  0  0
 13 14  1  0  0  0
 13 31  1  0  0  0
 14 15  2  0  0  0
 14 94  1  0  0  0
 15 95  1  0  0  0
 16 17  2  0  0  0
 16 21  1  0  0  0
 16 31  1  0  0  0
 17 18  1  0  0  0
 17 96  1  0  0  0
 18 19  2  0  0  0
 18 97  1  0  0  0
 19 20  1  0  0  0
 19 24  1  0  0  0
 20 21  2  0  0  0
 20 98  1  0  0  0
 21 23  1  0  0  0
 22 28  1  0  0  0
 22 32  2  0  0  0
 26 27  1  0  0  0
 28 99  1  0  0  0
 28100  1  0  0  0
 29101  1  0  0  0
 29102  1  0  0  0
 33 34  1  0  0  0
 33 66  1  0  0  0
 33 70  2  0  0  0
 34 36  1  0  0  0
 34 59  1  0  0  0
 34103  1  0  0  0
 35 44  2  0  0  0
 35 45  1  0  0  0
 35 68  1  0  0  0
 36 56  1  0  0  0
 36104  1  0  0  0
 37 39  1  0  0  0
 37 47  1  0  0  0
 37 66  1  0  0  0
 37105  1  0  0  0
 38 43  2  0  0  0
 38 46  1  0  0  0
 38 47  1  0  0  0
 39 64  1  0  0  0
 39 67  2  0  0  0
 40 52  1  0  0  0
 40 53  2  0  0  0
 40 58  1  0  0  0
 41106  1  0  0  0
 41107  1  0  0  0
 41108  1  0  0  0
 41 48  1  0  0  0
 42 43  1  0  0  0
 42 66  1  0  0  0
 42109  1  0  0  0
 42110  1  0  0  0
 43 44  1  0  0  0
 44111  1  0  0  0
 45 46  2  0  0  0
 45112  1  0  0  0
 46113  1  0  0  0
 47114  1  0  0  0
 47115  1  0  0  0
 48 56  1  0  0  0
 48 65  1  0  0  0
 48116  1  0  0  0
 49 50  1  0  0  0
 49 53  1  0  0  0
 49 64  1  0  0  0
 49117  1  0  0  0
 50 51  1  0  0  0
 50118  1  0  0  0
 50119  1  0  0  0
 51 52  1  0  0  0
 51120  1  0  0  0
 51121  1  0  0  0
 52122  1  0  0  0
 52123  1  0  0  0
 53 54  1  0  0  0
 54 55  2  0  0  0
 54124  1  0  0  0
 55 57  1  0  0  0
 55125  1  0  0  0
 56 69  2  0  0  0
 57 58  2  0  0  0
 57126  1  0  0  0
 58127  1  0  0  0
 59 60  1  0  0  0
 59 61  1  0  0  0
 59 62  1  0  0  0
 60128  1  0  0  0
 60129  1  0  0  0
 60130  1  0  0  0
 61131  1  0  0  0
 61132  1  0  0  0
 61133  1  0  0  0
 62134  1  0  0  0
 62135  1  0  0  0
 62136  1  0  0  0
 63 65  1  0  0  0
 63137  1  0  0  0
 63138  1  0  0  0
 63139  1  0  0  0
 64140  1  0  0  0
 65141  1  0  0  0
 68 79  1  0  0  0
 71 72  2  0  0  0
 71 80  1  0  0  0
 71142  1  0  0  0
 72 73  1  0  0  0
 72 75  1  0  0  0
 73 76  1  0  0  0
 73 81  2  0  0  0
 74 79  1  0  0  0
 74 80  2  0  0  0
 74 81  1  0  0  0
 75 82  1  0  0  0
 75143  1  0  0  0
 75144  1  0  0  0
 76 77  1  0  0  0
 76145  1  0  0  0
 76146  1  0  0  0
 77 78  1  0  0  0
 77 82  1  0  0  0
 77147  1  0  0  0
 78148  1  0  0  0
 78149  1  0  0  0
 78150  1  0  0  0
 79151  1  0  0  0
 79152  1  0  0  0
M  ISO  4   1 100  68 101  79 101  82 100
M  END
> <chiral flag>
0

> <version>
0

> <s_m_source_file>
/data/baiqing/PycharmProjects/Reinvent-master-3.2/result/LINK_invent/BTK/process_docking_weight1_custom_sum_contain_oxygen_bond_distance_aromatic_linkinvent_7_9_3/rearranged_h_0193.sdf

> <i_m_source_file_index>
9

> <r_mmod_Potential_Energy-OPLS-2005>
1292.34680175781

> <r_mmod_Stretch_Energy-OPLS-2005>
569.08740234375

> <r_mmod_Bend_Energy-OPLS-2005>
489.511047363281

> <r_mmod_Torsional_Energy-OPLS-2005>
320.002014160156

> <r_mmod_Improper_Torsional_Energy-OPLS-2005>
11.1969118118286

> <r_mmod_Van_der_Waal_Energy-OPLS-2005>
131.639862060547

> <r_mmod_Electrostatic_Energy-OPLS-2005>
-543.328186035156

> <r_mmod_Solvation_Energy-OPLS-2005>
-233.877578735352

> <b_mmod_Minimization_Converged-OPLS-2005>
0

> <r_mmod_RMS_Derivative-OPLS-2005>
1.08889997005463

$$$$
9
                    3D
 Structure written by MMmdl.
187196  0  0  1  0            999 V2000
  -30.7470  -14.4420   20.5959 C   0  0  0  0  0  0
  -30.4117  -12.3003   19.4153 C   0  0  0  0  0  0
  -29.4845  -12.4978   18.2008 C   0  0  0  0  0  0
  -28.0093  -12.3429   18.6171 C   0  0  0  0  0  0
  -27.6526  -13.1893   19.8661 C   0  0  2  0  0  0
  -28.6995  -13.0008   20.9900 C   0  0  0  0  0  0
  -25.2571  -13.8102   20.5671 C   0  0  0  0  0  0
  -24.1819  -13.0408   20.9190 C   0  0  0  0  0  0
  -24.6355  -11.6870   20.8757 C   0  0  0  0  0  0
  -23.9021  -10.4272   21.0418 C   0  0  0  0  0  0
  -24.3582   -9.4190   21.9194 C   0  0  0  0  0  0
  -23.6265   -8.2226   22.0759 C   0  0  0  0  0  0
  -22.4253   -8.0265   21.3543 C   0  0  0  0  0  0
  -21.9884   -9.0231   20.4644 C   0  0  0  0  0  0
  -22.7202  -10.2115   20.3057 C   0  0  0  0  0  0
  -21.6841   -6.0723   22.5276 C   0  0  0  0  0  0
  -21.4007   -6.5630   23.8209 C   0  0  0  0  0  0
  -21.3652   -5.6787   24.9175 C   0  0  0  0  0  0
  -21.6041   -4.3053   24.7231 C   0  0  0  0  0  0
  -21.8825   -3.8141   23.4354 C   0  0  0  0  0  0
  -21.9191   -4.6952   22.3404 C   0  0  0  0  0  0
  -22.7859  -13.5240   21.1846 C   0  0  0  0  0  0
  -22.1661   -4.2136   21.0983 F   0  0  0  0  0  0
  -21.5627   -3.4540   25.7748 F   0  0  0  0  0  0
  -30.0324  -13.2921   20.4336 N   0  0  0  0  0  0
  -26.2973  -12.9226   20.3338 N   0  0  0  0  0  0
  -25.9269  -11.6413   20.5775 N   0  0  0  0  0  0
  -22.0481  -12.8242   22.0393 N   0  0  0  0  0  0
  -25.4289  -15.1810   20.4042 N   0  0  0  0  0  0
  -31.8734  -14.5930   20.1114 O   0  0  0  0  0  0
  -21.6621   -6.8861   21.4237 O   0  0  0  0  0  0
  -22.3566  -14.5555   20.6693 O   0  0  0  0  0  0
  -24.6106  -31.8703   23.2127 C   0  0  0  0  0  0
  -25.9015  -32.4831   23.8415 C   0  0  1  0  0  0
  -27.2420  -27.4788   20.0870 C   0  0  0  0  0  0
  -25.5885  -33.8628   24.2349 N   0  0  0  0  0  0
  -23.3976  -30.4928   21.5512 C   0  0  2  0  0  0
  -24.8473  -28.9605   20.1157 C   0  0  0  0  0  0
  -22.7383  -29.4668   22.4999 C   0  0  0  0  0  0
  -18.0266  -28.1381   22.8506 C   0  0  0  0  0  0
  -24.1477  -36.7312   23.2640 C   0  0  0  0  0  0
  -25.9209  -30.8469   21.3613 C   0  0  0  0  0  0
  -26.0017  -29.4824   20.7137 C   0  0  0  0  0  0
  -27.2026  -28.7433   20.7071 C   0  0  0  0  0  0
  -26.0765  -26.9540   19.4943 C   0  0  0  0  0  0
  -24.8762  -27.6915   19.5073 C   0  0  0  0  0  0
  -23.6055  -29.8217   20.1664 C   0  0  0  0  0  0
  -25.4098  -36.3115   24.0344 C   0  0  1  0  0  0
  -20.5851  -28.3663   23.1328 C   0  0  2  0  0  0
  -20.6752  -26.9402   22.5419 C   0  0  0  0  0  0
  -19.5731  -26.6387   21.5216 C   0  0  0  0  0  0
  -18.1912  -26.7931   22.1630 C   0  0  0  0  0  0
  -19.1515  -28.8840   23.2917 C   0  0  0  0  0  0
  -18.9442  -30.1447   23.8928 C   0  0  0  0  0  0
  -17.6444  -30.6593   24.0576 C   0  0  0  0  0  0
  -25.9031  -34.9480   23.5144 C   0  0  0  0  0  0
  -16.5338  -29.9099   23.6326 C   0  0  0  0  0  0
  -16.7256  -28.6509   23.0359 C   0  0  0  0  0  0
  -26.4460  -31.6592   25.0722 C   0  0  0  0  0  0
  -25.3739  -31.3655   26.1468 C   0  0  0  0  0  0
  -27.0294  -30.3047   24.6064 C   0  0  0  0  0  0
  -27.6032  -32.4300   25.7504 C   0  0  0  0  0  0
  -27.5581  -37.1802   24.8462 C   0  0  0  0  0  0
  -21.4114  -29.3031   22.3734 N   0  0  0  0  0  0
  -26.4286  -37.3803   23.9420 N   0  0  0  0  0  0
  -24.6608  -31.0835   22.1010 N   0  0  0  0  0  0
  -23.4167  -28.8216   23.3038 O   0  0  0  0  0  0
  -28.4015  -26.7515   20.0748 O   0  0  0  0  0  0
  -26.5589  -34.8927   22.4705 O   0  0  0  0  0  0
  -23.5307  -32.1432   23.7544 O   0  0  0  0  0  0
  -29.6164  -20.6018   19.5869 C   0  0  0  0  0  0
  -28.7568  -20.1517   20.6065 C   0  0  0  0  0  0
  -28.3390  -21.1454   21.5235 C   0  0  0  0  0  0
  -29.4707  -22.7384   20.3450 C   0  0  0  0  0  0
  -30.2422  -17.7411   22.0642 C   0  0  0  0  0  0
  -30.9410  -16.3752   22.1246 C   0  0  0  0  0  0
  -29.0852  -16.2198   20.6621 C   0  0  0  0  0  0
  -29.4779  -17.6957   20.7501 C   0  0  1  0  0  0
  -27.4261  -18.4058   19.3878 C   0  0  0  0  0  0
  -22.9526  -21.2268   21.9763 C   0  0  0  0  0  0
  -23.7517  -18.8551   21.4927 C   0  0  0  0  0  0
  -31.3530  -26.6614   20.1812 C   0  0  0  0  0  0
  -27.4069  -20.8656   22.6882 C   0  0  0  0  0  0
  -30.3613  -24.6201   18.9805 C   0  0  0  0  0  0
  -25.0379  -20.3126   23.1733 C   0  0  0  0  0  0
  -29.1575  -26.9041   18.8815 C   0  0  0  0  0  0
  -28.2938  -18.6892   20.6304 C   0  0  2  0  0  0
  -23.6690  -19.9855   22.5354 C   0  0  0  0  0  0
  -30.5010  -26.1573   19.0033 C   0  0  1  0  0  0
  -29.9700  -21.8923   19.4625 N   0  0  0  0  0  0
  -28.6818  -22.4398   21.3595 N   0  0  0  0  0  0
  -30.1578  -15.4429   21.2949 N   0  0  0  0  0  0
  -29.7667  -24.0676   20.1935 N   0  0  0  0  0  0
  -26.0256  -20.8007   22.1878 N   0  3  0  0  0  0
  -31.4560  -12.3843   19.1101 H   0  0  0  0  0  0
  -30.3029  -11.2926   19.8192 H   0  0  0  0  0  0
  -29.7285  -11.7764   17.4196 H   0  0  0  0  0  0
  -29.6447  -13.4861   17.7666 H   0  0  0  0  0  0
  -27.8318  -11.2866   18.8223 H   0  0  0  0  0  0
  -27.3541  -12.6049   17.7855 H   0  0  0  0  0  0
  -27.6705  -14.2219   19.5349 H   0  0  0  0  0  0
  -28.6764  -11.9749   21.3596 H   0  0  0  0  0  0
  -28.4588  -13.6255   21.8508 H   0  0  0  0  0  0
  -25.2725   -9.5670   22.4771 H   0  0  0  0  0  0
  -23.9970   -7.4620   22.7485 H   0  0  0  0  0  0
  -21.0818   -8.8745   19.8949 H   0  0  0  0  0  0
  -22.3659  -10.9655   19.6167 H   0  0  0  0  0  0
  -21.1999   -7.6138   23.9707 H   0  0  0  0  0  0
  -21.1464   -6.0520   25.9074 H   0  0  0  0  0  0
  -22.0614   -2.7603   23.2862 H   0  0  0  0  0  0
  -22.4077  -11.9883   22.4764 H   0  0  0  0  0  0
  -21.1101  -13.1283   22.2593 H   0  0  0  0  0  0
  -24.6539  -15.8284   20.4880 H   0  0  0  0  0  0
  -26.2713  -15.6075   20.0452 H   0  0  0  0  0  0
  -26.7091  -32.5569   23.1192 H   0  0  0  0  0  0
  -25.0038  -33.9799   25.0494 H   0  0  0  0  0  0
  -22.6851  -31.3084   21.4111 H   0  0  0  0  0  0
  -23.3750  -35.9629   23.3288 H   0  0  0  0  0  0
  -24.3574  -36.8943   22.2055 H   0  0  0  0  0  0
  -23.7206  -37.6504   23.6662 H   0  0  0  0  0  0
  -26.0242  -31.6130   20.5916 H   0  0  0  0  0  0
  -26.8115  -30.9047   21.9751 H   0  0  0  0  0  0
  -28.0964  -29.1411   21.1669 H   0  0  0  0  0  0
  -26.1017  -25.9806   19.0247 H   0  0  0  0  0  0
  -23.9873  -27.2827   19.0470 H   0  0  0  0  0  0
  -23.7081  -30.5945   19.4042 H   0  0  0  0  0  0
  -22.7314  -29.2370   19.8743 H   0  0  0  0  0  0
  -25.1265  -36.1987   25.0836 H   0  0  0  0  0  0
  -20.9957  -28.3233   24.1442 H   0  0  0  0  0  0
  -20.5662  -26.2269   23.3602 H   0  0  0  0  0  0
  -21.6624  -26.7449   22.1213 H   0  0  0  0  0  0
  -19.6893  -25.6299   21.1240 H   0  0  0  0  0  0
  -19.6673  -27.3204   20.6755 H   0  0  0  0  0  0
  -17.4182  -26.6693   21.4029 H   0  0  0  0  0  0
  -18.0308  -26.0067   22.9019 H   0  0  0  0  0  0
  -19.7919  -30.7252   24.2315 H   0  0  0  0  0  0
  -17.5002  -31.6280   24.5172 H   0  0  0  0  0  0
  -15.5342  -30.3013   23.7623 H   0  0  0  0  0  0
  -15.8661  -28.0834   22.7062 H   0  0  0  0  0  0
  -24.5911  -30.7017   25.7784 H   0  0  0  0  0  0
  -24.8938  -32.2791   26.4978 H   0  0  0  0  0  0
  -25.8106  -30.8768   27.0186 H   0  0  0  0  0  0
  -26.2829  -29.6810   24.1132 H   0  0  0  0  0  0
  -27.4091  -29.7274   25.4505 H   0  0  0  0  0  0
  -27.8648  -30.4382   23.9189 H   0  0  0  0  0  0
  -27.2649  -33.3583   26.2120 H   0  0  0  0  0  0
  -28.3841  -32.6880   25.0341 H   0  0  0  0  0  0
  -28.0695  -31.8391   26.5397 H   0  0  0  0  0  0
  -28.2575  -38.0127   24.7575 H   0  0  0  0  0  0
  -28.1105  -36.2663   24.6218 H   0  0  0  0  0  0
  -27.2302  -37.1376   25.8865 H   0  0  0  0  0  0
  -20.9265  -29.8749   21.6961 H   0  0  0  0  0  0
  -26.0176  -38.2872   24.1459 H   0  0  0  0  0  0
  -29.9967  -19.9289   18.8328 H   0  0  0  0  0  0
  -30.9441  -18.5748   22.1147 H   0  0  0  0  0  0
  -29.5506  -17.8388   22.9020 H   0  0  0  0  0  0
  -31.0111  -16.0098   23.1497 H   0  0  0  0  0  0
  -31.9617  -16.4784   21.7509 H   0  0  0  0  0  0
  -28.9391  -15.9532   19.6142 H   0  0  0  0  0  0
  -28.1557  -16.0295   21.2008 H   0  0  0  0  0  0
  -30.1890  -17.8788   19.9424 H   0  0  0  0  0  0
  -26.6030  -19.1157   19.3027 H   0  0  0  0  0  0
  -26.9781  -17.4136   19.4228 H   0  0  0  0  0  0
  -28.0044  -18.4652   18.4650 H   0  0  0  0  0  0
  -21.9511  -20.9717   21.6277 H   0  0  0  0  0  0
  -23.4862  -21.6665   21.1335 H   0  0  0  0  0  0
  -22.8403  -21.9971   22.7406 H   0  0  0  0  0  0
  -22.7549  -18.5534   21.1684 H   0  0  0  0  0  0
  -24.2357  -17.9677   21.9035 H   0  0  0  0  0  0
  -24.3021  -19.1553   20.6009 H   0  0  0  0  0  0
  -32.3259  -26.1690   20.2005 H   0  0  0  0  0  0
  -30.8691  -26.4766   21.1404 H   0  0  0  0  0  0
  -31.5296  -27.7349   20.1048 H   0  0  0  0  0  0
  -27.4891  -21.6544   23.4373 H   0  0  0  0  0  0
  -27.7018  -19.9416   23.1846 H   0  0  0  0  0  0
  -31.3446  -24.1685   18.8437 H   0  0  0  0  0  0
  -29.7618  -24.3161   18.1208 H   0  0  0  0  0  0
  -25.4228  -19.4129   23.6567 H   0  0  0  0  0  0
  -24.9194  -21.0548   23.9648 H   0  0  0  0  0  0
  -28.5929  -26.5262   18.0273 H   0  0  0  0  0  0
  -29.3432  -27.9643   18.6965 H   0  0  0  0  0  0
  -27.6518  -18.5127   21.4917 H   0  0  0  0  0  0
  -23.0424  -19.6089   23.3462 H   0  0  0  0  0  0
  -31.0544  -26.4105   18.0974 H   0  0  0  0  0  0
  -29.2691  -24.7049   20.8035 H   0  0  0  0  0  0
  -26.0338  -20.1926   21.3882 H   0  0  0  0  0  0
  -25.7833  -21.7243   21.8678 H   0  0  0  0  0  0
  1 25  1  0  0  0
  1 30  2  0  0  0
  1 92  1  0  0  0
  2  3  1  0  0  0
  2 25  1  0  0  0
  2 95  1  0  0  0
  2 96  1  0  0  0
  3  4  1  0  0  0
  3 97  1  0  0  0
  3 98  1  0  0  0
  4  5  1  0  0  0
  4 99  1  0  0  0
  4100  1  0  0  0
  5  6  1  0  0  0
  5 26  1  0  0  0
  5101  1  0  0  0
  6 25  1  0  0  0
  6102  1  0  0  0
  6103  1  0  0  0
  7  8  2  0  0  0
  7 26  1  0  0  0
  7 29  1  0  0  0
  8  9  1  0  0  0
  8 22  1  0  0  0
  9 10  1  0  0  0
  9 27  2  0  0  0
 10 11  2  0  0  0
 10 15  1  0  0  0
 11 12  1  0  0  0
 11104  1  0  0  0
 12 13  2  0  0  0
 12105  1  0  0  0
 13 14  1  0  0  0
 13 31  1  0  0  0
 14 15  2  0  0  0
 14106  1  0  0  0
 15107  1  0  0  0
 16 17  2  0  0  0
 16 21  1  0  0  0
 16 31  1  0  0  0
 17 18  1  0  0  0
 17108  1  0  0  0
 18 19  2  0  0  0
 18109  1  0  0  0
 19 20  1  0  0  0
 19 24  1  0  0  0
 20 21  2  0  0  0
 20110  1  0  0  0
 21 23  1  0  0  0
 22 28  1  0  0  0
 22 32  2  0  0  0
 26 27  1  0  0  0
 28111  1  0  0  0
 28112  1  0  0  0
 29113  1  0  0  0
 29114  1  0  0  0
 33 34  1  0  0  0
 33 66  1  0  0  0
 33 70  2  0  0  0
 34 36  1  0  0  0
 34 59  1  0  0  0
 34115  1  0  0  0
 35 44  2  0  0  0
 35 45  1  0  0  0
 35 68  1  0  0  0
 36 56  1  0  0  0
 36116  1  0  0  0
 37 39  1  0  0  0
 37 47  1  0  0  0
 37 66  1  0  0  0
 37117  1  0  0  0
 38 43  2  0  0  0
 38 46  1  0  0  0
 38 47  1  0  0  0
 39 64  1  0  0  0
 39 67  2  0  0  0
 40 52  1  0  0  0
 40 53  2  0  0  0
 40 58  1  0  0  0
 41118  1  0  0  0
 41119  1  0  0  0
 41120  1  0  0  0
 41 48  1  0  0  0
 42 43  1  0  0  0
 42 66  1  0  0  0
 42121  1  0  0  0
 42122  1  0  0  0
 43 44  1  0  0  0
 44123  1  0  0  0
 45 46  2  0  0  0
 45124  1  0  0  0
 46125  1  0  0  0
 47126  1  0  0  0
 47127  1  0  0  0
 48 56  1  0  0  0
 48 65  1  0  0  0
 48128  1  0  0  0
 49 50  1  0  0  0
 49 53  1  0  0  0
 49 64  1  0  0  0
 49129  1  0  0  0
 50 51  1  0  0  0
 50130  1  0  0  0
 50131  1  0  0  0
 51 52  1  0  0  0
 51132  1  0  0  0
 51133  1  0  0  0
 52134  1  0  0  0
 52135  1  0  0  0
 53 54  1  0  0  0
 54 55  2  0  0  0
 54136  1  0  0  0
 55 57  1  0  0  0
 55137  1  0  0  0
 56 69  2  0  0  0
 57 58  2  0  0  0
 57138  1  0  0  0
 58139  1  0  0  0
 59 60  1  0  0  0
 59 61  1  0  0  0
 59 62  1  0  0  0
 60140  1  0  0  0
 60141  1  0  0  0
 60142  1  0  0  0
 61143  1  0  0  0
 61144  1  0  0  0
 61145  1  0  0  0
 62146  1  0  0  0
 62147  1  0  0  0
 62148  1  0  0  0
 63 65  1  0  0  0
 63149  1  0  0  0
 63150  1  0  0  0
 63151  1  0  0  0
 64152  1  0  0  0
 65153  1  0  0  0
 68 86  1  0  0  0
 71 72  2  0  0  0
 71 90  1  0  0  0
 71154  1  0  0  0
 72 73  1  0  0  0
 72 87  1  0  0  0
 73 83  1  0  0  0
 73 91  2  0  0  0
 74 90  2  0  0  0
 74 91  1  0  0  0
 74 93  1  0  0  0
 75 76  1  0  0  0
 75155  1  0  0  0
 75156  1  0  0  0
 75 78  1  0  0  0
 76 92  1  0  0  0
 76157  1  0  0  0
 76158  1  0  0  0
 77 78  1  0  0  0
 77 92  1  0  0  0
 77159  1  0  0  0
 77160  1  0  0  0
 78 87  1  0  0  0
 78161  1  0  0  0
 79162  1  0  0  0
 79163  1  0  0  0
 79164  1  0  0  0
 79 87  1  0  0  0
 80165  1  0  0  0
 80166  1  0  0  0
 80167  1  0  0  0
 80 88  1  0  0  0
 81 88  1  0  0  0
 81168  1  0  0  0
 81169  1  0  0  0
 81170  1  0  0  0
 82171  1  0  0  0
 82172  1  0  0  0
 82173  1  0  0  0
 82 89  1  0  0  0
 83 94  1  0  0  0
 83174  1  0  0  0
 83175  1  0  0  0
 84 89  1  0  0  0
 84 93  1  0  0  0
 84176  1  0  0  0
 84177  1  0  0  0
 85 88  1  0  0  0
 85 94  1  0  0  0
 85178  1  0  0  0
 85179  1  0  0  0
 86 89  1  0  0  0
 86180  1  0  0  0
 86181  1  0  0  0
 87182  1  0  0  0
 88183  1  0  0  0
 89184  1  0  0  0
 93185  1  0  0  0
 94186  1  0  0  0
 94187  1  0  0  0
M  CHG  1  94   1
M  ISO  4   1 100  68 101  86 101  92 100
M  END
> <chiral flag>
0

> <version>
0

> <s_m_source_file>
/data/baiqing/PycharmProjects/Reinvent-master-3.2/result/LINK_invent/BTK/process_docking_weight1_custom_sum_contain_oxygen_bond_distance_aromatic_linkinvent_7_9_3/rearranged_h_0193.sdf

> <i_m_source_file_index>
10

> <r_mmod_Potential_Energy-OPLS-2005>
-632.239990234375

> <r_mmod_Stretch_Energy-OPLS-2005>
34.7468948364258

> <r_mmod_Bend_Energy-OPLS-2005>
133.210876464844

> <r_mmod_Torsional_Energy-OPLS-2005>
373.383666992188

> <r_mmod_Improper_Torsional_Energy-OPLS-2005>
7.03089284896851

> <r_mmod_Van_der_Waal_Energy-OPLS-2005>
144.84489440918

> <r_mmod_Electrostatic_Energy-OPLS-2005>
-875.931030273438

> <r_mmod_Solvation_Energy-OPLS-2005>
-460.352905273438

> <b_mmod_Minimization_Converged-OPLS-2005>
0

> <r_mmod_RMS_Derivative-OPLS-2005>
0.908791959285736

$$$$
10
                    3D
 Structure written by MMmdl.
154163  0  0  1  0            999 V2000
  -30.4220  -15.4234   20.3648 C   0  0  0  0  0  0
  -30.4080  -12.9271   19.5415 C   0  0  0  0  0  0
  -29.5280  -12.6026   18.3078 C   0  0  0  0  0  0
  -28.0889  -12.2986   18.7433 C   0  0  0  0  0  0
  -27.5929  -13.2976   19.8160 C   0  0  2  0  0  0
  -28.6139  -13.5694   20.9431 C   0  0  0  0  0  0
  -25.2305  -13.8281   20.5790 C   0  0  0  0  0  0
  -24.1687  -13.0434   20.9267 C   0  0  0  0  0  0
  -24.6379  -11.6944   20.8783 C   0  0  0  0  0  0
  -23.9094  -10.4291   21.0425 C   0  0  0  0  0  0
  -24.3643   -9.4190   21.9188 C   0  0  0  0  0  0
  -23.6308   -8.2229   22.0755 C   0  0  0  0  0  0
  -22.4281   -8.0282   21.3550 C   0  0  0  0  0  0
  -21.9924   -9.0266   20.4661 C   0  0  0  0  0  0
  -22.7261  -10.2138   20.3074 C   0  0  0  0  0  0
  -21.6849   -6.0743   22.5280 C   0  0  0  0  0  0
  -21.4021   -6.5650   23.8213 C   0  0  0  0  0  0
  -21.3655   -5.6800   24.9174 C   0  0  0  0  0  0
  -21.6035   -4.3057   24.7232 C   0  0  0  0  0  0
  -21.8816   -3.8155   23.4354 C   0  0  0  0  0  0
  -21.9190   -4.6970   22.3410 C   0  0  0  0  0  0
  -22.7711  -13.5169   21.1917 C   0  0  0  0  0  0
  -22.1664   -4.2158   21.0990 F   0  0  0  0  0  0
  -21.5621   -3.4537   25.7744 F   0  0  0  0  0  0
  -29.8192  -14.1160   20.2938 N   0  0  0  0  0  0
  -26.2733  -12.9595   20.3239 N   0  0  0  0  0  0
  -25.9322  -11.6676   20.5741 N   0  0  0  0  0  0
  -22.0409  -12.8142   22.0497 N   0  0  0  0  0  0
  -25.3926  -15.2021   20.4282 N   0  0  0  0  0  0
  -31.6460  -15.3191   20.1685 O   0  0  0  0  0  0
  -21.6636   -6.8885   21.4243 O   0  0  0  0  0  0
  -22.3380  -14.5463   20.6753 O   0  0  0  0  0  0
  -24.6718  -31.8124   23.1619 C   0  0  0  0  0  0
  -25.9350  -32.4528   23.8126 C   0  0  1  0  0  0
  -27.2120  -26.8158   20.2121 C   0  0  0  0  0  0
  -25.5975  -33.8351   24.2013 N   0  0  0  0  0  0
  -23.4924  -30.4200   21.5114 C   0  0  2  0  0  0
  -24.9477  -28.7858   20.1123 C   0  0  0  0  0  0
  -22.7710  -29.4370   22.4722 C   0  0  0  0  0  0
  -18.0330  -28.1397   22.8462 C   0  0  0  0  0  0
  -24.1493  -36.7184   23.2651 C   0  0  0  0  0  0
  -26.0675  -30.5836   21.4095 C   0  0  0  0  0  0
  -26.1327  -29.1619   20.7563 C   0  0  0  0  0  0
  -27.2563  -28.2020   20.7750 C   0  0  0  0  0  0
  -26.0000  -26.6198   19.5100 C   0  0  0  0  0  0
  -24.9140  -27.5383   19.4654 C   0  0  0  0  0  0
  -23.7402  -29.7286   20.1404 C   0  0  0  0  0  0
  -25.4138  -36.2935   24.0292 C   0  0  1  0  0  0
  -20.5959  -28.3751   23.1156 C   0  0  2  0  0  0
  -20.6786  -26.9415   22.5400 C   0  0  0  0  0  0
  -19.5763  -26.6353   21.5208 C   0  0  0  0  0  0
  -18.1949  -26.7927   22.1619 C   0  0  0  0  0  0
  -19.1595  -28.8895   23.2796 C   0  0  0  0  0  0
  -18.9501  -30.1479   23.8840 C   0  0  0  0  0  0
  -17.6492  -30.6586   24.0542 C   0  0  0  0  0  0
  -25.9107  -34.9318   23.4984 C   0  0  0  0  0  0
  -16.5380  -29.9069   23.6337 C   0  0  0  0  0  0
  -16.7311  -28.6484   23.0369 C   0  0  0  0  0  0
  -26.4554  -31.6528   25.0711 C   0  0  0  0  0  0
  -25.3650  -31.3831   26.1352 C   0  0  0  0  0  0
  -27.0463  -30.2873   24.6553 C   0  0  0  0  0  0
  -27.6023  -32.4378   25.7515 C   0  0  0  0  0  0
  -27.5568  -37.1749   24.8463 C   0  0  0  0  0  0
  -21.4368  -29.3032   22.3496 N   0  0  0  0  0  0
  -26.4274  -37.3681   23.9411 N   0  0  0  0  0  0
  -24.7660  -30.9690   22.0802 N   0  0  0  0  0  0
  -23.4218  -28.7947   23.3003 O   0  0  0  0  0  0
  -28.1888  -25.6542   20.3083 O   0  0  0  0  0  0
  -26.5737  -34.8868   22.4591 O   0  0  0  0  0  0
  -23.5761  -32.1135   23.6642 O   0  0  0  0  0  0
  -26.9066  -19.8018   18.4513 C   0  0  0  0  0  0
  -26.8744  -21.3061   18.3415 C   0  0  0  0  0  0
  -28.5389  -17.6950   20.6058 C   0  0  0  0  0  0
  -30.3456  -18.2322   19.8510 C   0  0  0  0  0  0
  -28.1684  -20.6041   18.7088 C   0  0  0  0  0  0
  -29.2589  -19.2071   20.6128 C   0  0  0  0  0  0
  -28.8963  -22.3686   20.4662 C   0  0  0  0  0  0
  -27.9627  -23.9660   20.1581 C   0  0  0  0  0  0
  -29.8246  -16.8330   20.3645 N   0  0  0  0  0  0
  -28.5585  -20.7158   20.1330 N   0  3  1  0  0  0
  -31.4235  -13.1256   19.1980 H   0  0  0  0  0  0
  -30.4955  -12.0544   20.1919 H   0  0  0  0  0  0
  -29.9368  -11.7570   17.7536 H   0  0  0  0  0  0
  -29.5329  -13.4535   17.6260 H   0  0  0  0  0  0
  -28.0770  -11.2869   19.1508 H   0  0  0  0  0  0
  -27.4171  -12.2897   17.8852 H   0  0  0  0  0  0
  -27.4749  -14.2387   19.2768 H   0  0  0  0  0  0
  -28.8225  -12.6748   21.5300 H   0  0  0  0  0  0
  -28.2171  -14.3124   21.6374 H   0  0  0  0  0  0
  -25.2801   -9.5643   22.4747 H   0  0  0  0  0  0
  -24.0009   -7.4613   22.7471 H   0  0  0  0  0  0
  -21.0844   -8.8797   19.8983 H   0  0  0  0  0  0
  -22.3721  -10.9683   19.6187 H   0  0  0  0  0  0
  -21.2025   -7.6165   23.9719 H   0  0  0  0  0  0
  -21.1473   -6.0537   25.9069 H   0  0  0  0  0  0
  -22.0597   -2.7619   23.2855 H   0  0  0  0  0  0
  -22.4071  -11.9810   22.4856 H   0  0  0  0  0  0
  -21.1026  -13.1134   22.2746 H   0  0  0  0  0  0
  -24.6211  -15.8498   20.5470 H   0  0  0  0  0  0
  -26.2412  -15.6479   20.1075 H   0  0  0  0  0  0
  -26.7433  -32.5022   23.0847 H   0  0  0  0  0  0
  -25.0055  -33.9417   25.0119 H   0  0  0  0  0  0
  -22.8107  -31.2542   21.3329 H   0  0  0  0  0  0
  -23.3767  -35.9501   23.3270 H   0  0  0  0  0  0
  -24.3567  -36.8880   22.2073 H   0  0  0  0  0  0
  -23.7233  -37.6349   23.6744 H   0  0  0  0  0  0
  -26.2629  -31.3188   20.6273 H   0  0  0  0  0  0
  -26.9202  -30.6419   22.0739 H   0  0  0  0  0  0
  -28.1502  -28.4919   21.3090 H   0  0  0  0  0  0
  -25.8516  -25.6702   19.0166 H   0  0  0  0  0  0
  -24.0171  -27.2445   18.9381 H   0  0  0  0  0  0
  -23.9087  -30.4948   19.3831 H   0  0  0  0  0  0
  -22.8467  -29.1923   19.8165 H   0  0  0  0  0  0
  -25.1339  -36.1717   25.0781 H   0  0  0  0  0  0
  -21.0050  -28.3363   24.1279 H   0  0  0  0  0  0
  -20.5616  -26.2379   23.3658 H   0  0  0  0  0  0
  -21.6651  -26.7336   22.1241 H   0  0  0  0  0  0
  -19.6913  -25.6244   21.1282 H   0  0  0  0  0  0
  -19.6706  -27.3121   20.6705 H   0  0  0  0  0  0
  -17.4214  -26.6666   21.4030 H   0  0  0  0  0  0
  -18.0348  -26.0079   22.9026 H   0  0  0  0  0  0
  -19.7974  -30.7304   24.2195 H   0  0  0  0  0  0
  -17.5040  -31.6264   24.5149 H   0  0  0  0  0  0
  -15.5376  -30.2953   23.7682 H   0  0  0  0  0  0
  -15.8714  -28.0773   22.7131 H   0  0  0  0  0  0
  -24.5834  -30.7179   25.7660 H   0  0  0  0  0  0
  -24.8837  -32.3051   26.4626 H   0  0  0  0  0  0
  -25.7842  -30.9091   27.0235 H   0  0  0  0  0  0
  -26.3150  -29.6517   24.1545 H   0  0  0  0  0  0
  -27.3904  -29.7295   25.5273 H   0  0  0  0  0  0
  -27.9131  -30.4008   24.0044 H   0  0  0  0  0  0
  -27.2562  -33.3729   26.1935 H   0  0  0  0  0  0
  -28.3899  -32.6868   25.0392 H   0  0  0  0  0  0
  -28.0619  -31.8625   26.5561 H   0  0  0  0  0  0
  -28.2555  -38.0072   24.7504 H   0  0  0  0  0  0
  -28.1092  -36.2592   24.6289 H   0  0  0  0  0  0
  -27.2290  -37.1387   25.8868 H   0  0  0  0  0  0
  -20.9633  -29.8756   21.6645 H   0  0  0  0  0  0
  -26.0110  -38.2734   24.1425 H   0  0  0  0  0  0
  -26.8452  -19.2393   17.5221 H   0  0  0  0  0  0
  -26.3572  -19.3700   19.2858 H   0  0  0  0  0  0
  -26.3001  -21.8255   19.1067 H   0  0  0  0  0  0
  -26.7971  -21.7298   17.3413 H   0  0  0  0  0  0
  -27.8187  -17.5749   19.7961 H   0  0  0  0  0  0
  -28.0395  -17.4737   21.5497 H   0  0  0  0  0  0
  -31.3679  -18.4517   20.1611 H   0  0  0  0  0  0
  -30.2863  -18.3227   18.7650 H   0  0  0  0  0  0
  -28.9941  -20.5676   18.0015 H   0  0  0  0  0  0
  -29.6142  -19.3770   21.6298 H   0  0  0  0  0  0
  -29.1215  -22.3759   21.5322 H   0  0  0  0  0  0
  -29.8641  -22.5221   19.9916 H   0  0  0  0  0  0
  -27.0334  -23.8174   20.7094 H   0  0  0  0  0  0
  -27.6620  -23.8848   19.1147 H   0  0  0  0  0  0
  -27.6848  -20.6429   20.6322 H   0  0  0  0  0  0
  1 25  1  0  0  0
  1 30  2  0  0  0
  1 79  1  0  0  0
  2  3  1  0  0  0
  2 25  1  0  0  0
  2 81  1  0  0  0
  2 82  1  0  0  0
  3  4  1  0  0  0
  3 83  1  0  0  0
  3 84  1  0  0  0
  4  5  1  0  0  0
  4 85  1  0  0  0
  4 86  1  0  0  0
  5  6  1  0  0  0
  5 26  1  0  0  0
  5 87  1  0  0  0
  6 25  1  0  0  0
  6 88  1  0  0  0
  6 89  1  0  0  0
  7  8  2  0  0  0
  7 26  1  0  0  0
  7 29  1  0  0  0
  8  9  1  0  0  0
  8 22  1  0  0  0
  9 10  1  0  0  0
  9 27  2  0  0  0
 10 11  2  0  0  0
 10 15  1  0  0  0
 11 12  1  0  0  0
 11 90  1  0  0  0
 12 13  2  0  0  0
 12 91  1  0  0  0
 13 14  1  0  0  0
 13 31  1  0  0  0
 14 15  2  0  0  0
 14 92  1  0  0  0
 15 93  1  0  0  0
 16 17  2  0  0  0
 16 21  1  0  0  0
 16 31  1  0  0  0
 17 18  1  0  0  0
 17 94  1  0  0  0
 18 19  2  0  0  0
 18 95  1  0  0  0
 19 20  1  0  0  0
 19 24  1  0  0  0
 20 21  2  0  0  0
 20 96  1  0  0  0
 21 23  1  0  0  0
 22 28  1  0  0  0
 22 32  2  0  0  0
 26 27  1  0  0  0
 28 97  1  0  0  0
 28 98  1  0  0  0
 29 99  1  0  0  0
 29100  1  0  0  0
 33 34  1  0  0  0
 33 66  1  0  0  0
 33 70  2  0  0  0
 34 36  1  0  0  0
 34 59  1  0  0  0
 34101  1  0  0  0
 35 44  2  0  0  0
 35 45  1  0  0  0
 35 68  1  0  0  0
 36 56  1  0  0  0
 36102  1  0  0  0
 37 39  1  0  0  0
 37 47  1  0  0  0
 37 66  1  0  0  0
 37103  1  0  0  0
 38 43  2  0  0  0
 38 46  1  0  0  0
 38 47  1  0  0  0
 39 64  1  0  0  0
 39 67  2  0  0  0
 40 52  1  0  0  0
 40 53  2  0  0  0
 40 58  1  0  0  0
 41104  1  0  0  0
 41105  1  0  0  0
 41106  1  0  0  0
 41 48  1  0  0  0
 42 43  1  0  0  0
 42 66  1  0  0  0
 42107  1  0  0  0
 42108  1  0  0  0
 43 44  1  0  0  0
 44109  1  0  0  0
 45 46  2  0  0  0
 45110  1  0  0  0
 46111  1  0  0  0
 47112  1  0  0  0
 47113  1  0  0  0
 48 56  1  0  0  0
 48 65  1  0  0  0
 48114  1  0  0  0
 49 50  1  0  0  0
 49 53  1  0  0  0
 49 64  1  0  0  0
 49115  1  0  0  0
 50 51  1  0  0  0
 50116  1  0  0  0
 50117  1  0  0  0
 51 52  1  0  0  0
 51118  1  0  0  0
 51119  1  0  0  0
 52120  1  0  0  0
 52121  1  0  0  0
 53 54  1  0  0  0
 54 55  2  0  0  0
 54122  1  0  0  0
 55 57  1  0  0  0
 55123  1  0  0  0
 56 69  2  0  0  0
 57 58  2  0  0  0
 57124  1  0  0  0
 58125  1  0  0  0
 59 60  1  0  0  0
 59 61  1  0  0  0
 59 62  1  0  0  0
 60126  1  0  0  0
 60127  1  0  0  0
 60128  1  0  0  0
 61129  1  0  0  0
 61130  1  0  0  0
 61131  1  0  0  0
 62132  1  0  0  0
 62133  1  0  0  0
 62134  1  0  0  0
 63 65  1  0  0  0
 63135  1  0  0  0
 63136  1  0  0  0
 63137  1  0  0  0
 64138  1  0  0  0
 65139  1  0  0  0
 68 78  1  0  0  0
 71 72  1  0  0  0
 71140  1  0  0  0
 71141  1  0  0  0
 71 75  1  0  0  0
 72 75  1  0  0  0
 72142  1  0  0  0
 72143  1  0  0  0
 73 79  1  0  0  0
 73144  1  0  0  0
 73145  1  0  0  0
 73 76  1  0  0  0
 74 76  1  0  0  0
 74 79  1  0  0  0
 74146  1  0  0  0
 74147  1  0  0  0
 75 80  1  0  0  0
 75148  1  0  0  0
 76 80  1  0  0  0
 76149  1  0  0  0
 77 78  1  0  0  0
 77150  1  0  0  0
 77151  1  0  0  0
 77 80  1  0  0  0
 78152  1  0  0  0
 78153  1  0  0  0
 80154  1  0  0  0
M  CHG  1  80   1
M  ISO  4   1 100  68 101  78 101  79 100
M  END
> <chiral flag>
0

> <version>
0

> <s_m_source_file>
/data/baiqing/PycharmProjects/Reinvent-master-3.2/result/LINK_invent/BTK/process_docking_weight1_custom_sum_contain_oxygen_bond_distance_aromatic_linkinvent_7_9_3/rearranged_h_0193.sdf

> <i_m_source_file_index>
11

> <r_mmod_Potential_Energy-OPLS-2005>
1776.67053222656

> <r_mmod_Stretch_Energy-OPLS-2005>
763.955932617188

> <r_mmod_Bend_Energy-OPLS-2005>
611.946838378906

> <r_mmod_Torsional_Energy-OPLS-2005>
330.297088623047

> <r_mmod_Improper_Torsional_Energy-OPLS-2005>
6.87630033493042

> <r_mmod_Van_der_Waal_Energy-OPLS-2005>
102.389404296875

> <r_mmod_Electrostatic_Energy-OPLS-2005>
-211.423980712891

> <r_mmod_Solvation_Energy-OPLS-2005>
-465.708312988281

> <b_mmod_Minimization_Converged-OPLS-2005>
0

> <r_mmod_RMS_Derivative-OPLS-2005>
1.93620300292969

$$$$
11
                    3D
 Structure written by MMmdl.
160169  0  0  1  0            999 V2000
  -30.7583  -14.3501   20.6648 C   0  0  0  0  0  0
  -30.4154  -12.2704   19.3879 C   0  0  0  0  0  0
  -29.4888  -12.5414   18.1874 C   0  0  0  0  0  0
  -28.0092  -12.3997   18.5986 C   0  0  0  0  0  0
  -27.6704  -13.2002   19.8829 C   0  0  2  0  0  0
  -28.7091  -12.9148   20.9923 C   0  0  0  0  0  0
  -25.2612  -13.8146   20.5659 C   0  0  0  0  0  0
  -24.1833  -13.0441   20.9130 C   0  0  0  0  0  0
  -24.6384  -11.6907   20.8681 C   0  0  0  0  0  0
  -23.9040  -10.4298   21.0363 C   0  0  0  0  0  0
  -24.3601   -9.4221   21.9144 C   0  0  0  0  0  0
  -23.6283   -8.2251   22.0730 C   0  0  0  0  0  0
  -22.4257   -8.0282   21.3535 C   0  0  0  0  0  0
  -21.9885   -9.0248   20.4635 C   0  0  0  0  0  0
  -22.7206  -10.2127   20.3017 C   0  0  0  0  0  0
  -21.6861   -6.0718   22.5278 C   0  0  0  0  0  0
  -21.4024   -6.5619   23.8220 C   0  0  0  0  0  0
  -21.3662   -5.6768   24.9175 C   0  0  0  0  0  0
  -21.6043   -4.3025   24.7234 C   0  0  0  0  0  0
  -21.8819   -3.8125   23.4350 C   0  0  0  0  0  0
  -21.9200   -4.6946   22.3409 C   0  0  0  0  0  0
  -22.7863  -13.5261   21.1809 C   0  0  0  0  0  0
  -22.1665   -4.2139   21.0987 F   0  0  0  0  0  0
  -21.5628   -3.4510   25.7740 F   0  0  0  0  0  0
  -30.0560  -13.2053   20.4623 N   0  0  0  0  0  0
  -26.3060  -12.9321   20.3362 N   0  0  0  0  0  0
  -25.9306  -11.6475   20.5694 N   0  0  0  0  0  0
  -22.0500  -12.8273   22.0374 N   0  0  0  0  0  0
  -25.4352  -15.1871   20.4119 N   0  0  0  0  0  0
  -31.7641  -14.6526   20.0193 O   0  0  0  0  0  0
  -21.6636   -6.8868   21.4244 O   0  0  0  0  0  0
  -22.3556  -14.5576   20.6666 O   0  0  0  0  0  0
  -24.6133  -31.8715   23.2136 C   0  0  0  0  0  0
  -25.9029  -32.4844   23.8417 C   0  0  1  0  0  0
  -27.2371  -27.4665   20.0531 C   0  0  0  0  0  0
  -25.5898  -33.8644   24.2350 N   0  0  0  0  0  0
  -23.3986  -30.4980   21.5556 C   0  0  2  0  0  0
  -24.8398  -28.9661   20.1180 C   0  0  0  0  0  0
  -22.7399  -29.4683   22.5016 C   0  0  0  0  0  0
  -18.0274  -28.1361   22.8499 C   0  0  0  0  0  0
  -24.1478  -36.7308   23.2633 C   0  0  0  0  0  0
  -25.9281  -30.8371   21.3692 C   0  0  0  0  0  0
  -26.0005  -29.4749   20.7123 C   0  0  0  0  0  0
  -27.1971  -28.7262   20.6895 C   0  0  0  0  0  0
  -26.0469  -26.9567   19.4810 C   0  0  0  0  0  0
  -24.8538  -27.6999   19.5118 C   0  0  0  0  0  0
  -23.6047  -29.8343   20.1692 C   0  0  0  0  0  0
  -25.4097  -36.3132   24.0355 C   0  0  1  0  0  0
  -20.5863  -28.3655   23.1318 C   0  0  2  0  0  0
  -20.6760  -26.9394   22.5414 C   0  0  0  0  0  0
  -19.5741  -26.6388   21.5206 C   0  0  0  0  0  0
  -18.1918  -26.7913   22.1616 C   0  0  0  0  0  0
  -19.1519  -28.8822   23.2906 C   0  0  0  0  0  0
  -18.9456  -30.1428   23.8916 C   0  0  0  0  0  0
  -17.6461  -30.6576   24.0566 C   0  0  0  0  0  0
  -25.9036  -34.9493   23.5150 C   0  0  0  0  0  0
  -16.5352  -29.9076   23.6318 C   0  0  0  0  0  0
  -16.7264  -28.6493   23.0355 C   0  0  0  0  0  0
  -26.4458  -31.6621   25.0746 C   0  0  0  0  0  0
  -25.3726  -31.3744   26.1509 C   0  0  0  0  0  0
  -27.0282  -30.3059   24.6126 C   0  0  0  0  0  0
  -27.6049  -32.4332   25.7496 C   0  0  0  0  0  0
  -27.5602  -37.1784   24.8450 C   0  0  0  0  0  0
  -21.4135  -29.3035   22.3738 N   0  0  0  0  0  0
  -26.4278  -37.3822   23.9452 N   0  0  0  0  0  0
  -24.6648  -31.0830   22.1039 N   0  0  0  0  0  0
  -23.4183  -28.8219   23.3042 O   0  0  0  0  0  0
  -28.4300  -26.7761   20.0250 O   0  0  0  0  0  0
  -26.5595  -34.8940   22.4709 O   0  0  0  0  0  0
  -23.5330  -32.1469   23.7536 O   0  0  0  0  0  0
  -30.1737  -22.1178   21.3466 C   0  0  0  0  0  0
  -31.4977  -22.5721   19.4230 C   0  0  0  0  0  0
  -30.5079  -23.0243   20.3223 C   0  0  0  0  0  0
  -31.6578  -20.5753   20.5355 C   0  0  0  0  0  0
  -30.3935  -17.5707   20.8136 C   0  0  0  0  0  0
  -32.0321  -17.0278   21.9368 C   0  0  0  0  0  0
  -30.5736  -16.5509   21.9370 C   0  0  2  0  0  0
  -32.3067  -19.2002   20.6639 C   0  0  0  0  0  0
  -29.9914  -25.1666   19.1033 C   0  0  0  0  0  0
  -28.6892  -25.9516   18.8855 C   0  0  0  0  0  0
  -30.7457  -20.9034   21.4509 N   0  0  0  0  0  0
  -32.0597  -21.3521   19.5320 N   0  0  0  0  0  0
  -29.8670  -24.2771   20.2562 N   0  0  0  0  0  0
  -30.2580  -15.1504   21.6166 N   0  0  0  0  0  0
  -31.4671  -18.3120   21.4918 N   0  3  1  0  0  0
  -31.4612  -12.3587   19.0894 H   0  0  0  0  0  0
  -30.2929  -11.2417   19.7346 H   0  0  0  0  0  0
  -29.7188  -11.8608   17.3662 H   0  0  0  0  0  0
  -29.6726  -13.5478   17.8055 H   0  0  0  0  0  0
  -27.7982  -11.3418   18.7545 H   0  0  0  0  0  0
  -27.3629  -12.7206   17.7818 H   0  0  0  0  0  0
  -27.7367  -14.2575   19.6292 H   0  0  0  0  0  0
  -28.6600  -11.8634   21.2829 H   0  0  0  0  0  0
  -28.4608  -13.4660   21.8989 H   0  0  0  0  0  0
  -25.2763   -9.5691   22.4689 H   0  0  0  0  0  0
  -24.0010   -7.4642   22.7427 H   0  0  0  0  0  0
  -21.0817   -8.8746   19.8946 H   0  0  0  0  0  0
  -22.3667  -10.9638   19.6091 H   0  0  0  0  0  0
  -21.2015   -7.6122   23.9713 H   0  0  0  0  0  0
  -21.1472   -6.0491   25.9081 H   0  0  0  0  0  0
  -22.0596   -2.7587   23.2845 H   0  0  0  0  0  0
  -22.4156  -11.9988   22.4829 H   0  0  0  0  0  0
  -21.1088  -13.1251   22.2512 H   0  0  0  0  0  0
  -24.6696  -15.8422   20.5263 H   0  0  0  0  0  0
  -26.2987  -15.6329   20.1270 H   0  0  0  0  0  0
  -26.7099  -32.5542   23.1180 H   0  0  0  0  0  0
  -25.0078  -33.9799   25.0520 H   0  0  0  0  0  0
  -22.6867  -31.3155   21.4202 H   0  0  0  0  0  0
  -23.3775  -35.9600   23.3259 H   0  0  0  0  0  0
  -24.3596  -36.8953   22.2056 H   0  0  0  0  0  0
  -23.7167  -37.6483   23.6650 H   0  0  0  0  0  0
  -26.0473  -31.6068   20.6051 H   0  0  0  0  0  0
  -26.8129  -30.8803   21.9927 H   0  0  0  0  0  0
  -28.0952  -29.1244   21.1408 H   0  0  0  0  0  0
  -26.0033  -25.9842   19.0172 H   0  0  0  0  0  0
  -23.9554  -27.2930   19.0680 H   0  0  0  0  0  0
  -23.7158  -30.6116   19.4127 H   0  0  0  0  0  0
  -22.7274  -29.2588   19.8711 H   0  0  0  0  0  0
  -25.1251  -36.2005   25.0845 H   0  0  0  0  0  0
  -20.9948  -28.3206   24.1440 H   0  0  0  0  0  0
  -20.5660  -26.2265   23.3601 H   0  0  0  0  0  0
  -21.6630  -26.7427   22.1210 H   0  0  0  0  0  0
  -19.6903  -25.6303   21.1226 H   0  0  0  0  0  0
  -19.6678  -27.3211   20.6742 H   0  0  0  0  0  0
  -17.4194  -26.6674   21.4009 H   0  0  0  0  0  0
  -18.0314  -26.0039   22.8996 H   0  0  0  0  0  0
  -19.7940  -30.7228   24.2298 H   0  0  0  0  0  0
  -17.5027  -31.6257   24.5165 H   0  0  0  0  0  0
  -15.5350  -30.2991   23.7625 H   0  0  0  0  0  0
  -15.8667  -28.0809   22.7062 H   0  0  0  0  0  0
  -24.5884  -30.7102   25.7873 H   0  0  0  0  0  0
  -24.8921  -32.2901   26.4955 H   0  0  0  0  0  0
  -25.8079  -30.8929   27.0270 H   0  0  0  0  0  0
  -26.2827  -29.6849   24.1147 H   0  0  0  0  0  0
  -27.4020  -29.7278   25.4587 H   0  0  0  0  0  0
  -27.8676  -30.4386   23.9297 H   0  0  0  0  0  0
  -27.2681  -33.3621   26.2101 H   0  0  0  0  0  0
  -28.3820  -32.6910   25.0294 H   0  0  0  0  0  0
  -28.0750  -31.8443   26.5379 H   0  0  0  0  0  0
  -28.2548  -38.0156   24.7631 H   0  0  0  0  0  0
  -28.1162  -36.2697   24.6080 H   0  0  0  0  0  0
  -27.2353  -37.1216   25.8855 H   0  0  0  0  0  0
  -20.9301  -29.8763   21.6961 H   0  0  0  0  0  0
  -26.0177  -38.2891   24.1518 H   0  0  0  0  0  0
  -29.4303  -22.3633   22.0907 H   0  0  0  0  0  0
  -31.8501  -23.1856   18.6072 H   0  0  0  0  0  0
  -29.4330  -18.0887   20.8156 H   0  0  0  0  0  0
  -30.6657  -17.2114   19.8189 H   0  0  0  0  0  0
  -32.6961  -16.5830   21.1948 H   0  0  0  0  0  0
  -32.4991  -17.0671   22.9206 H   0  0  0  0  0  0
  -30.0565  -16.8717   22.8456 H   0  0  0  0  0  0
  -33.2672  -19.3380   21.1579 H   0  0  0  0  0  0
  -32.5016  -18.7661   19.6837 H   0  0  0  0  0  0
  -30.8264  -25.8547   19.2506 H   0  0  0  0  0  0
  -30.1942  -24.6017   18.1920 H   0  0  0  0  0  0
  -27.8981  -25.2289   18.6916 H   0  0  0  0  0  0
  -28.7787  -26.5809   17.9977 H   0  0  0  0  0  0
  -29.1452  -24.5154   20.9370 H   0  0  0  0  0  0
  -29.4739  -14.7513   22.1132 H   0  0  0  0  0  0
  -31.0861  -18.8751   22.2393 H   0  0  0  0  0  0
  1 25  1  0  0  0
  1 30  2  0  0  0
  1 84  1  0  0  0
  2  3  1  0  0  0
  2 25  1  0  0  0
  2 86  1  0  0  0
  2 87  1  0  0  0
  3  4  1  0  0  0
  3 88  1  0  0  0
  3 89  1  0  0  0
  4  5  1  0  0  0
  4 90  1  0  0  0
  4 91  1  0  0  0
  5  6  1  0  0  0
  5 26  1  0  0  0
  5 92  1  0  0  0
  6 25  1  0  0  0
  6 93  1  0  0  0
  6 94  1  0  0  0
  7  8  2  0  0  0
  7 26  1  0  0  0
  7 29  1  0  0  0
  8  9  1  0  0  0
  8 22  1  0  0  0
  9 10  1  0  0  0
  9 27  2  0  0  0
 10 11  2  0  0  0
 10 15  1  0  0  0
 11 12  1  0  0  0
 11 95  1  0  0  0
 12 13  2  0  0  0
 12 96  1  0  0  0
 13 14  1  0  0  0
 13 31  1  0  0  0
 14 15  2  0  0  0
 14 97  1  0  0  0
 15 98  1  0  0  0
 16 17  2  0  0  0
 16 21  1  0  0  0
 16 31  1  0  0  0
 17 18  1  0  0  0
 17 99  1  0  0  0
 18 19  2  0  0  0
 18100  1  0  0  0
 19 20  1  0  0  0
 19 24  1  0  0  0
 20 21  2  0  0  0
 20101  1  0  0  0
 21 23  1  0  0  0
 22 28  1  0  0  0
 22 32  2  0  0  0
 26 27  1  0  0  0
 28102  1  0  0  0
 28103  1  0  0  0
 29104  1  0  0  0
 29105  1  0  0  0
 33 34  1  0  0  0
 33 66  1  0  0  0
 33 70  2  0  0  0
 34 36  1  0  0  0
 34 59  1  0  0  0
 34106  1  0  0  0
 35 44  2  0  0  0
 35 45  1  0  0  0
 35 68  1  0  0  0
 36 56  1  0  0  0
 36107  1  0  0  0
 37 39  1  0  0  0
 37 47  1  0  0  0
 37 66  1  0  0  0
 37108  1  0  0  0
 38 43  2  0  0  0
 38 46  1  0  0  0
 38 47  1  0  0  0
 39 64  1  0  0  0
 39 67  2  0  0  0
 40 52  1  0  0  0
 40 53  2  0  0  0
 40 58  1  0  0  0
 41109  1  0  0  0
 41110  1  0  0  0
 41111  1  0  0  0
 41 48  1  0  0  0
 42 43  1  0  0  0
 42 66  1  0  0  0
 42112  1  0  0  0
 42113  1  0  0  0
 43 44  1  0  0  0
 44114  1  0  0  0
 45 46  2  0  0  0
 45115  1  0  0  0
 46116  1  0  0  0
 47117  1  0  0  0
 47118  1  0  0  0
 48 56  1  0  0  0
 48 65  1  0  0  0
 48119  1  0  0  0
 49 50  1  0  0  0
 49 53  1  0  0  0
 49 64  1  0  0  0
 49120  1  0  0  0
 50 51  1  0  0  0
 50121  1  0  0  0
 50122  1  0  0  0
 51 52  1  0  0  0
 51123  1  0  0  0
 51124  1  0  0  0
 52125  1  0  0  0
 52126  1  0  0  0
 53 54  1  0  0  0
 54 55  2  0  0  0
 54127  1  0  0  0
 55 57  1  0  0  0
 55128  1  0  0  0
 56 69  2  0  0  0
 57 58  2  0  0  0
 57129  1  0  0  0
 58130  1  0  0  0
 59 60  1  0  0  0
 59 61  1  0  0  0
 59 62  1  0  0  0
 60131  1  0  0  0
 60132  1  0  0  0
 60133  1  0  0  0
 61134  1  0  0  0
 61135  1  0  0  0
 61136  1  0  0  0
 62137  1  0  0  0
 62138  1  0  0  0
 62139  1  0  0  0
 63 65  1  0  0  0
 63140  1  0  0  0
 63141  1  0  0  0
 63142  1  0  0  0
 64143  1  0  0  0
 65144  1  0  0  0
 68 80  1  0  0  0
 71 73  2  0  0  0
 71 81  1  0  0  0
 71145  1  0  0  0
 72 73  1  0  0  0
 72 82  2  0  0  0
 72146  1  0  0  0
 73 83  1  0  0  0
 74 78  1  0  0  0
 74 81  2  0  0  0
 74 82  1  0  0  0
 75 77  1  0  0  0
 75 85  1  0  0  0
 75147  1  0  0  0
 75148  1  0  0  0
 76 77  1  0  0  0
 76 85  1  0  0  0
 76149  1  0  0  0
 76150  1  0  0  0
 77 84  1  0  0  0
 77151  1  0  0  0
 78152  1  0  0  0
 78153  1  0  0  0
 78 85  1  0  0  0
 79 80  1  0  0  0
 79 83  1  0  0  0
 79154  1  0  0  0
 79155  1  0  0  0
 80156  1  0  0  0
 80157  1  0  0  0
 83158  1  0  0  0
 84159  1  0  0  0
 85160  1  0  0  0
M  CHG  1  85   1
M  ISO  4   1 100  68 101  80 101  84 100
M  END
> <chiral flag>
0

> <version>
0

> <s_m_source_file>
/data/baiqing/PycharmProjects/Reinvent-master-3.2/result/LINK_invent/BTK/process_docking_weight1_custom_sum_contain_oxygen_bond_distance_aromatic_linkinvent_7_9_3/rearranged_h_0193.sdf

> <i_m_source_file_index>
12

> <r_mmod_Potential_Energy-OPLS-2005>
-546.070068359375

> <r_mmod_Stretch_Energy-OPLS-2005>
34.0803871154785

> <r_mmod_Bend_Energy-OPLS-2005>
147.801040649414

> <r_mmod_Torsional_Energy-OPLS-2005>
225.206085205078

> <r_mmod_Improper_Torsional_Energy-OPLS-2005>
2.37899708747864

> <r_mmod_Van_der_Waal_Energy-OPLS-2005>
177.502960205078

> <r_mmod_Electrostatic_Energy-OPLS-2005>
-670.616333007812

> <r_mmod_Solvation_Energy-OPLS-2005>
-470.431701660156

> <b_mmod_Minimization_Converged-OPLS-2005>
0

> <r_mmod_RMS_Derivative-OPLS-2005>
2.47512245178223

$$$$
12
                    3D
 Structure written by MMmdl.
171180  0  0  1  0            999 V2000
  -30.7000  -14.4415   20.5106 C   0  0  0  0  0  0
  -30.4205  -12.2655   19.4197 C   0  0  0  0  0  0
  -29.4930  -12.4774   18.2045 C   0  0  0  0  0  0
  -28.0114  -12.3556   18.6182 C   0  0  0  0  0  0
  -27.6580  -13.1964   19.8747 C   0  0  2  0  0  0
  -28.7064  -12.9936   20.9941 C   0  0  0  0  0  0
  -25.2594  -13.8123   20.5709 C   0  0  0  0  0  0
  -24.1843  -13.0415   20.9214 C   0  0  0  0  0  0
  -24.6380  -11.6878   20.8760 C   0  0  0  0  0  0
  -23.9046  -10.4279   21.0418 C   0  0  0  0  0  0
  -24.3608   -9.4197   21.9193 C   0  0  0  0  0  0
  -23.6282   -8.2227   22.0758 C   0  0  0  0  0  0
  -22.4272   -8.0269   21.3543 C   0  0  0  0  0  0
  -21.9898   -9.0247   20.4650 C   0  0  0  0  0  0
  -22.7223  -10.2126   20.3061 C   0  0  0  0  0  0
  -21.6850   -6.0740   22.5278 C   0  0  0  0  0  0
  -21.4004   -6.5642   23.8213 C   0  0  0  0  0  0
  -21.3655   -5.6792   24.9176 C   0  0  0  0  0  0
  -21.6042   -4.3057   24.7226 C   0  0  0  0  0  0
  -21.8814   -3.8153   23.4347 C   0  0  0  0  0  0
  -21.9179   -4.6970   22.3404 C   0  0  0  0  0  0
  -22.7862  -13.5218   21.1853 C   0  0  0  0  0  0
  -22.1647   -4.2161   21.0980 F   0  0  0  0  0  0
  -21.5640   -3.4534   25.7739 F   0  0  0  0  0  0
  -30.0383  -13.2602   20.4286 N   0  0  0  0  0  0
  -26.3011  -12.9262   20.3389 N   0  0  0  0  0  0
  -25.9309  -11.6437   20.5807 N   0  0  0  0  0  0
  -22.0483  -12.8238   22.0404 N   0  0  0  0  0  0
  -25.4315  -15.1830   20.4068 N   0  0  0  0  0  0
  -31.8898  -14.5794   20.2119 O   0  0  0  0  0  0
  -21.6620   -6.8878   21.4241 O   0  0  0  0  0  0
  -22.3572  -14.5537   20.6695 O   0  0  0  0  0  0
  -24.6116  -31.8705   23.2145 C   0  0  0  0  0  0
  -25.9014  -32.4848   23.8433 C   0  0  1  0  0  0
  -27.2419  -27.4634   20.0837 C   0  0  0  0  0  0
  -25.5879  -33.8643   24.2353 N   0  0  0  0  0  0
  -23.3985  -30.4955   21.5538 C   0  0  2  0  0  0
  -24.8446  -28.9666   20.1184 C   0  0  0  0  0  0
  -22.7389  -29.4667   22.5000 C   0  0  0  0  0  0
  -18.0270  -28.1365   22.8501 C   0  0  0  0  0  0
  -24.1478  -36.7318   23.2637 C   0  0  0  0  0  0
  -25.9251  -30.8439   21.3658 C   0  0  0  0  0  0
  -26.0021  -29.4788   20.7154 C   0  0  0  0  0  0
  -27.1990  -28.7319   20.7020 C   0  0  0  0  0  0
  -26.0580  -26.9569   19.4914 C   0  0  0  0  0  0
  -24.8654  -27.7023   19.5082 C   0  0  0  0  0  0
  -23.6063  -29.8308   20.1677 C   0  0  0  0  0  0
  -25.4093  -36.3125   24.0351 C   0  0  1  0  0  0
  -20.5856  -28.3652   23.1325 C   0  0  2  0  0  0
  -20.6757  -26.9388   22.5425 C   0  0  0  0  0  0
  -19.5740  -26.6382   21.5216 C   0  0  0  0  0  0
  -18.1915  -26.7919   22.1617 C   0  0  0  0  0  0
  -19.1516  -28.8826   23.2912 C   0  0  0  0  0  0
  -18.9445  -30.1434   23.8924 C   0  0  0  0  0  0
  -17.6445  -30.6580   24.0568 C   0  0  0  0  0  0
  -25.9027  -34.9487   23.5150 C   0  0  0  0  0  0
  -16.5339  -29.9085   23.6324 C   0  0  0  0  0  0
  -16.7258  -28.6493   23.0357 C   0  0  0  0  0  0
  -26.4461  -31.6614   25.0737 C   0  0  0  0  0  0
  -25.3751  -31.3695   26.1507 C   0  0  0  0  0  0
  -27.0291  -30.3064   24.6087 C   0  0  0  0  0  0
  -27.6062  -32.4323   25.7470 C   0  0  0  0  0  0
  -27.5594  -37.1785   24.8445 C   0  0  0  0  0  0
  -21.4117  -29.3027   22.3736 N   0  0  0  0  0  0
  -26.4272  -37.3815   23.9441 N   0  0  0  0  0  0
  -24.6632  -31.0835   22.1032 N   0  0  0  0  0  0
  -23.4169  -28.8211   23.3035 O   0  0  0  0  0  0
  -28.4425  -26.7823   20.0833 O   0  0  0  0  0  0
  -26.5586  -34.8934   22.4714 O   0  0  0  0  0  0
  -23.5319  -32.1439   23.7559 O   0  0  0  0  0  0
  -29.5121  -17.6455   19.3855 C   0  0  0  0  0  0
  -29.1563  -21.0788   22.4155 C   0  0  0  0  0  0
  -29.3620  -20.7170   19.9713 C   0  0  0  0  0  0
  -29.8114  -16.1861   19.0836 C   0  0  0  0  0  0
  -29.9084  -22.4142   22.2166 C   0  0  0  0  0  0
  -30.2239  -21.9767   19.9124 C   0  0  0  0  0  0
  -29.5803  -16.4580   21.4544 C   0  0  0  0  0  0
  -29.4944  -20.0131   21.3435 C   0  0  0  0  0  0
  -28.8126  -17.5777   20.7376 C   0  0  1  0  0  0
  -30.2828  -24.2763   20.7326 C   0  0  0  0  0  0
  -28.5195  -25.5682   19.3400 C   0  0  0  0  0  0
  -29.9458  -24.9908   19.3922 C   0  0  1  0  0  0
  -29.8752  -15.4986   20.3823 N   0  0  0  0  0  0
  -29.6764  -22.9453   20.8644 N   0  0  0  0  0  0
  -30.9532  -26.0208   19.0645 N   0  3  0  0  0  0
  -28.5877  -18.8401   21.5015 N   0  3  0  0  0  0
  -31.4668  -12.3539   19.1205 H   0  0  0  0  0  0
  -30.3056  -11.2576   19.8212 H   0  0  0  0  0  0
  -29.7182  -11.7470   17.4258 H   0  0  0  0  0  0
  -29.6761  -13.4579   17.7635 H   0  0  0  0  0  0
  -27.8116  -11.3008   18.8129 H   0  0  0  0  0  0
  -27.3633  -12.6354   17.7866 H   0  0  0  0  0  0
  -27.6833  -14.2386   19.5667 H   0  0  0  0  0  0
  -28.6651  -11.9730   21.3774 H   0  0  0  0  0  0
  -28.4977  -13.6456   21.8435 H   0  0  0  0  0  0
  -25.2748   -9.5666   22.4777 H   0  0  0  0  0  0
  -23.9990   -7.4611   22.7474 H   0  0  0  0  0  0
  -21.0829   -8.8756   19.8963 H   0  0  0  0  0  0
  -22.3675  -10.9668   19.6173 H   0  0  0  0  0  0
  -21.1995   -7.6145   23.9725 H   0  0  0  0  0  0
  -21.1480   -6.0524   25.9080 H   0  0  0  0  0  0
  -22.0601   -2.7616   23.2843 H   0  0  0  0  0  0
  -22.4062  -11.9886   22.4791 H   0  0  0  0  0  0
  -21.1113  -13.1305   22.2614 H   0  0  0  0  0  0
  -24.6492  -15.8260   20.4791 H   0  0  0  0  0  0
  -26.2574  -15.6010   20.0022 H   0  0  0  0  0  0
  -26.7078  -32.5568   23.1201 H   0  0  0  0  0  0
  -25.0038  -33.9812   25.0506 H   0  0  0  0  0  0
  -22.6866  -31.3127   21.4165 H   0  0  0  0  0  0
  -23.3763  -35.9625   23.3259 H   0  0  0  0  0  0
  -24.3594  -36.8969   22.2059 H   0  0  0  0  0  0
  -23.7190  -37.6498   23.6669 H   0  0  0  0  0  0
  -26.0341  -31.6109   20.5985 H   0  0  0  0  0  0
  -26.8145  -30.8977   21.9823 H   0  0  0  0  0  0
  -28.0951  -29.1308   21.1564 H   0  0  0  0  0  0
  -26.0240  -25.9933   19.0069 H   0  0  0  0  0  0
  -23.9728  -27.3011   19.0481 H   0  0  0  0  0  0
  -23.7157  -30.6083   19.4101 H   0  0  0  0  0  0
  -22.7319  -29.2504   19.8694 H   0  0  0  0  0  0
  -25.1260  -36.1994   25.0843 H   0  0  0  0  0  0
  -20.9952  -28.3216   24.1442 H   0  0  0  0  0  0
  -20.5658  -26.2256   23.3607 H   0  0  0  0  0  0
  -21.6629  -26.7433   22.1217 H   0  0  0  0  0  0
  -19.6903  -25.6303   21.1225 H   0  0  0  0  0  0
  -19.6695  -27.3216   20.6761 H   0  0  0  0  0  0
  -17.4195  -26.6698   21.4003 H   0  0  0  0  0  0
  -18.0297  -26.0042   22.8987 H   0  0  0  0  0  0
  -19.7918  -30.7245   24.2305 H   0  0  0  0  0  0
  -17.5000  -31.6265   24.5160 H   0  0  0  0  0  0
  -15.5339  -30.2999   23.7630 H   0  0  0  0  0  0
  -15.8653  -28.0823   22.7067 H   0  0  0  0  0  0
  -24.5938  -30.7017   25.7852 H   0  0  0  0  0  0
  -24.8927  -32.2839   26.4973 H   0  0  0  0  0  0
  -25.8140  -30.8867   27.0250 H   0  0  0  0  0  0
  -26.2813  -29.6805   24.1200 H   0  0  0  0  0  0
  -27.4132  -29.7316   25.4525 H   0  0  0  0  0  0
  -27.8620  -30.4392   23.9179 H   0  0  0  0  0  0
  -27.2714  -33.3625   26.2075 H   0  0  0  0  0  0
  -28.3850  -32.6879   25.0266 H   0  0  0  0  0  0
  -28.0760  -31.8425   26.5354 H   0  0  0  0  0  0
  -28.2547  -38.0146   24.7620 H   0  0  0  0  0  0
  -28.1156  -36.2697   24.6104 H   0  0  0  0  0  0
  -27.2343  -37.1234   25.8846 H   0  0  0  0  0  0
  -20.9267  -29.8749   21.6968 H   0  0  0  0  0  0
  -26.0167  -38.2878   24.1530 H   0  0  0  0  0  0
  -28.9085  -18.1070   18.6032 H   0  0  0  0  0  0
  -30.4700  -18.1613   19.4638 H   0  0  0  0  0  0
  -28.0846  -21.2876   22.4073 H   0  0  0  0  0  0
  -29.3778  -20.6896   23.4104 H   0  0  0  0  0  0
  -29.6913  -20.1100   19.1384 H   0  0  0  0  0  0
  -28.3207  -20.9704   19.7651 H   0  0  0  0  0  0
  -30.7278  -16.0952   18.4963 H   0  0  0  0  0  0
  -29.0110  -15.7516   18.4844 H   0  0  0  0  0  0
  -30.9766  -22.2787   22.4012 H   0  0  0  0  0  0
  -29.5516  -23.1289   22.9598 H   0  0  0  0  0  0
  -30.1918  -22.3269   18.8835 H   0  0  0  0  0  0
  -31.2711  -21.7508   20.1280 H   0  0  0  0  0  0
  -28.9870  -16.0011   22.2474 H   0  0  0  0  0  0
  -30.5114  -16.8271   21.8891 H   0  0  0  0  0  0
  -30.5247  -19.6812   21.4886 H   0  0  0  0  0  0
  -27.8076  -17.1893   20.5602 H   0  0  0  0  0  0
  -29.9544  -24.9118   21.5581 H   0  0  0  0  0  0
  -31.3635  -24.1691   20.8416 H   0  0  0  0  0  0
  -27.8169  -24.8333   19.7365 H   0  0  0  0  0  0
  -28.2468  -25.7587   18.3009 H   0  0  0  0  0  0
  -30.0171  -24.2946   18.5617 H   0  0  0  0  0  0
  -30.9174  -26.7755   19.7287 H   0  0  0  0  0  0
  -30.7884  -26.4035   18.1497 H   0  0  0  0  0  0
  -31.8797  -25.6302   19.0708 H   0  0  0  0  0  0
  -27.6571  -19.1541   21.2740 H   0  0  0  0  0  0
  -28.5630  -18.5915   22.4781 H   0  0  0  0  0  0
  1 25  1  0  0  0
  1 30  2  0  0  0
  1 83  1  0  0  0
  2  3  1  0  0  0
  2 25  1  0  0  0
  2 87  1  0  0  0
  2 88  1  0  0  0
  3  4  1  0  0  0
  3 89  1  0  0  0
  3 90  1  0  0  0
  4  5  1  0  0  0
  4 91  1  0  0  0
  4 92  1  0  0  0
  5  6  1  0  0  0
  5 26  1  0  0  0
  5 93  1  0  0  0
  6 25  1  0  0  0
  6 94  1  0  0  0
  6 95  1  0  0  0
  7  8  2  0  0  0
  7 26  1  0  0  0
  7 29  1  0  0  0
  8  9  1  0  0  0
  8 22  1  0  0  0
  9 10  1  0  0  0
  9 27  2  0  0  0
 10 11  2  0  0  0
 10 15  1  0  0  0
 11 12  1  0  0  0
 11 96  1  0  0  0
 12 13  2  0  0  0
 12 97  1  0  0  0
 13 14  1  0  0  0
 13 31  1  0  0  0
 14 15  2  0  0  0
 14 98  1  0  0  0
 15 99  1  0  0  0
 16 17  2  0  0  0
 16 21  1  0  0  0
 16 31  1  0  0  0
 17 18  1  0  0  0
 17100  1  0  0  0
 18 19  2  0  0  0
 18101  1  0  0  0
 19 20  1  0  0  0
 19 24  1  0  0  0
 20 21  2  0  0  0
 20102  1  0  0  0
 21 23  1  0  0  0
 22 28  1  0  0  0
 22 32  2  0  0  0
 26 27  1  0  0  0
 28103  1  0  0  0
 28104  1  0  0  0
 29105  1  0  0  0
 29106  1  0  0  0
 33 34  1  0  0  0
 33 66  1  0  0  0
 33 70  2  0  0  0
 34 36  1  0  0  0
 34 59  1  0  0  0
 34107  1  0  0  0
 35 44  2  0  0  0
 35 45  1  0  0  0
 35 68  1  0  0  0
 36 56  1  0  0  0
 36108  1  0  0  0
 37 39  1  0  0  0
 37 47  1  0  0  0
 37 66  1  0  0  0
 37109  1  0  0  0
 38 43  2  0  0  0
 38 46  1  0  0  0
 38 47  1  0  0  0
 39 64  1  0  0  0
 39 67  2  0  0  0
 40 52  1  0  0  0
 40 53  2  0  0  0
 40 58  1  0  0  0
 41110  1  0  0  0
 41111  1  0  0  0
 41112  1  0  0  0
 41 48  1  0  0  0
 42 43  1  0  0  0
 42 66  1  0  0  0
 42113  1  0  0  0
 42114  1  0  0  0
 43 44  1  0  0  0
 44115  1  0  0  0
 45 46  2  0  0  0
 45116  1  0  0  0
 46117  1  0  0  0
 47118  1  0  0  0
 47119  1  0  0  0
 48 56  1  0  0  0
 48 65  1  0  0  0
 48120  1  0  0  0
 49 50  1  0  0  0
 49 53  1  0  0  0
 49 64  1  0  0  0
 49121  1  0  0  0
 50 51  1  0  0  0
 50122  1  0  0  0
 50123  1  0  0  0
 51 52  1  0  0  0
 51124  1  0  0  0
 51125  1  0  0  0
 52126  1  0  0  0
 52127  1  0  0  0
 53 54  1  0  0  0
 54 55  2  0  0  0
 54128  1  0  0  0
 55 57  1  0  0  0
 55129  1  0  0  0
 56 69  2  0  0  0
 57 58  2  0  0  0
 57130  1  0  0  0
 58131  1  0  0  0
 59 60  1  0  0  0
 59 61  1  0  0  0
 59 62  1  0  0  0
 60132  1  0  0  0
 60133  1  0  0  0
 60134  1  0  0  0
 61135  1  0  0  0
 61136  1  0  0  0
 61137  1  0  0  0
 62138  1  0  0  0
 62139  1  0  0  0
 62140  1  0  0  0
 63 65  1  0  0  0
 63141  1  0  0  0
 63142  1  0  0  0
 63143  1  0  0  0
 64144  1  0  0  0
 65145  1  0  0  0
 68 81  1  0  0  0
 71 74  1  0  0  0
 71 79  1  0  0  0
 71146  1  0  0  0
 71147  1  0  0  0
 72 75  1  0  0  0
 72 78  1  0  0  0
 72148  1  0  0  0
 72149  1  0  0  0
 73 76  1  0  0  0
 73 78  1  0  0  0
 73150  1  0  0  0
 73151  1  0  0  0
 74 83  1  0  0  0
 74152  1  0  0  0
 74153  1  0  0  0
 75 84  1  0  0  0
 75154  1  0  0  0
 75155  1  0  0  0
 76 84  1  0  0  0
 76156  1  0  0  0
 76157  1  0  0  0
 77 79  1  0  0  0
 77 83  1  0  0  0
 77158  1  0  0  0
 77159  1  0  0  0
 78 86  1  0  0  0
 78160  1  0  0  0
 79 86  1  0  0  0
 79161  1  0  0  0
 80 82  1  0  0  0
 80 84  1  0  0  0
 80162  1  0  0  0
 80163  1  0  0  0
 81 82  1  0  0  0
 81164  1  0  0  0
 81165  1  0  0  0
 82 85  1  0  0  0
 82166  1  0  0  0
 85167  1  0  0  0
 85168  1  0  0  0
 85169  1  0  0  0
 86170  1  0  0  0
 86171  1  0  0  0
M  CHG  2  85   1  86   1
M  ISO  4   1 100  68 101  81 101  83 100
M  END
> <chiral flag>
0

> <version>
0

> <s_m_source_file>
/data/baiqing/PycharmProjects/Reinvent-master-3.2/result/LINK_invent/BTK/process_docking_weight1_custom_sum_contain_oxygen_bond_distance_aromatic_linkinvent_7_9_3/rearranged_h_0193.sdf

> <i_m_source_file_index>
13

> <r_mmod_Potential_Energy-OPLS-2005>
-113.446929931641

> <r_mmod_Stretch_Energy-OPLS-2005>
36.1962776184082

> <r_mmod_Bend_Energy-OPLS-2005>
148.179000854492

> <r_mmod_Torsional_Energy-OPLS-2005>
395.444091796875

> <r_mmod_Improper_Torsional_Energy-OPLS-2005>
21.1387119293213

> <r_mmod_Van_der_Waal_Energy-OPLS-2005>
149.264785766602

> <r_mmod_Electrostatic_Energy-OPLS-2005>
10.2944135665894

> <r_mmod_Solvation_Energy-OPLS-2005>
-890.159423828125

> <b_mmod_Minimization_Converged-OPLS-2005>
0

> <r_mmod_RMS_Derivative-OPLS-2005>
1.90610373020172

$$$$
13
                    3D
 Structure written by MMmdl.
153162  0  0  1  0            999 V2000
  -30.6966  -14.7740   20.4984 C   0  0  0  0  0  0
  -30.4181  -12.4979   19.4862 C   0  0  0  0  0  0
  -29.5037  -12.5116   18.2448 C   0  0  0  0  0  0
  -28.0345  -12.3292   18.6659 C   0  0  0  0  0  0
  -27.6350  -13.2504   19.8499 C   0  0  2  0  0  0
  -28.6850  -13.2499   20.9846 C   0  0  0  0  0  0
  -25.2465  -13.8232   20.5736 C   0  0  0  0  0  0
  -24.1787  -13.0452   20.9233 C   0  0  0  0  0  0
  -24.6418  -11.6937   20.8777 C   0  0  0  0  0  0
  -23.9107  -10.4295   21.0422 C   0  0  0  0  0  0
  -24.3643   -9.4196   21.9195 C   0  0  0  0  0  0
  -23.6300   -8.2241   22.0760 C   0  0  0  0  0  0
  -22.4282   -8.0289   21.3555 C   0  0  0  0  0  0
  -21.9937   -9.0269   20.4649 C   0  0  0  0  0  0
  -22.7282  -10.2141   20.3065 C   0  0  0  0  0  0
  -21.6850   -6.0738   22.5270 C   0  0  0  0  0  0
  -21.4004   -6.5636   23.8202 C   0  0  0  0  0  0
  -21.3659   -5.6782   24.9165 C   0  0  0  0  0  0
  -21.6052   -4.3050   24.7210 C   0  0  0  0  0  0
  -21.8810   -3.8146   23.4331 C   0  0  0  0  0  0
  -21.9183   -4.6967   22.3390 C   0  0  0  0  0  0
  -22.7797  -13.5201   21.1872 C   0  0  0  0  0  0
  -22.1654   -4.2161   21.0965 F   0  0  0  0  0  0
  -21.5632   -3.4536   25.7720 F   0  0  0  0  0  0
  -29.9738  -13.6015   20.3784 N   0  0  0  0  0  0
  -26.2925  -12.9482   20.3334 N   0  0  0  0  0  0
  -25.9366  -11.6604   20.5817 N   0  0  0  0  0  0
  -22.0447  -12.8194   22.0425 N   0  0  0  0  0  0
  -25.4105  -15.1952   20.4103 N   0  0  0  0  0  0
  -31.8944  -14.7467   20.2083 O   0  0  0  0  0  0
  -21.6644   -6.8894   21.4238 O   0  0  0  0  0  0
  -22.3480  -14.5517   20.6715 O   0  0  0  0  0  0
  -24.6378  -31.8496   23.1970 C   0  0  0  0  0  0
  -25.9163  -32.4740   23.8327 C   0  0  1  0  0  0
  -27.2172  -27.2031   20.1313 C   0  0  0  0  0  0
  -25.5926  -33.8543   24.2244 N   0  0  0  0  0  0
  -23.4378  -30.4741   21.5400 C   0  0  2  0  0  0
  -24.8876  -28.9208   20.1093 C   0  0  0  0  0  0
  -22.7528  -29.4583   22.4882 C   0  0  0  0  0  0
  -18.0291  -28.1427   22.8480 C   0  0  0  0  0  0
  -24.1475  -36.7280   23.2629 C   0  0  0  0  0  0
  -25.9923  -30.7437   21.3899 C   0  0  0  0  0  0
  -26.0623  -29.3620   20.7317 C   0  0  0  0  0  0
  -27.2275  -28.5152   20.7373 C   0  0  0  0  0  0
  -26.0235  -26.8730   19.4445 C   0  0  0  0  0  0
  -24.8763  -27.6842   19.4565 C   0  0  0  0  0  0
  -23.6613  -29.8110   20.1573 C   0  0  0  0  0  0
  -25.4102  -36.3064   24.0324 C   0  0  1  0  0  0
  -20.5897  -28.3737   23.1253 C   0  0  2  0  0  0
  -20.6790  -26.9450   22.5399 C   0  0  0  0  0  0
  -19.5758  -26.6391   21.5222 C   0  0  0  0  0  0
  -18.1930  -26.7958   22.1622 C   0  0  0  0  0  0
  -19.1549  -28.8901   23.2849 C   0  0  0  0  0  0
  -18.9480  -30.1492   23.8878 C   0  0  0  0  0  0
  -17.6487  -30.6620   24.0577 C   0  0  0  0  0  0
  -25.9062  -34.9430   23.5092 C   0  0  0  0  0  0
  -16.5375  -29.9120   23.6362 C   0  0  0  0  0  0
  -16.7282  -28.6542   23.0370 C   0  0  0  0  0  0
  -26.4508  -31.6585   25.0736 C   0  0  0  0  0  0
  -25.3732  -31.3740   26.1461 C   0  0  0  0  0  0
  -27.0369  -30.2994   24.6256 C   0  0  0  0  0  0
  -27.6032  -32.4360   25.7523 C   0  0  0  0  0  0
  -27.5595  -37.1751   24.8434 C   0  0  0  0  0  0
  -21.4229  -29.3078   22.3643 N   0  0  0  0  0  0
  -26.4261  -37.3782   23.9455 N   0  0  0  0  0  0
  -24.7084  -31.0412   22.0980 N   0  0  0  0  0  0
  -23.4201  -28.8085   23.2971 O   0  0  0  0  0  0
  -28.2569  -26.2207   20.2366 O   0  0  0  0  0  0
  -26.5632  -34.8911   22.4667 O   0  0  0  0  0  0
  -23.5502  -32.1351   23.7224 O   0  0  0  0  0  0
  -28.4749  -22.8530   21.5755 C   0  0  0  0  0  0
  -28.6142  -23.3905   20.2705 C   0  0  0  0  0  0
  -29.0866  -22.3742   19.3650 C   0  0  0  0  0  0
  -29.1033  -20.6651   20.9668 C   0  0  0  0  0  0
  -30.8069  -17.3772   20.5711 C   0  0  0  0  0  0
  -28.9169  -16.7368   21.1348 C   0  0  0  0  0  0
  -29.4362  -18.1155   20.5489 C   0  0  0  0  0  0
  -29.3385  -22.6516   17.8936 C   0  0  0  0  0  0
  -27.9280  -24.7903   19.8220 C   0  0  0  0  0  0
  -28.7206  -21.5406   21.9057 N   0  0  0  0  0  0
  -29.3170  -21.0565   19.7110 N   0  0  0  0  0  0
  -30.1184  -16.0488   20.5942 N   0  0  0  0  0  0
  -29.2602  -19.3375   21.3969 O   0  0  0  0  0  0
  -31.4600  -12.5958   19.1773 H   0  0  0  0  0  0
  -30.3563  -11.5401   20.0056 H   0  0  0  0  0  0
  -29.7960  -11.7232   17.5503 H   0  0  0  0  0  0
  -29.6215  -13.4551   17.7096 H   0  0  0  0  0  0
  -27.9053  -11.2848   18.9520 H   0  0  0  0  0  0
  -27.3732  -12.4957   17.8152 H   0  0  0  0  0  0
  -27.6117  -14.2613   19.4415 H   0  0  0  0  0  0
  -28.7405  -12.2748   21.4697 H   0  0  0  0  0  0
  -28.4178  -13.9676   21.7613 H   0  0  0  0  0  0
  -25.2789   -9.5653   22.4782 H   0  0  0  0  0  0
  -24.0000   -7.4628   22.7485 H   0  0  0  0  0  0
  -21.0871   -8.8801   19.8950 H   0  0  0  0  0  0
  -22.3757  -10.9686   19.6177 H   0  0  0  0  0  0
  -21.1991   -7.6137   23.9718 H   0  0  0  0  0  0
  -21.1486   -6.0505   25.9075 H   0  0  0  0  0  0
  -22.0584   -2.7606   23.2819 H   0  0  0  0  0  0
  -22.4084  -11.9855   22.4804 H   0  0  0  0  0  0
  -21.1068  -13.1201   22.2640 H   0  0  0  0  0  0
  -24.6381  -15.8433   20.5233 H   0  0  0  0  0  0
  -26.2418  -15.6309   20.0338 H   0  0  0  0  0  0
  -26.7219  -32.5370   23.1052 H   0  0  0  0  0  0
  -25.0084  -33.9677   25.0397 H   0  0  0  0  0  0
  -22.7382  -31.2998   21.3904 H   0  0  0  0  0  0
  -23.3767  -35.9576   23.3205 H   0  0  0  0  0  0
  -24.3596  -36.9005   22.2066 H   0  0  0  0  0  0
  -23.7188  -37.6429   23.6722 H   0  0  0  0  0  0
  -26.1388  -31.5003   20.6183 H   0  0  0  0  0  0
  -26.8684  -30.7934   22.0243 H   0  0  0  0  0  0
  -28.1168  -28.8366   21.2598 H   0  0  0  0  0  0
  -25.9182  -25.9503   18.8959 H   0  0  0  0  0  0
  -23.9822  -27.3417   18.9539 H   0  0  0  0  0  0
  -23.7919  -30.5895   19.4059 H   0  0  0  0  0  0
  -22.7810  -29.2463   19.8460 H   0  0  0  0  0  0
  -25.1269  -36.1878   25.0814 H   0  0  0  0  0  0
  -20.9995  -28.3335   24.1373 H   0  0  0  0  0  0
  -20.5742  -26.2347   23.3608 H   0  0  0  0  0  0
  -21.6646  -26.7497   22.1164 H   0  0  0  0  0  0
  -19.6928  -25.6291   21.1271 H   0  0  0  0  0  0
  -19.6710  -27.3185   20.6742 H   0  0  0  0  0  0
  -17.4205  -26.6715   21.4009 H   0  0  0  0  0  0
  -18.0318  -26.0107   22.9027 H   0  0  0  0  0  0
  -19.7965  -30.7311   24.2226 H   0  0  0  0  0  0
  -17.5048  -31.6308   24.5168 H   0  0  0  0  0  0
  -15.5378  -30.3025   23.7707 H   0  0  0  0  0  0
  -15.8663  -28.0875   22.7104 H   0  0  0  0  0  0
  -24.5921  -30.7067   25.7809 H   0  0  0  0  0  0
  -24.8916  -32.2903   26.4875 H   0  0  0  0  0  0
  -25.8052  -30.8940   27.0254 H   0  0  0  0  0  0
  -26.2973  -29.6729   24.1253 H   0  0  0  0  0  0
  -27.4008  -29.7267   25.4800 H   0  0  0  0  0  0
  -27.8859  -30.4269   23.9545 H   0  0  0  0  0  0
  -27.2626  -33.3692   26.2033 H   0  0  0  0  0  0
  -28.3867  -32.6889   25.0368 H   0  0  0  0  0  0
  -28.0653  -31.8539   26.5509 H   0  0  0  0  0  0
  -28.2462  -38.0187   24.7694 H   0  0  0  0  0  0
  -28.1239  -36.2742   24.5979 H   0  0  0  0  0  0
  -27.2350  -37.1055   25.8827 H   0  0  0  0  0  0
  -20.9431  -29.8853   21.6881 H   0  0  0  0  0  0
  -26.0120  -38.2818   24.1591 H   0  0  0  0  0  0
  -28.0724  -23.4644   22.3698 H   0  0  0  0  0  0
  -31.3874  -17.5780   21.4735 H   0  0  0  0  0  0
  -31.4060  -17.5643   19.6810 H   0  0  0  0  0  0
  -27.9749  -16.4104   20.6996 H   0  0  0  0  0  0
  -28.8696  -16.7210   22.2252 H   0  0  0  0  0  0
  -29.0786  -18.2676   19.5292 H   0  0  0  0  0  0
  -30.2781  -23.1892   17.7654 H   0  0  0  0  0  0
  -28.5379  -23.2260   17.4343 H   0  0  0  0  0  0
  -29.4164  -21.7196   17.3312 H   0  0  0  0  0  0
  -26.9127  -24.5977   20.1690 H   0  0  0  0  0  0
  -27.8714  -24.8074   18.7356 H   0  0  0  0  0  0
  1 25  1  0  0  0
  1 30  2  0  0  0
  1 82  1  0  0  0
  2  3  1  0  0  0
  2 25  1  0  0  0
  2 84  1  0  0  0
  2 85  1  0  0  0
  3  4  1  0  0  0
  3 86  1  0  0  0
  3 87  1  0  0  0
  4  5  1  0  0  0
  4 88  1  0  0  0
  4 89  1  0  0  0
  5  6  1  0  0  0
  5 26  1  0  0  0
  5 90  1  0  0  0
  6 25  1  0  0  0
  6 91  1  0  0  0
  6 92  1  0  0  0
  7  8  2  0  0  0
  7 26  1  0  0  0
  7 29  1  0  0  0
  8  9  1  0  0  0
  8 22  1  0  0  0
  9 10  1  0  0  0
  9 27  2  0  0  0
 10 11  2  0  0  0
 10 15  1  0  0  0
 11 12  1  0  0  0
 11 93  1  0  0  0
 12 13  2  0  0  0
 12 94  1  0  0  0
 13 14  1  0  0  0
 13 31  1  0  0  0
 14 15  2  0  0  0
 14 95  1  0  0  0
 15 96  1  0  0  0
 16 17  2  0  0  0
 16 21  1  0  0  0
 16 31  1  0  0  0
 17 18  1  0  0  0
 17 97  1  0  0  0
 18 19  2  0  0  0
 18 98  1  0  0  0
 19 20  1  0  0  0
 19 24  1  0  0  0
 20 21  2  0  0  0
 20 99  1  0  0  0
 21 23  1  0  0  0
 22 28  1  0  0  0
 22 32  2  0  0  0
 26 27  1  0  0  0
 28100  1  0  0  0
 28101  1  0  0  0
 29102  1  0  0  0
 29103  1  0  0  0
 33 34  1  0  0  0
 33 66  1  0  0  0
 33 70  2  0  0  0
 34 36  1  0  0  0
 34 59  1  0  0  0
 34104  1  0  0  0
 35 44  2  0  0  0
 35 45  1  0  0  0
 35 68  1  0  0  0
 36 56  1  0  0  0
 36105  1  0  0  0
 37 39  1  0  0  0
 37 47  1  0  0  0
 37 66  1  0  0  0
 37106  1  0  0  0
 38 43  2  0  0  0
 38 46  1  0  0  0
 38 47  1  0  0  0
 39 64  1  0  0  0
 39 67  2  0  0  0
 40 52  1  0  0  0
 40 53  2  0  0  0
 40 58  1  0  0  0
 41107  1  0  0  0
 41108  1  0  0  0
 41109  1  0  0  0
 41 48  1  0  0  0
 42 43  1  0  0  0
 42 66  1  0  0  0
 42110  1  0  0  0
 42111  1  0  0  0
 43 44  1  0  0  0
 44112  1  0  0  0
 45 46  2  0  0  0
 45113  1  0  0  0
 46114  1  0  0  0
 47115  1  0  0  0
 47116  1  0  0  0
 48 56  1  0  0  0
 48 65  1  0  0  0
 48117  1  0  0  0
 49 50  1  0  0  0
 49 53  1  0  0  0
 49 64  1  0  0  0
 49118  1  0  0  0
 50 51  1  0  0  0
 50119  1  0  0  0
 50120  1  0  0  0
 51 52  1  0  0  0
 51121  1  0  0  0
 51122  1  0  0  0
 52123  1  0  0  0
 52124  1  0  0  0
 53 54  1  0  0  0
 54 55  2  0  0  0
 54125  1  0  0  0
 55 57  1  0  0  0
 55126  1  0  0  0
 56 69  2  0  0  0
 57 58  2  0  0  0
 57127  1  0  0  0
 58128  1  0  0  0
 59 60  1  0  0  0
 59 61  1  0  0  0
 59 62  1  0  0  0
 60129  1  0  0  0
 60130  1  0  0  0
 60131  1  0  0  0
 61132  1  0  0  0
 61133  1  0  0  0
 61134  1  0  0  0
 62135  1  0  0  0
 62136  1  0  0  0
 62137  1  0  0  0
 63 65  1  0  0  0
 63138  1  0  0  0
 63139  1  0  0  0
 63140  1  0  0  0
 64141  1  0  0  0
 65142  1  0  0  0
 68 79  1  0  0  0
 71 72  2  0  0  0
 71 80  1  0  0  0
 71143  1  0  0  0
 72 73  1  0  0  0
 72 79  1  0  0  0
 73 78  1  0  0  0
 73 81  2  0  0  0
 74 80  2  0  0  0
 74 81  1  0  0  0
 74 83  1  0  0  0
 75 77  1  0  0  0
 75 82  1  0  0  0
 75144  1  0  0  0
 75145  1  0  0  0
 76 77  1  0  0  0
 76 82  1  0  0  0
 76146  1  0  0  0
 76147  1  0  0  0
 77 83  1  0  0  0
 77148  1  0  0  0
 78149  1  0  0  0
 78150  1  0  0  0
 78151  1  0  0  0
 79152  1  0  0  0
 79153  1  0  0  0
M  ISO  4   1 100  68 101  79 101  82 100
M  END
> <chiral flag>
0

> <version>
0

> <s_m_source_file>
/data/baiqing/PycharmProjects/Reinvent-master-3.2/result/LINK_invent/BTK/process_docking_weight1_custom_sum_contain_oxygen_bond_distance_aromatic_linkinvent_7_9_3/rearranged_h_0193.sdf

> <i_m_source_file_index>
14

> <r_mmod_Potential_Energy-OPLS-2005>
-62.7442588806152

> <r_mmod_Stretch_Energy-OPLS-2005>
135.817916870117

> <r_mmod_Bend_Energy-OPLS-2005>
263.366088867188

> <r_mmod_Torsional_Energy-OPLS-2005>
268.758880615234

> <r_mmod_Improper_Torsional_Energy-OPLS-2005>
13.9214181900024

> <r_mmod_Van_der_Waal_Energy-OPLS-2005>
150.343536376953

> <r_mmod_Electrostatic_Energy-OPLS-2005>
-784.7373046875

> <r_mmod_Solvation_Energy-OPLS-2005>
-233.708831787109

> <b_mmod_Minimization_Converged-OPLS-2005>
0

> <r_mmod_RMS_Derivative-OPLS-2005>
2.73419547080994

$$$$
14
                    3D
 Structure written by MMmdl.
159169  0  0  1  0            999 V2000
  -30.5736  -14.8388   20.4292 C   0  0  0  0  0  0
  -30.4300  -12.5144   19.4807 C   0  0  0  0  0  0
  -29.5117  -12.5105   18.2371 C   0  0  0  0  0  0
  -28.0404  -12.3165   18.6566 C   0  0  0  0  0  0
  -27.6307  -13.2398   19.8363 C   0  0  2  0  0  0
  -28.6720  -13.2290   20.9737 C   0  0  0  0  0  0
  -25.2461  -13.8209   20.5678 C   0  0  0  0  0  0
  -24.1774  -13.0445   20.9186 C   0  0  0  0  0  0
  -24.6378  -11.6920   20.8720 C   0  0  0  0  0  0
  -23.9055  -10.4298   21.0396 C   0  0  0  0  0  0
  -24.3612   -9.4205   21.9167 C   0  0  0  0  0  0
  -23.6287   -8.2246   22.0757 C   0  0  0  0  0  0
  -22.4269   -8.0286   21.3550 C   0  0  0  0  0  0
  -21.9898   -9.0260   20.4650 C   0  0  0  0  0  0
  -22.7231  -10.2130   20.3040 C   0  0  0  0  0  0
  -21.6858   -6.0719   22.5279 C   0  0  0  0  0  0
  -21.4025   -6.5627   23.8213 C   0  0  0  0  0  0
  -21.3654   -5.6777   24.9171 C   0  0  0  0  0  0
  -21.6046   -4.3045   24.7230 C   0  0  0  0  0  0
  -21.8814   -3.8132   23.4358 C   0  0  0  0  0  0
  -21.9197   -4.6943   22.3408 C   0  0  0  0  0  0
  -22.7784  -13.5207   21.1869 C   0  0  0  0  0  0
  -22.1658   -4.2126   21.0983 F   0  0  0  0  0  0
  -21.5629   -3.4531   25.7743 F   0  0  0  0  0  0
  -29.9583  -13.6016   20.3759 N   0  0  0  0  0  0
  -26.2871  -12.9431   20.3206 N   0  0  0  0  0  0
  -25.9303  -11.6562   20.5712 N   0  0  0  0  0  0
  -22.0444  -12.8211   22.0438 N   0  0  0  0  0  0
  -25.4174  -15.1941   20.4143 N   0  0  0  0  0  0
  -31.7789  -14.9041   20.1683 O   0  0  0  0  0  0
  -21.6652   -6.8866   21.4242 O   0  0  0  0  0  0
  -22.3459  -14.5513   20.6713 O   0  0  0  0  0  0
  -24.6369  -31.8460   23.1890 C   0  0  0  0  0  0
  -25.9170  -32.4712   23.8248 C   0  0  1  0  0  0
  -27.2202  -27.2030   20.1321 C   0  0  0  0  0  0
  -25.5950  -33.8514   24.2199 N   0  0  0  0  0  0
  -23.4361  -30.4651   21.5331 C   0  0  2  0  0  0
  -24.8813  -28.8953   20.1033 C   0  0  0  0  0  0
  -22.7521  -29.4533   22.4855 C   0  0  0  0  0  0
  -18.0296  -28.1378   22.8517 C   0  0  0  0  0  0
  -24.1478  -36.7246   23.2642 C   0  0  0  0  0  0
  -25.9825  -30.7396   21.3736 C   0  0  0  0  0  0
  -26.0511  -29.3558   20.7171 C   0  0  0  0  0  0
  -27.2186  -28.5223   20.7158 C   0  0  0  0  0  0
  -26.0273  -26.8133   19.4883 C   0  0  0  0  0  0
  -24.8774  -27.6357   19.4761 C   0  0  0  0  0  0
  -23.6568  -29.7931   20.1501 C   0  0  0  0  0  0
  -25.4109  -36.3044   24.0334 C   0  0  1  0  0  0
  -20.5893  -28.3687   23.1275 C   0  0  2  0  0  0
  -20.6786  -26.9399   22.5422 C   0  0  0  0  0  0
  -19.5760  -26.6384   21.5229 C   0  0  0  0  0  0
  -18.1938  -26.7933   22.1632 C   0  0  0  0  0  0
  -19.1553  -28.8848   23.2890 C   0  0  0  0  0  0
  -18.9478  -30.1442   23.8924 C   0  0  0  0  0  0
  -17.6481  -30.6598   24.0560 C   0  0  0  0  0  0
  -25.9066  -34.9427   23.5074 C   0  0  0  0  0  0
  -16.5366  -29.9096   23.6326 C   0  0  0  0  0  0
  -16.7287  -28.6484   23.0405 C   0  0  0  0  0  0
  -26.4538  -31.6563   25.0659 C   0  0  0  0  0  0
  -25.3788  -31.3737   26.1400 C   0  0  0  0  0  0
  -27.0393  -30.2984   24.6158 C   0  0  0  0  0  0
  -27.6042  -32.4333   25.7476 C   0  0  0  0  0  0
  -27.5575  -37.1772   24.8472 C   0  0  0  0  0  0
  -21.4207  -29.3032   22.3646 N   0  0  0  0  0  0
  -26.4265  -37.3766   23.9441 N   0  0  0  0  0  0
  -24.7050  -31.0380   22.0875 N   0  0  0  0  0  0
  -23.4190  -28.8086   23.2994 O   0  0  0  0  0  0
  -28.3272  -26.3169   20.2352 O   0  0  0  0  0  0
  -26.5623  -34.8915   22.4636 O   0  0  0  0  0  0
  -23.5511  -32.1276   23.7178 O   0  0  0  0  0  0
  -30.8899  -20.1611   21.0672 C   0  0  0  0  0  0
  -31.1931  -21.5165   21.2464 C   0  0  0  0  0  0
  -29.6240  -19.7951   20.5965 C   0  0  0  0  0  0
  -29.1060  -22.1843   20.5034 C   0  0  0  0  0  0
  -32.9839  -21.3577   23.1249 C   0  0  0  0  0  0
  -32.5646  -22.8053   23.0801 C   0  0  0  0  0  0
  -29.8108  -17.0915   21.4966 C   0  0  0  0  0  0
  -30.0148  -17.1785   19.5002 C   0  0  0  0  0  0
  -32.5034  -21.9596   21.8227 C   0  0  0  0  0  0
  -29.3321  -18.1970   20.4775 C   0  0  0  0  0  0
  -28.1120  -23.4672   20.4827 C   0  0  0  0  0  0
  -28.4434  -24.8868   19.7030 C   0  0  0  0  0  0
  -30.3135  -22.4941   20.9584 N   0  0  0  0  0  0
  -28.7333  -20.8541   20.3208 N   0  0  0  0  0  0
  -29.7896  -16.0139   20.4422 N   0  0  0  0  0  0
  -31.4704  -12.6482   19.1772 H   0  0  0  0  0  0
  -30.3892  -11.5493   19.9895 H   0  0  0  0  0  0
  -29.8139  -11.7211   17.5462 H   0  0  0  0  0  0
  -29.6183  -13.4502   17.6921 H   0  0  0  0  0  0
  -27.9188  -11.2713   18.9469 H   0  0  0  0  0  0
  -27.3792  -12.4736   17.8042 H   0  0  0  0  0  0
  -27.6105  -14.2519   19.4309 H   0  0  0  0  0  0
  -28.7276  -12.2470   21.4465 H   0  0  0  0  0  0
  -28.3938  -13.9379   21.7555 H   0  0  0  0  0  0
  -25.2762   -9.5689   22.4728 H   0  0  0  0  0  0
  -24.0009   -7.4631   22.7472 H   0  0  0  0  0  0
  -21.0831   -8.8763   19.8956 H   0  0  0  0  0  0
  -22.3689  -10.9656   19.6142 H   0  0  0  0  0  0
  -21.2028   -7.6136   23.9712 H   0  0  0  0  0  0
  -21.1476   -6.0509   25.9071 H   0  0  0  0  0  0
  -22.0604   -2.7598   23.2864 H   0  0  0  0  0  0
  -22.4100  -11.9893   22.4830 H   0  0  0  0  0  0
  -21.1050  -13.1218   22.2646 H   0  0  0  0  0  0
  -24.6542  -15.8515   20.5358 H   0  0  0  0  0  0
  -26.2826  -15.6355   20.1275 H   0  0  0  0  0  0
  -26.7217  -32.5320   23.0961 H   0  0  0  0  0  0
  -25.0201  -33.9631   25.0426 H   0  0  0  0  0  0
  -22.7341  -31.2883   21.3847 H   0  0  0  0  0  0
  -23.3753  -35.9563   23.3300 H   0  0  0  0  0  0
  -24.3555  -36.8858   22.2053 H   0  0  0  0  0  0
  -23.7217  -37.6442   23.6661 H   0  0  0  0  0  0
  -26.1309  -31.4906   20.5956 H   0  0  0  0  0  0
  -26.8574  -30.7862   22.0118 H   0  0  0  0  0  0
  -28.1164  -28.8703   21.2062 H   0  0  0  0  0  0
  -25.9547  -25.8419   19.0217 H   0  0  0  0  0  0
  -23.9814  -27.2782   18.9898 H   0  0  0  0  0  0
  -23.7925  -30.5663   19.3915 H   0  0  0  0  0  0
  -22.7713  -29.2345   19.8437 H   0  0  0  0  0  0
  -25.1295  -36.1867   25.0826 H   0  0  0  0  0  0
  -21.0016  -28.3279   24.1381 H   0  0  0  0  0  0
  -20.5701  -26.2294   23.3623 H   0  0  0  0  0  0
  -21.6657  -26.7426   22.1214 H   0  0  0  0  0  0
  -19.6905  -25.6295   21.1261 H   0  0  0  0  0  0
  -19.6716  -27.3198   20.6763 H   0  0  0  0  0  0
  -17.4224  -26.6716   21.4010 H   0  0  0  0  0  0
  -18.0297  -26.0043   22.8995 H   0  0  0  0  0  0
  -19.7946  -30.7244   24.2332 H   0  0  0  0  0  0
  -17.5034  -31.6292   24.5139 H   0  0  0  0  0  0
  -15.5365  -30.3028   23.7620 H   0  0  0  0  0  0
  -15.8666  -28.0783   22.7182 H   0  0  0  0  0  0
  -24.5964  -30.7056   25.7789 H   0  0  0  0  0  0
  -24.8997  -32.2927   26.4780 H   0  0  0  0  0  0
  -25.8148  -30.8985   27.0200 H   0  0  0  0  0  0
  -26.2969  -29.6708   24.1209 H   0  0  0  0  0  0
  -27.4122  -29.7256   25.4656 H   0  0  0  0  0  0
  -27.8825  -30.4261   23.9360 H   0  0  0  0  0  0
  -27.2584  -33.3631   26.2008 H   0  0  0  0  0  0
  -28.3904  -32.6902   25.0367 H   0  0  0  0  0  0
  -28.0652  -31.8503   26.5455 H   0  0  0  0  0  0
  -28.2589  -38.0078   24.7555 H   0  0  0  0  0  0
  -28.1076  -36.2618   24.6256 H   0  0  0  0  0  0
  -27.2292  -37.1360   25.8871 H   0  0  0  0  0  0
  -20.9382  -29.8721   21.6827 H   0  0  0  0  0  0
  -26.0125  -38.2823   24.1484 H   0  0  0  0  0  0
  -31.6244  -19.4074   21.3179 H   0  0  0  0  0  0
  -32.3199  -20.6611   23.6345 H   0  0  0  0  0  0
  -34.0449  -21.1491   23.2340 H   0  0  0  0  0  0
  -33.3523  -23.5528   23.1534 H   0  0  0  0  0  0
  -31.6235  -23.0719   23.5580 H   0  0  0  0  0  0
  -30.8096  -17.2809   21.8967 H   0  0  0  0  0  0
  -29.1084  -16.9472   22.3177 H   0  0  0  0  0  0
  -31.0707  -17.4070   19.3380 H   0  0  0  0  0  0
  -29.5049  -17.1025   18.5402 H   0  0  0  0  0  0
  -33.2415  -22.1376   21.0429 H   0  0  0  0  0  0
  -28.2515  -18.1065   20.3624 H   0  0  0  0  0  0
  -27.9320  -23.7175   21.5285 H   0  0  0  0  0  0
  -27.1447  -23.1168   20.1217 H   0  0  0  0  0  0
  -29.5161  -24.8236   19.5097 H   0  0  0  0  0  0
  -28.0181  -24.8457   18.6992 H   0  0  0  0  0  0
  1 25  1  0  0  0
  1 30  2  0  0  0
  1 85  1  0  0  0
  2  3  1  0  0  0
  2 25  1  0  0  0
  2 86  1  0  0  0
  2 87  1  0  0  0
  3  4  1  0  0  0
  3 88  1  0  0  0
  3 89  1  0  0  0
  4  5  1  0  0  0
  4 90  1  0  0  0
  4 91  1  0  0  0
  5  6  1  0  0  0
  5 26  1  0  0  0
  5 92  1  0  0  0
  6 25  1  0  0  0
  6 93  1  0  0  0
  6 94  1  0  0  0
  7  8  2  0  0  0
  7 26  1  0  0  0
  7 29  1  0  0  0
  8  9  1  0  0  0
  8 22  1  0  0  0
  9 10  1  0  0  0
  9 27  2  0  0  0
 10 11  2  0  0  0
 10 15  1  0  0  0
 11 12  1  0  0  0
 11 95  1  0  0  0
 12 13  2  0  0  0
 12 96  1  0  0  0
 13 14  1  0  0  0
 13 31  1  0  0  0
 14 15  2  0  0  0
 14 97  1  0  0  0
 15 98  1  0  0  0
 16 17  2  0  0  0
 16 21  1  0  0  0
 16 31  1  0  0  0
 17 18  1  0  0  0
 17 99  1  0  0  0
 18 19  2  0  0  0
 18100  1  0  0  0
 19 20  1  0  0  0
 19 24  1  0  0  0
 20 21  2  0  0  0
 20101  1  0  0  0
 21 23  1  0  0  0
 22 28  1  0  0  0
 22 32  2  0  0  0
 26 27  1  0  0  0
 28102  1  0  0  0
 28103  1  0  0  0
 29104  1  0  0  0
 29105  1  0  0  0
 33 34  1  0  0  0
 33 66  1  0  0  0
 33 70  2  0  0  0
 34 36  1  0  0  0
 34 59  1  0  0  0
 34106  1  0  0  0
 35 44  2  0  0  0
 35 45  1  0  0  0
 35 68  1  0  0  0
 36 56  1  0  0  0
 36107  1  0  0  0
 37 39  1  0  0  0
 37 47  1  0  0  0
 37 66  1  0  0  0
 37108  1  0  0  0
 38 43  2  0  0  0
 38 46  1  0  0  0
 38 47  1  0  0  0
 39 64  1  0  0  0
 39 67  2  0  0  0
 40 52  1  0  0  0
 40 53  2  0  0  0
 40 58  1  0  0  0
 41109  1  0  0  0
 41110  1  0  0  0
 41111  1  0  0  0
 41 48  1  0  0  0
 42 43  1  0  0  0
 42 66  1  0  0  0
 42112  1  0  0  0
 42113  1  0  0  0
 43 44  1  0  0  0
 44114  1  0  0  0
 45 46  2  0  0  0
 45115  1  0  0  0
 46116  1  0  0  0
 47117  1  0  0  0
 47118  1  0  0  0
 48 56  1  0  0  0
 48 65  1  0  0  0
 48119  1  0  0  0
 49 50  1  0  0  0
 49 53  1  0  0  0
 49 64  1  0  0  0
 49120  1  0  0  0
 50 51  1  0  0  0
 50121  1  0  0  0
 50122  1  0  0  0
 51 52  1  0  0  0
 51123  1  0  0  0
 51124  1  0  0  0
 52125  1  0  0  0
 52126  1  0  0  0
 53 54  1  0  0  0
 54 55  2  0  0  0
 54127  1  0  0  0
 55 57  1  0  0  0
 55128  1  0  0  0
 56 69  2  0  0  0
 57 58  2  0  0  0
 57129  1  0  0  0
 58130  1  0  0  0
 59 60  1  0  0  0
 59 61  1  0  0  0
 59 62  1  0  0  0
 60131  1  0  0  0
 60132  1  0  0  0
 60133  1  0  0  0
 61134  1  0  0  0
 61135  1  0  0  0
 61136  1  0  0  0
 62137  1  0  0  0
 62138  1  0  0  0
 62139  1  0  0  0
 63 65  1  0  0  0
 63140  1  0  0  0
 63141  1  0  0  0
 63142  1  0  0  0
 64143  1  0  0  0
 65144  1  0  0  0
 68 82  1  0  0  0
 71 72  2  0  0  0
 71 73  1  0  0  0
 71145  1  0  0  0
 72 83  1  0  0  0
 72 79  1  0  0  0
 73 84  2  0  0  0
 73 80  1  0  0  0
 74 81  1  0  0  0
 74 83  2  0  0  0
 74 84  1  0  0  0
 75 76  1  0  0  0
 75 79  1  0  0  0
 75146  1  0  0  0
 75147  1  0  0  0
 76 79  1  0  0  0
 76148  1  0  0  0
 76149  1  0  0  0
 77 80  1  0  0  0
 77 85  1  0  0  0
 77150  1  0  0  0
 77151  1  0  0  0
 78 80  1  0  0  0
 78 85  1  0  0  0
 78152  1  0  0  0
 78153  1  0  0  0
 79154  1  0  0  0
 80155  1  0  0  0
 81 82  1  0  0  0
 81156  1  0  0  0
 81157  1  0  0  0
 82158  1  0  0  0
 82159  1  0  0  0
M  ISO  4   1 100  68 101  82 101  85 100
M  END
> <chiral flag>
0

> <version>
0

> <s_m_source_file>
/data/baiqing/PycharmProjects/Reinvent-master-3.2/result/LINK_invent/BTK/process_docking_weight1_custom_sum_contain_oxygen_bond_distance_aromatic_linkinvent_7_9_3/rearranged_h_0193.sdf

> <i_m_source_file_index>
15

> <r_mmod_Potential_Energy-OPLS-2005>
20.2498722076416

> <r_mmod_Stretch_Energy-OPLS-2005>
169.153335571289

> <r_mmod_Bend_Energy-OPLS-2005>
241.288208007812

> <r_mmod_Torsional_Energy-OPLS-2005>
286.880523681641

> <r_mmod_Improper_Torsional_Energy-OPLS-2005>
17.385274887085

> <r_mmod_Van_der_Waal_Energy-OPLS-2005>
130.439224243164

> <r_mmod_Electrostatic_Energy-OPLS-2005>
-723.472534179688

> <r_mmod_Solvation_Energy-OPLS-2005>
-229.943420410156

> <b_mmod_Minimization_Converged-OPLS-2005>
0

> <r_mmod_RMS_Derivative-OPLS-2005>
3.12500357627869

$$$$
15
                    3D
 Structure written by MMmdl.
161170  0  0  1  0            999 V2000
  -30.6904  -14.5614   20.5141 C   0  0  0  0  0  0
  -30.4207  -12.3423   19.4700 C   0  0  0  0  0  0
  -29.5149  -12.4920   18.2310 C   0  0  0  0  0  0
  -28.0273  -12.3749   18.6223 C   0  0  0  0  0  0
  -27.6527  -13.2309   19.8648 C   0  0  2  0  0  0
  -28.6916  -13.0863   21.0002 C   0  0  0  0  0  0
  -25.2537  -13.8223   20.5680 C   0  0  0  0  0  0
  -24.1811  -13.0453   20.9178 C   0  0  0  0  0  0
  -24.6410  -11.6934   20.8734 C   0  0  0  0  0  0
  -23.9084  -10.4304   21.0400 C   0  0  0  0  0  0
  -24.3632   -9.4220   21.9178 C   0  0  0  0  0  0
  -23.6310   -8.2251   22.0748 C   0  0  0  0  0  0
  -22.4289   -8.0294   21.3544 C   0  0  0  0  0  0
  -21.9923   -9.0271   20.4648 C   0  0  0  0  0  0
  -22.7255  -10.2151   20.3059 C   0  0  0  0  0  0
  -21.6861   -6.0746   22.5281 C   0  0  0  0  0  0
  -21.4023   -6.5644   23.8216 C   0  0  0  0  0  0
  -21.3661   -5.6791   24.9173 C   0  0  0  0  0  0
  -21.6047   -4.3051   24.7219 C   0  0  0  0  0  0
  -21.8816   -3.8145   23.4336 C   0  0  0  0  0  0
  -21.9194   -4.6968   22.3394 C   0  0  0  0  0  0
  -22.7833  -13.5244   21.1842 C   0  0  0  0  0  0
  -22.1656   -4.2149   21.0968 F   0  0  0  0  0  0
  -21.5629   -3.4535   25.7727 F   0  0  0  0  0  0
  -30.0159  -13.3780   20.4360 N   0  0  0  0  0  0
  -26.2975  -12.9429   20.3296 N   0  0  0  0  0  0
  -25.9341  -11.6565   20.5732 N   0  0  0  0  0  0
  -22.0454  -12.8256   22.0408 N   0  0  0  0  0  0
  -25.4192  -15.1947   20.4100 N   0  0  0  0  0  0
  -31.8533  -14.6688   20.1246 O   0  0  0  0  0  0
  -21.6659   -6.8890   21.4239 O   0  0  0  0  0  0
  -22.3524  -14.5541   20.6674 O   0  0  0  0  0  0
  -24.6178  -31.8680   23.2048 C   0  0  0  0  0  0
  -25.9066  -32.4819   23.8364 C   0  0  1  0  0  0
  -27.2246  -27.4029   20.1150 C   0  0  0  0  0  0
  -25.5926  -33.8614   24.2299 N   0  0  0  0  0  0
  -23.4073  -30.4880   21.5463 C   0  0  2  0  0  0
  -24.8523  -28.9464   20.1140 C   0  0  0  0  0  0
  -22.7422  -29.4669   22.4986 C   0  0  0  0  0  0
  -18.0270  -28.1414   22.8493 C   0  0  0  0  0  0
  -24.1493  -36.7312   23.2641 C   0  0  0  0  0  0
  -25.9352  -30.8275   21.3551 C   0  0  0  0  0  0
  -26.0132  -29.4532   20.7145 C   0  0  0  0  0  0
  -27.2053  -28.6903   20.7100 C   0  0  0  0  0  0
  -26.0505  -26.9115   19.5113 C   0  0  0  0  0  0
  -24.8682  -27.6774   19.5079 C   0  0  0  0  0  0
  -23.6149  -29.8166   20.1609 C   0  0  0  0  0  0
  -25.4107  -36.3102   24.0336 C   0  0  1  0  0  0
  -20.5856  -28.3693   23.1326 C   0  0  2  0  0  0
  -20.6780  -26.9443   22.5415 C   0  0  0  0  0  0
  -19.5745  -26.6423   21.5231 C   0  0  0  0  0  0
  -18.1925  -26.7964   22.1630 C   0  0  0  0  0  0
  -19.1522  -28.8871   23.2911 C   0  0  0  0  0  0
  -18.9457  -30.1483   23.8920 C   0  0  0  0  0  0
  -17.6462  -30.6613   24.0591 C   0  0  0  0  0  0
  -25.9041  -34.9471   23.5110 C   0  0  0  0  0  0
  -16.5350  -29.9129   23.6335 C   0  0  0  0  0  0
  -16.7269  -28.6551   23.0346 C   0  0  0  0  0  0
  -26.4464  -31.6591   25.0687 C   0  0  0  0  0  0
  -25.3716  -31.3711   26.1421 C   0  0  0  0  0  0
  -27.0291  -30.3049   24.6041 C   0  0  0  0  0  0
  -27.6051  -32.4292   25.7452 C   0  0  0  0  0  0
  -27.5565  -37.1814   24.8472 C   0  0  0  0  0  0
  -21.4146  -29.3057   22.3735 N   0  0  0  0  0  0
  -26.4293  -37.3784   23.9394 N   0  0  0  0  0  0
  -24.6732  -31.0736   22.0973 N   0  0  0  0  0  0
  -23.4176  -28.8221   23.3057 O   0  0  0  0  0  0
  -28.3671  -26.6298   20.0890 O   0  0  0  0  0  0
  -26.5604  -34.8931   22.4674 O   0  0  0  0  0  0
  -23.5360  -32.1459   23.7416 O   0  0  0  0  0  0
  -29.4663  -18.2279   20.3740 C   0  0  0  0  0  0
  -32.1003  -20.1040   21.2217 C   0  0  0  0  0  0
  -31.2190  -21.3374   21.0030 C   0  0  0  0  0  0
  -31.4152  -17.5971   21.6884 C   0  0  0  0  0  0
  -30.4592  -17.0683   20.6142 C   0  0  2  0  0  0
  -31.0935  -19.1033   21.7865 C   0  0  2  0  0  0
  -29.8224  -20.7950   20.6015 C   0  0  2  0  0  0
  -28.6249  -21.5871   21.2326 C   0  0  0  0  0  0
  -28.3933  -24.0775   20.4279 C   0  0  0  0  0  0
  -28.4067  -25.5272   21.0253 C   0  0  0  0  0  0
  -29.9101  -19.3538   20.9781 N   0  0  0  0  0  0
  -29.9758  -15.6716   20.8324 N   0  0  0  0  0  0
  -28.8466  -23.0613   21.4339 N   0  3  0  0  0  0
  -28.4834  -18.1345   19.6350 O   0  0  0  0  0  0
  -31.4713  -12.4240   19.1857 H   0  0  0  0  0  0
  -30.3067  -11.3519   19.9146 H   0  0  0  0  0  0
  -29.7687  -11.7348   17.4884 H   0  0  0  0  0  0
  -29.6971  -13.4580   17.7572 H   0  0  0  0  0  0
  -27.8201  -11.3225   18.8170 H   0  0  0  0  0  0
  -27.3997  -12.6572   17.7765 H   0  0  0  0  0  0
  -27.6716  -14.2702   19.5353 H   0  0  0  0  0  0
  -28.6731  -12.0758   21.4120 H   0  0  0  0  0  0
  -28.4515  -13.7553   21.8288 H   0  0  0  0  0  0
  -25.2776   -9.5702   22.4758 H   0  0  0  0  0  0
  -24.0011   -7.4652   22.7483 H   0  0  0  0  0  0
  -21.0838   -8.8810   19.8975 H   0  0  0  0  0  0
  -22.3707  -10.9694   19.6174 H   0  0  0  0  0  0
  -21.2017   -7.6150   23.9720 H   0  0  0  0  0  0
  -21.1492   -6.0516   25.9080 H   0  0  0  0  0  0
  -22.0592   -2.7603   23.2838 H   0  0  0  0  0  0
  -22.4060  -11.9932   22.4825 H   0  0  0  0  0  0
  -21.1067  -13.1304   22.2571 H   0  0  0  0  0  0
  -24.6450  -15.8410   20.5252 H   0  0  0  0  0  0
  -26.2628  -15.6461   20.0783 H   0  0  0  0  0  0
  -26.7143  -32.5501   23.1127 H   0  0  0  0  0  0
  -25.0089  -33.9816   25.0448 H   0  0  0  0  0  0
  -22.6970  -31.3055   21.4047 H   0  0  0  0  0  0
  -23.3749  -35.9653   23.3330 H   0  0  0  0  0  0
  -24.3600  -36.8900   22.2053 H   0  0  0  0  0  0
  -23.7255  -37.6536   23.6642 H   0  0  0  0  0  0
  -26.0323  -31.5827   20.5717 H   0  0  0  0  0  0
  -26.8319  -30.8950   21.9612 H   0  0  0  0  0  0
  -28.0997  -29.0828   21.1732 H   0  0  0  0  0  0
  -26.0475  -25.9330   19.0486 H   0  0  0  0  0  0
  -23.9755  -27.2869   19.0391 H   0  0  0  0  0  0
  -23.7217  -30.5935   19.4018 H   0  0  0  0  0  0
  -22.7375  -29.2371   19.8651 H   0  0  0  0  0  0
  -25.1273  -36.1983   25.0832 H   0  0  0  0  0  0
  -20.9951  -28.3284   24.1441 H   0  0  0  0  0  0
  -20.5753  -26.2312   23.3600 H   0  0  0  0  0  0
  -21.6650  -26.7543   22.1165 H   0  0  0  0  0  0
  -19.6940  -25.6354   21.1238 H   0  0  0  0  0  0
  -19.6702  -27.3255   20.6786 H   0  0  0  0  0  0
  -17.4214  -26.6738   21.4024 H   0  0  0  0  0  0
  -18.0316  -26.0115   22.9023 H   0  0  0  0  0  0
  -19.7943  -30.7303   24.2295 H   0  0  0  0  0  0
  -17.5024  -31.6292   24.5209 H   0  0  0  0  0  0
  -15.5359  -30.3042   23.7670 H   0  0  0  0  0  0
  -15.8663  -28.0899   22.7019 H   0  0  0  0  0  0
  -24.5913  -30.7035   25.7733 H   0  0  0  0  0  0
  -24.8879  -32.2886   26.4808 H   0  0  0  0  0  0
  -25.8052  -30.8922   27.0211 H   0  0  0  0  0  0
  -26.2850  -29.6834   24.1060 H   0  0  0  0  0  0
  -27.4057  -29.7233   25.4461 H   0  0  0  0  0  0
  -27.8661  -30.4372   23.9177 H   0  0  0  0  0  0
  -27.2706  -33.3605   26.2019 H   0  0  0  0  0  0
  -28.3876  -32.6830   25.0288 H   0  0  0  0  0  0
  -28.0702  -31.8420   26.5383 H   0  0  0  0  0  0
  -28.2603  -38.0088   24.7475 H   0  0  0  0  0  0
  -28.1046  -36.2624   24.6350 H   0  0  0  0  0  0
  -27.2291  -37.1499   25.8882 H   0  0  0  0  0  0
  -20.9345  -29.8758   21.6903 H   0  0  0  0  0  0
  -26.0190  -38.2870   24.1391 H   0  0  0  0  0  0
  -32.9347  -20.2948   21.8998 H   0  0  0  0  0  0
  -32.5047  -19.7598   20.2672 H   0  0  0  0  0  0
  -31.6326  -22.0211   20.2587 H   0  0  0  0  0  0
  -31.1746  -21.8760   21.9503 H   0  0  0  0  0  0
  -32.4594  -17.4033   21.4379 H   0  0  0  0  0  0
  -31.2129  -17.1155   22.6464 H   0  0  0  0  0  0
  -31.0260  -17.0570   19.6814 H   0  0  0  0  0  0
  -30.8680  -19.3586   22.8239 H   0  0  0  0  0  0
  -29.7319  -20.8494   19.5135 H   0  0  0  0  0  0
  -28.4418  -21.1815   22.2278 H   0  0  0  0  0  0
  -27.7069  -21.4037   20.6709 H   0  0  0  0  0  0
  -27.3851  -23.8422   20.0851 H   0  0  0  0  0  0
  -29.0595  -24.0280   19.5673 H   0  0  0  0  0  0
  -29.3423  -25.6608   21.5635 H   0  0  0  0  0  0
  -27.6254  -25.6207   21.7837 H   0  0  0  0  0  0
  -29.0092  -15.5545   21.0911 H   0  0  0  0  0  0
  -28.3520  -23.2774   22.2853 H   0  0  0  0  0  0
  -29.8242  -23.2077   21.6379 H   0  0  0  0  0  0
  1 25  1  0  0  0
  1 30  2  0  0  0
  1 82  1  0  0  0
  2  3  1  0  0  0
  2 25  1  0  0  0
  2 85  1  0  0  0
  2 86  1  0  0  0
  3  4  1  0  0  0
  3 87  1  0  0  0
  3 88  1  0  0  0
  4  5  1  0  0  0
  4 89  1  0  0  0
  4 90  1  0  0  0
  5  6  1  0  0  0
  5 26  1  0  0  0
  5 91  1  0  0  0
  6 25  1  0  0  0
  6 92  1  0  0  0
  6 93  1  0  0  0
  7  8  2  0  0  0
  7 26  1  0  0  0
  7 29  1  0  0  0
  8  9  1  0  0  0
  8 22  1  0  0  0
  9 10  1  0  0  0
  9 27  2  0  0  0
 10 11  2  0  0  0
 10 15  1  0  0  0
 11 12  1  0  0  0
 11 94  1  0  0  0
 12 13  2  0  0  0
 12 95  1  0  0  0
 13 14  1  0  0  0
 13 31  1  0  0  0
 14 15  2  0  0  0
 14 96  1  0  0  0
 15 97  1  0  0  0
 16 17  2  0  0  0
 16 21  1  0  0  0
 16 31  1  0  0  0
 17 18  1  0  0  0
 17 98  1  0  0  0
 18 19  2  0  0  0
 18 99  1  0  0  0
 19 20  1  0  0  0
 19 24  1  0  0  0
 20 21  2  0  0  0
 20100  1  0  0  0
 21 23  1  0  0  0
 22 28  1  0  0  0
 22 32  2  0  0  0
 26 27  1  0  0  0
 28101  1  0  0  0
 28102  1  0  0  0
 29103  1  0  0  0
 29104  1  0  0  0
 33 34  1  0  0  0
 33 66  1  0  0  0
 33 70  2  0  0  0
 34 36  1  0  0  0
 34 59  1  0  0  0
 34105  1  0  0  0
 35 44  2  0  0  0
 35 45  1  0  0  0
 35 68  1  0  0  0
 36 56  1  0  0  0
 36106  1  0  0  0
 37 39  1  0  0  0
 37 47  1  0  0  0
 37 66  1  0  0  0
 37107  1  0  0  0
 38 43  2  0  0  0
 38 46  1  0  0  0
 38 47  1  0  0  0
 39 64  1  0  0  0
 39 67  2  0  0  0
 40 52  1  0  0  0
 40 53  2  0  0  0
 40 58  1  0  0  0
 41108  1  0  0  0
 41109  1  0  0  0
 41110  1  0  0  0
 41 48  1  0  0  0
 42 43  1  0  0  0
 42 66  1  0  0  0
 42111  1  0  0  0
 42112  1  0  0  0
 43 44  1  0  0  0
 44113  1  0  0  0
 45 46  2  0  0  0
 45114  1  0  0  0
 46115  1  0  0  0
 47116  1  0  0  0
 47117  1  0  0  0
 48 56  1  0  0  0
 48 65  1  0  0  0
 48118  1  0  0  0
 49 50  1  0  0  0
 49 53  1  0  0  0
 49 64  1  0  0  0
 49119  1  0  0  0
 50 51  1  0  0  0
 50120  1  0  0  0
 50121  1  0  0  0
 51 52  1  0  0  0
 51122  1  0  0  0
 51123  1  0  0  0
 52124  1  0  0  0
 52125  1  0  0  0
 53 54  1  0  0  0
 54 55  2  0  0  0
 54126  1  0  0  0
 55 57  1  0  0  0
 55127  1  0  0  0
 56 69  2  0  0  0
 57 58  2  0  0  0
 57128  1  0  0  0
 58129  1  0  0  0
 59 60  1  0  0  0
 59 61  1  0  0  0
 59 62  1  0  0  0
 60130  1  0  0  0
 60131  1  0  0  0
 60132  1  0  0  0
 61133  1  0  0  0
 61134  1  0  0  0
 61135  1  0  0  0
 62136  1  0  0  0
 62137  1  0  0  0
 62138  1  0  0  0
 63 65  1  0  0  0
 63139  1  0  0  0
 63140  1  0  0  0
 63141  1  0  0  0
 64142  1  0  0  0
 65143  1  0  0  0
 68 80  1  0  0  0
 71 75  1  0  0  0
 71 81  1  0  0  0
 71 84  2  0  0  0
 72 73  1  0  0  0
 72144  1  0  0  0
 72145  1  0  0  0
 72 76  1  0  0  0
 73 77  1  0  0  0
 73146  1  0  0  0
 73147  1  0  0  0
 74 75  1  0  0  0
 74 76  1  0  0  0
 74148  1  0  0  0
 74149  1  0  0  0
 75 82  1  0  0  0
 75150  1  0  0  0
 76 81  1  0  0  0
 76151  1  0  0  0
 77 78  1  0  0  0
 77 81  1  0  0  0
 77152  1  0  0  0
 78 83  1  0  0  0
 78153  1  0  0  0
 78154  1  0  0  0
 79 80  1  0  0  0
 79 83  1  0  0  0
 79155  1  0  0  0
 79156  1  0  0  0
 80157  1  0  0  0
 80158  1  0  0  0
 82159  1  0  0  0
 83160  1  0  0  0
 83161  1  0  0  0
M  CHG  1  83   1
M  ISO  4   1 100  68 101  80 101  82 100
M  END
> <chiral flag>
0

> <version>
0

> <s_m_source_file>
/data/baiqing/PycharmProjects/Reinvent-master-3.2/result/LINK_invent/BTK/process_docking_weight1_custom_sum_contain_oxygen_bond_distance_aromatic_linkinvent_7_9_3/rearranged_h_0193.sdf

> <i_m_source_file_index>
16

> <r_mmod_Potential_Energy-OPLS-2005>
-44.0750846862793

> <r_mmod_Stretch_Energy-OPLS-2005>
47.8861656188965

> <r_mmod_Bend_Energy-OPLS-2005>
182.23176574707

> <r_mmod_Torsional_Energy-OPLS-2005>
370.544097900391

> <r_mmod_Improper_Torsional_Energy-OPLS-2005>
7.77325010299683

> <r_mmod_Van_der_Waal_Energy-OPLS-2005>
113.867088317871

> <r_mmod_Electrostatic_Energy-OPLS-2005>
-315.006317138672

> <r_mmod_Solvation_Energy-OPLS-2005>
-476.459014892578

> <b_mmod_Minimization_Converged-OPLS-2005>
0

> <r_mmod_RMS_Derivative-OPLS-2005>
3.33977365493774

$$$$
16
                    3D
 Structure written by MMmdl.
170178  0  0  1  0            999 V2000
  -30.6962  -14.5371   20.4622 C   0  0  0  0  0  0
  -30.4250  -12.3226   19.4289 C   0  0  0  0  0  0
  -29.4959  -12.4749   18.2063 C   0  0  0  0  0  0
  -28.0161  -12.3424   18.6241 C   0  0  0  0  0  0
  -27.6514  -13.2019   19.8654 C   0  0  2  0  0  0
  -28.7080  -13.0715   20.9854 C   0  0  0  0  0  0
  -25.2584  -13.8126   20.5738 C   0  0  0  0  0  0
  -24.1827  -13.0422   20.9196 C   0  0  0  0  0  0
  -24.6372  -11.6880   20.8761 C   0  0  0  0  0  0
  -23.9038  -10.4275   21.0412 C   0  0  0  0  0  0
  -24.3599   -9.4189   21.9181 C   0  0  0  0  0  0
  -23.6284   -8.2214   22.0742 C   0  0  0  0  0  0
  -22.4261   -8.0254   21.3530 C   0  0  0  0  0  0
  -21.9890   -9.0232   20.4636 C   0  0  0  0  0  0
  -22.7215  -10.2120   20.3054 C   0  0  0  0  0  0
  -21.6853   -6.0718   22.5272 C   0  0  0  0  0  0
  -21.4009   -6.5627   23.8206 C   0  0  0  0  0  0
  -21.3667   -5.6778   24.9171 C   0  0  0  0  0  0
  -21.6048   -4.3040   24.7218 C   0  0  0  0  0  0
  -21.8824   -3.8132   23.4343 C   0  0  0  0  0  0
  -21.9192   -4.6945   22.3400 C   0  0  0  0  0  0
  -22.7850  -13.5220   21.1854 C   0  0  0  0  0  0
  -22.1665   -4.2132   21.0974 F   0  0  0  0  0  0
  -21.5642   -3.4528   25.7735 F   0  0  0  0  0  0
  -30.0261  -13.3522   20.3982 N   0  0  0  0  0  0
  -26.3002  -12.9269   20.3405 N   0  0  0  0  0  0
  -25.9303  -11.6440   20.5818 N   0  0  0  0  0  0
  -22.0477  -12.8227   22.0412 N   0  0  0  0  0  0
  -25.4336  -15.1846   20.4157 N   0  0  0  0  0  0
  -31.9020  -14.6343   20.2182 O   0  0  0  0  0  0
  -21.6635   -6.8849   21.4224 O   0  0  0  0  0  0
  -22.3544  -14.5536   20.6705 O   0  0  0  0  0  0
  -24.6169  -31.8666   23.2083 C   0  0  0  0  0  0
  -25.9061  -32.4811   23.8382 C   0  0  1  0  0  0
  -27.2411  -27.4177   20.1143 C   0  0  0  0  0  0
  -25.5924  -33.8615   24.2320 N   0  0  0  0  0  0
  -23.4053  -30.4889   21.5473 C   0  0  2  0  0  0
  -24.8548  -28.9467   20.1234 C   0  0  0  0  0  0
  -22.7420  -29.4652   22.4965 C   0  0  0  0  0  0
  -18.0274  -28.1381   22.8487 C   0  0  0  0  0  0
  -24.1480  -36.7322   23.2631 C   0  0  0  0  0  0
  -25.9346  -30.8256   21.3662 C   0  0  0  0  0  0
  -26.0128  -29.4535   20.7270 C   0  0  0  0  0  0
  -27.2084  -28.6952   20.7239 C   0  0  0  0  0  0
  -26.0712  -26.9389   19.4880 C   0  0  0  0  0  0
  -24.8774  -27.6856   19.5047 C   0  0  0  0  0  0
  -23.6176  -29.8173   20.1642 C   0  0  0  0  0  0
  -25.4100  -36.3106   24.0332 C   0  0  1  0  0  0
  -20.5868  -28.3673   23.1303 C   0  0  2  0  0  0
  -20.6761  -26.9389   22.5440 C   0  0  0  0  0  0
  -19.5747  -26.6385   21.5226 C   0  0  0  0  0  0
  -18.1927  -26.7918   22.1632 C   0  0  0  0  0  0
  -19.1522  -28.8851   23.2879 C   0  0  0  0  0  0
  -18.9442  -30.1462   23.8870 C   0  0  0  0  0  0
  -17.6438  -30.6588   24.0540 C   0  0  0  0  0  0
  -25.9038  -34.9477   23.5124 C   0  0  0  0  0  0
  -16.5333  -29.9077   23.6321 C   0  0  0  0  0  0
  -16.7258  -28.6493   23.0352 C   0  0  0  0  0  0
  -26.4483  -31.6590   25.0723 C   0  0  0  0  0  0
  -25.3763  -31.3716   26.1475 C   0  0  0  0  0  0
  -27.0294  -30.3017   24.6125 C   0  0  0  0  0  0
  -27.6036  -32.4324   25.7492 C   0  0  0  0  0  0
  -27.5572  -37.1805   24.8454 C   0  0  0  0  0  0
  -21.4147  -29.3023   22.3697 N   0  0  0  0  0  0
  -26.4277  -37.3803   23.9413 N   0  0  0  0  0  0
  -24.6705  -31.0762   22.0988 N   0  0  0  0  0  0
  -23.4187  -28.8223   23.3032 O   0  0  0  0  0  0
  -28.4136  -26.6934   20.0319 O   0  0  0  0  0  0
  -26.5577  -34.8926   22.4677 O   0  0  0  0  0  0
  -23.5361  -32.1403   23.7479 O   0  0  0  0  0  0
  -29.5914  -17.7405   19.1905 C   0  0  0  0  0  0
  -29.6324  -16.2157   19.0732 C   0  0  0  0  0  0
  -30.0987  -16.8099   21.3112 C   0  0  0  0  0  0
  -29.3414  -17.9966   20.6673 C   0  0  1  0  0  0
  -23.7332  -23.7777   22.0194 C   0  0  0  0  0  0
  -29.6906  -19.4563   21.1075 C   0  0  0  0  0  0
  -24.7096  -23.5659   20.8564 C   0  0  0  0  0  0
  -26.1427  -23.9348   21.2509 C   0  0  0  0  0  0
  -28.5278  -20.4674   20.8411 C   0  0  0  0  0  0
  -29.0765  -22.9766   21.0731 C   0  0  0  0  0  0
  -28.6219  -25.6106   20.9630 C   0  0  0  0  0  0
  -28.4215  -24.1872   20.3347 C   0  0  1  0  0  0
  -29.9148  -15.6513   20.4090 N   0  0  0  0  0  0
  -27.0140  -23.8518   20.0781 N   0  0  0  0  0  0
  -28.8945  -21.7713   20.2227 N   0  3  0  0  0  0
  -31.4692  -12.4177   19.1219 H   0  0  0  0  0  0
  -30.3283  -11.3298   19.8697 H   0  0  0  0  0  0
  -29.7377  -11.7190   17.4577 H   0  0  0  0  0  0
  -29.6612  -13.4409   17.7270 H   0  0  0  0  0  0
  -27.8315  -11.2902   18.8404 H   0  0  0  0  0  0
  -27.3648  -12.5994   17.7866 H   0  0  0  0  0  0
  -27.6483  -14.2319   19.5310 H   0  0  0  0  0  0
  -28.6974  -12.0688   21.4160 H   0  0  0  0  0  0
  -28.4881  -13.7614   21.8021 H   0  0  0  0  0  0
  -25.2740   -9.5679   22.4766 H   0  0  0  0  0  0
  -24.0007   -7.4595   22.7460 H   0  0  0  0  0  0
  -21.0823   -8.8746   19.8939 H   0  0  0  0  0  0
  -22.3664  -10.9665   19.6171 H   0  0  0  0  0  0
  -21.1994   -7.6131   23.9710 H   0  0  0  0  0  0
  -21.1497   -6.0506   25.9083 H   0  0  0  0  0  0
  -22.0603   -2.7594   23.2844 H   0  0  0  0  0  0
  -22.4080  -11.9899   22.4839 H   0  0  0  0  0  0
  -21.1090  -13.1265   22.2583 H   0  0  0  0  0  0
  -24.6757  -15.8492   20.5306 H   0  0  0  0  0  0
  -26.3036  -15.6195   20.1366 H   0  0  0  0  0  0
  -26.7143  -32.5523   23.1156 H   0  0  0  0  0  0
  -25.0093  -33.9758   25.0474 H   0  0  0  0  0  0
  -22.6939  -31.3051   21.4051 H   0  0  0  0  0  0
  -23.3729  -35.9664   23.3292 H   0  0  0  0  0  0
  -24.3567  -36.8948   22.2043 H   0  0  0  0  0  0
  -23.7251  -37.6542   23.6641 H   0  0  0  0  0  0
  -26.0483  -31.5844   20.5907 H   0  0  0  0  0  0
  -26.8228  -30.8828   21.9834 H   0  0  0  0  0  0
  -28.1067  -29.0923   21.1760 H   0  0  0  0  0  0
  -26.0769  -26.0003   18.9580 H   0  0  0  0  0  0
  -23.9934  -27.2939   19.0206 H   0  0  0  0  0  0
  -23.7291  -30.5872   19.3996 H   0  0  0  0  0  0
  -22.7428  -29.2372   19.8670 H   0  0  0  0  0  0
  -25.1280  -36.1954   25.0822 H   0  0  0  0  0  0
  -20.9967  -28.3267   24.1417 H   0  0  0  0  0  0
  -20.5659  -26.2279   23.3642 H   0  0  0  0  0  0
  -21.6633  -26.7405   22.1240 H   0  0  0  0  0  0
  -19.6910  -25.6315   21.1217 H   0  0  0  0  0  0
  -19.6695  -27.3227   20.6785 H   0  0  0  0  0  0
  -17.4204  -26.6666   21.4023 H   0  0  0  0  0  0
  -18.0345  -26.0056   22.9032 H   0  0  0  0  0  0
  -19.7929  -30.7292   24.2204 H   0  0  0  0  0  0
  -17.4983  -31.6273   24.5136 H   0  0  0  0  0  0
  -15.5333  -30.2986   23.7620 H   0  0  0  0  0  0
  -15.8645  -28.0812   22.7085 H   0  0  0  0  0  0
  -24.5913  -30.7076   25.7826 H   0  0  0  0  0  0
  -24.8977  -32.2885   26.4931 H   0  0  0  0  0  0
  -25.8132  -30.8878   27.0225 H   0  0  0  0  0  0
  -26.2823  -29.6795   24.1172 H   0  0  0  0  0  0
  -27.4022  -29.7248   25.4608 H   0  0  0  0  0  0
  -27.8698  -30.4293   23.9291 H   0  0  0  0  0  0
  -27.2615  -33.3598   26.2100 H   0  0  0  0  0  0
  -28.3840  -32.6944   25.0333 H   0  0  0  0  0  0
  -28.0718  -31.8449   26.5401 H   0  0  0  0  0  0
  -28.2592  -38.0098   24.7516 H   0  0  0  0  0  0
  -28.1072  -36.2643   24.6263 H   0  0  0  0  0  0
  -27.2294  -37.1446   25.8856 H   0  0  0  0  0  0
  -20.9309  -29.8737   21.6912 H   0  0  0  0  0  0
  -26.0164  -38.2878   24.1431 H   0  0  0  0  0  0
  -28.8348  -18.1882   18.5458 H   0  0  0  0  0  0
  -30.5573  -18.1518   18.8917 H   0  0  0  0  0  0
  -30.3765  -15.9173   18.3296 H   0  0  0  0  0  0
  -28.6714  -15.8673   18.7049 H   0  0  0  0  0  0
  -29.7170  -16.5890   22.3091 H   0  0  0  0  0  0
  -31.1628  -17.0407   21.4055 H   0  0  0  0  0  0
  -28.2830  -17.8239   20.8686 H   0  0  0  0  0  0
  -22.7100  -23.5539   21.7178 H   0  0  0  0  0  0
  -23.7522  -24.8101   22.3728 H   0  0  0  0  0  0
  -23.9795  -23.1333   22.8643 H   0  0  0  0  0  0
  -30.6109  -19.7790   20.6188 H   0  0  0  0  0  0
  -29.9121  -19.4683   22.1757 H   0  0  0  0  0  0
  -24.3826  -24.1752   20.0120 H   0  0  0  0  0  0
  -24.6666  -22.5252   20.5301 H   0  0  0  0  0  0
  -26.4836  -23.2779   22.0532 H   0  0  0  0  0  0
  -26.1284  -24.9500   21.6487 H   0  0  0  0  0  0
  -27.9248  -20.6172   21.7380 H   0  0  0  0  0  0
  -27.8443  -20.0147   20.1224 H   0  0  0  0  0  0
  -28.6436  -22.8349   22.0633 H   0  0  0  0  0  0
  -30.1426  -23.1483   21.2264 H   0  0  0  0  0  0
  -28.0678  -25.7575   21.8899 H   0  0  0  0  0  0
  -29.6685  -25.6900   21.2602 H   0  0  0  0  0  0
  -28.9033  -24.2386   19.3570 H   0  0  0  0  0  0
  -26.6747  -24.5216   19.3957 H   0  0  0  0  0  0
  -28.0619  -22.0561   19.7204 H   0  0  0  0  0  0
  -29.6272  -21.6813   19.5396 H   0  0  0  0  0  0
  1 25  1  0  0  0
  1 30  2  0  0  0
  1 83  1  0  0  0
  2  3  1  0  0  0
  2 25  1  0  0  0
  2 86  1  0  0  0
  2 87  1  0  0  0
  3  4  1  0  0  0
  3 88  1  0  0  0
  3 89  1  0  0  0
  4  5  1  0  0  0
  4 90  1  0  0  0
  4 91  1  0  0  0
  5  6  1  0  0  0
  5 26  1  0  0  0
  5 92  1  0  0  0
  6 25  1  0  0  0
  6 93  1  0  0  0
  6 94  1  0  0  0
  7  8  2  0  0  0
  7 26  1  0  0  0
  7 29  1  0  0  0
  8  9  1  0  0  0
  8 22  1  0  0  0
  9 10  1  0  0  0
  9 27  2  0  0  0
 10 11  2  0  0  0
 10 15  1  0  0  0
 11 12  1  0  0  0
 11 95  1  0  0  0
 12 13  2  0  0  0
 12 96  1  0  0  0
 13 14  1  0  0  0
 13 31  1  0  0  0
 14 15  2  0  0  0
 14 97  1  0  0  0
 15 98  1  0  0  0
 16 17  2  0  0  0
 16 21  1  0  0  0
 16 31  1  0  0  0
 17 18  1  0  0  0
 17 99  1  0  0  0
 18 19  2  0  0  0
 18100  1  0  0  0
 19 20  1  0  0  0
 19 24  1  0  0  0
 20 21  2  0  0  0
 20101  1  0  0  0
 21 23  1  0  0  0
 22 28  1  0  0  0
 22 32  2  0  0  0
 26 27  1  0  0  0
 28102  1  0  0  0
 28103  1  0  0  0
 29104  1  0  0  0
 29105  1  0  0  0
 33 34  1  0  0  0
 33 66  1  0  0  0
 33 70  2  0  0  0
 34 36  1  0  0  0
 34 59  1  0  0  0
 34106  1  0  0  0
 35 44  2  0  0  0
 35 45  1  0  0  0
 35 68  1  0  0  0
 36 56  1  0  0  0
 36107  1  0  0  0
 37 39  1  0  0  0
 37 47  1  0  0  0
 37 66  1  0  0  0
 37108  1  0  0  0
 38 43  2  0  0  0
 38 46  1  0  0  0
 38 47  1  0  0  0
 39 64  1  0  0  0
 39 67  2  0  0  0
 40 52  1  0  0  0
 40 53  2  0  0  0
 40 58  1  0  0  0
 41109  1  0  0  0
 41110  1  0  0  0
 41111  1  0  0  0
 41 48  1  0  0  0
 42 43  1  0  0  0
 42 66  1  0  0  0
 42112  1  0  0  0
 42113  1  0  0  0
 43 44  1  0  0  0
 44114  1  0  0  0
 45 46  2  0  0  0
 45115  1  0  0  0
 46116  1  0  0  0
 47117  1  0  0  0
 47118  1  0  0  0
 48 56  1  0  0  0
 48 65  1  0  0  0
 48119  1  0  0  0
 49 50  1  0  0  0
 49 53  1  0  0  0
 49 64  1  0  0  0
 49120  1  0  0  0
 50 51  1  0  0  0
 50121  1  0  0  0
 50122  1  0  0  0
 51 52  1  0  0  0
 51123  1  0  0  0
 51124  1  0  0  0
 52125  1  0  0  0
 52126  1  0  0  0
 53 54  1  0  0  0
 54 55  2  0  0  0
 54127  1  0  0  0
 55 57  1  0  0  0
 55128  1  0  0  0
 56 69  2  0  0  0
 57 58  2  0  0  0
 57129  1  0  0  0
 58130  1  0  0  0
 59 60  1  0  0  0
 59 61  1  0  0  0
 59 62  1  0  0  0
 60131  1  0  0  0
 60132  1  0  0  0
 60133  1  0  0  0
 61134  1  0  0  0
 61135  1  0  0  0
 61136  1  0  0  0
 62137  1  0  0  0
 62138  1  0  0  0
 62139  1  0  0  0
 63 65  1  0  0  0
 63140  1  0  0  0
 63141  1  0  0  0
 63142  1  0  0  0
 64143  1  0  0  0
 65144  1  0  0  0
 68 81  1  0  0  0
 71 72  1  0  0  0
 71 74  1  0  0  0
 71145  1  0  0  0
 71146  1  0  0  0
 72 83  1  0  0  0
 72147  1  0  0  0
 72148  1  0  0  0
 73 74  1  0  0  0
 73 83  1  0  0  0
 73149  1  0  0  0
 73150  1  0  0  0
 74 76  1  0  0  0
 74151  1  0  0  0
 75 77  1  0  0  0
 75152  1  0  0  0
 75153  1  0  0  0
 75154  1  0  0  0
 76 79  1  0  0  0
 76155  1  0  0  0
 76156  1  0  0  0
 77 78  1  0  0  0
 77157  1  0  0  0
 77158  1  0  0  0
 78 84  1  0  0  0
 78159  1  0  0  0
 78160  1  0  0  0
 79 85  1  0  0  0
 79161  1  0  0  0
 79162  1  0  0  0
 80 85  1  0  0  0
 80163  1  0  0  0
 80164  1  0  0  0
 80 82  1  0  0  0
 81 82  1  0  0  0
 81165  1  0  0  0
 81166  1  0  0  0
 82 84  1  0  0  0
 82167  1  0  0  0
 84168  1  0  0  0
 85169  1  0  0  0
 85170  1  0  0  0
M  CHG  1  85   1
M  ISO  4   1 100  68 101  81 101  83 100
M  END
> <chiral flag>
0

> <version>
0

> <s_m_source_file>
/data/baiqing/PycharmProjects/Reinvent-master-3.2/result/LINK_invent/BTK/process_docking_weight1_custom_sum_contain_oxygen_bond_distance_aromatic_linkinvent_7_9_3/rearranged_h_0193.sdf

> <i_m_source_file_index>
17

> <r_mmod_Potential_Energy-OPLS-2005>
87.7549743652344

> <r_mmod_Stretch_Energy-OPLS-2005>
43.8056373596191

> <r_mmod_Bend_Energy-OPLS-2005>
151.7705078125

> <r_mmod_Torsional_Energy-OPLS-2005>
402.007446289062

> <r_mmod_Improper_Torsional_Energy-OPLS-2005>
15.0032291412354

> <r_mmod_Van_der_Waal_Energy-OPLS-2005>
115.706665039062

> <r_mmod_Electrostatic_Energy-OPLS-2005>
-239.211700439453

> <r_mmod_Solvation_Energy-OPLS-2005>
-426.4658203125

> <b_mmod_Minimization_Converged-OPLS-2005>
0

> <r_mmod_RMS_Derivative-OPLS-2005>
2.31715106964111

$$$$
17
                    3D
 Structure written by MMmdl.
156165  0  0  1  0            999 V2000
  -30.6207  -14.7900   20.4406 C   0  0  0  0  0  0
  -30.4397  -12.5018   19.4414 C   0  0  0  0  0  0
  -29.5019  -12.4954   18.2159 C   0  0  0  0  0  0
  -28.0383  -12.2713   18.6450 C   0  0  0  0  0  0
  -27.6279  -13.1816   19.8283 C   0  0  2  0  0  0
  -28.6902  -13.1692   20.9560 C   0  0  0  0  0  0
  -25.2451  -13.8031   20.5602 C   0  0  0  0  0  0
  -24.1753  -13.0331   20.9224 C   0  0  0  0  0  0
  -24.6329  -11.6816   20.8810 C   0  0  0  0  0  0
  -23.8995  -10.4227   21.0457 C   0  0  0  0  0  0
  -24.3550   -9.4156   21.9225 C   0  0  0  0  0  0
  -23.6243   -8.2195   22.0784 C   0  0  0  0  0  0
  -22.4229   -8.0246   21.3569 C   0  0  0  0  0  0
  -21.9864   -9.0211   20.4671 C   0  0  0  0  0  0
  -22.7183  -10.2091   20.3099 C   0  0  0  0  0  0
  -21.6847   -6.0697   22.5267 C   0  0  0  0  0  0
  -21.4010   -6.5614   23.8192 C   0  0  0  0  0  0
  -21.3655   -5.6782   24.9158 C   0  0  0  0  0  0
  -21.6055   -4.3049   24.7219 C   0  0  0  0  0  0
  -21.8827   -3.8125   23.4346 C   0  0  0  0  0  0
  -21.9208   -4.6932   22.3396 C   0  0  0  0  0  0
  -22.7792  -13.5175   21.1848 C   0  0  0  0  0  0
  -22.1671   -4.2111   21.0970 F   0  0  0  0  0  0
  -21.5633   -3.4542   25.7736 F   0  0  0  0  0  0
  -29.9664  -13.5735   20.3524 N   0  0  0  0  0  0
  -26.2860  -12.9141   20.3228 N   0  0  0  0  0  0
  -25.9239  -11.6346   20.5795 N   0  0  0  0  0  0
  -22.0431  -12.8210   22.0411 N   0  0  0  0  0  0
  -25.3963  -15.1738   20.3824 N   0  0  0  0  0  0
  -31.8367  -14.8151   20.2232 O   0  0  0  0  0  0
  -21.6630   -6.8830   21.4230 O   0  0  0  0  0  0
  -22.3495  -14.5473   20.6681 O   0  0  0  0  0  0
  -24.6284  -31.8590   23.2004 C   0  0  0  0  0  0
  -25.9116  -32.4780   23.8343 C   0  0  1  0  0  0
  -27.2261  -27.2941   20.1340 C   0  0  0  0  0  0
  -25.5931  -33.8579   24.2295 N   0  0  0  0  0  0
  -23.4237  -30.4822   21.5434 C   0  0  2  0  0  0
  -24.8728  -28.9321   20.1131 C   0  0  0  0  0  0
  -22.7478  -29.4628   22.4927 C   0  0  0  0  0  0
  -18.0290  -28.1377   22.8501 C   0  0  0  0  0  0
  -24.1485  -36.7286   23.2634 C   0  0  0  0  0  0
  -25.9652  -30.7852   21.3716 C   0  0  0  0  0  0
  -26.0410  -29.4064   20.7216 C   0  0  0  0  0  0
  -27.2224  -28.6002   20.7196 C   0  0  0  0  0  0
  -26.0373  -26.8849   19.4876 C   0  0  0  0  0  0
  -24.8748  -27.6780   19.4843 C   0  0  0  0  0  0
  -23.6397  -29.8125   20.1603 C   0  0  0  0  0  0
  -25.4109  -36.3094   24.0336 C   0  0  1  0  0  0
  -20.5887  -28.3696   23.1283 C   0  0  2  0  0  0
  -20.6776  -26.9423   22.5412 C   0  0  0  0  0  0
  -19.5753  -26.6382   21.5218 C   0  0  0  0  0  0
  -18.1933  -26.7924   22.1625 C   0  0  0  0  0  0
  -19.1540  -28.8854   23.2889 C   0  0  0  0  0  0
  -18.9449  -30.1452   23.8912 C   0  0  0  0  0  0
  -17.6448  -30.6593   24.0547 C   0  0  0  0  0  0
  -25.9051  -34.9458   23.5123 C   0  0  0  0  0  0
  -16.5348  -29.9091   23.6320 C   0  0  0  0  0  0
  -16.7275  -28.6494   23.0375 C   0  0  0  0  0  0
  -26.4499  -31.6562   25.0699 C   0  0  0  0  0  0
  -25.3716  -31.3661   26.1408 C   0  0  0  0  0  0
  -27.0331  -30.2993   24.6111 C   0  0  0  0  0  0
  -27.6083  -32.4248   25.7470 C   0  0  0  0  0  0
  -27.5593  -37.1794   24.8457 C   0  0  0  0  0  0
  -21.4188  -29.3051   22.3669 N   0  0  0  0  0  0
  -26.4292  -37.3789   23.9420 N   0  0  0  0  0  0
  -24.6919  -31.0583   22.0965 N   0  0  0  0  0  0
  -23.4187  -28.8175   23.3024 O   0  0  0  0  0  0
  -28.3358  -26.4272   20.1670 O   0  0  0  0  0  0
  -26.5620  -34.8928   22.4686 O   0  0  0  0  0  0
  -23.5444  -32.1394   23.7331 O   0  0  0  0  0  0
  -29.5977  -21.2917   22.8737 C   0  0  0  0  0  0
  -29.4014  -22.4563   22.2155 C   0  0  0  0  0  0
  -29.5055  -19.9921   20.9508 C   0  0  0  0  0  0
  -29.2662  -21.3275   20.1015 C   0  0  0  0  0  0
  -28.2045  -17.7660   20.6427 C   0  0  0  0  0  0
  -28.5109  -16.2894   20.3284 C   0  0  0  0  0  0
  -30.5385  -17.4007   20.6788 C   0  0  0  0  0  0
  -29.4752  -18.5326   20.2896 C   0  0  2  0  0  0
  -29.2962  -23.9278   20.2154 C   0  0  0  0  0  0
  -28.1104  -24.9775   20.4687 C   0  0  0  0  0  0
  -29.6649  -20.0550   22.2218 N   0  0  0  0  0  0
  -29.2454  -22.5239   20.8189 N   0  0  0  0  0  0
  -29.9321  -16.0124   20.5767 N   0  0  0  0  0  0
  -29.1290  -21.2813   18.8735 O   0  0  0  0  0  0
  -31.4686  -12.6607   19.1105 H   0  0  0  0  0  0
  -30.4321  -11.5341   19.9448 H   0  0  0  0  0  0
  -29.8025  -11.7218   17.5093 H   0  0  0  0  0  0
  -29.5909  -13.4448   17.6862 H   0  0  0  0  0  0
  -27.9313  -11.2252   18.9310 H   0  0  0  0  0  0
  -27.3701  -12.4265   17.7973 H   0  0  0  0  0  0
  -27.5742  -14.1546   19.3643 H   0  0  0  0  0  0
  -28.7750  -12.1726   21.3911 H   0  0  0  0  0  0
  -28.4168  -13.8195   21.7865 H   0  0  0  0  0  0
  -25.2697   -9.5632   22.4779 H   0  0  0  0  0  0
  -23.9966   -7.4584   22.7496 H   0  0  0  0  0  0
  -21.0811   -8.8726   19.8950 H   0  0  0  0  0  0
  -22.3671  -10.9626   19.6201 H   0  0  0  0  0  0
  -21.1989   -7.6125   23.9672 H   0  0  0  0  0  0
  -21.1483   -6.0516   25.9054 H   0  0  0  0  0  0
  -22.0616   -2.7588   23.2859 H   0  0  0  0  0  0
  -22.4062  -11.9886   22.4799 H   0  0  0  0  0  0
  -21.1060  -13.1279   22.2594 H   0  0  0  0  0  0
  -24.6137  -15.8118   20.4717 H   0  0  0  0  0  0
  -26.2270  -15.6216   20.0180 H   0  0  0  0  0  0
  -26.7188  -32.5457   23.1095 H   0  0  0  0  0  0
  -25.0067  -33.9698   25.0439 H   0  0  0  0  0  0
  -22.7195  -31.3032   21.3979 H   0  0  0  0  0  0
  -23.3771  -35.9594   23.3264 H   0  0  0  0  0  0
  -24.3590  -36.8933   22.2055 H   0  0  0  0  0  0
  -23.7203  -37.6467   23.6664 H   0  0  0  0  0  0
  -26.0843  -31.5422   20.5951 H   0  0  0  0  0  0
  -26.8510  -30.8483   21.9922 H   0  0  0  0  0  0
  -28.1195  -28.9609   21.2030 H   0  0  0  0  0  0
  -25.9825  -25.9382   18.9723 H   0  0  0  0  0  0
  -23.9831  -27.3127   18.9940 H   0  0  0  0  0  0
  -23.7554  -30.5853   19.4012 H   0  0  0  0  0  0
  -22.7609  -29.2388   19.8618 H   0  0  0  0  0  0
  -25.1284  -36.1952   25.0826 H   0  0  0  0  0  0
  -20.9985  -28.3282   24.1396 H   0  0  0  0  0  0
  -20.5702  -26.2304   23.3608 H   0  0  0  0  0  0
  -21.6644  -26.7454   22.1203 H   0  0  0  0  0  0
  -19.6920  -25.6291   21.1259 H   0  0  0  0  0  0
  -19.6702  -27.3183   20.6742 H   0  0  0  0  0  0
  -17.4207  -26.6681   21.4021 H   0  0  0  0  0  0
  -18.0331  -26.0065   22.9016 H   0  0  0  0  0  0
  -19.7916  -30.7261   24.2309 H   0  0  0  0  0  0
  -17.4999  -31.6275   24.5137 H   0  0  0  0  0  0
  -15.5356  -30.2993   23.7623 H   0  0  0  0  0  0
  -15.8669  -28.0803   22.7110 H   0  0  0  0  0  0
  -24.5938  -30.6979   25.7693 H   0  0  0  0  0  0
  -24.8850  -32.2801   26.4819 H   0  0  0  0  0  0
  -25.8036  -30.8834   27.0184 H   0  0  0  0  0  0
  -26.2883  -29.6749   24.1168 H   0  0  0  0  0  0
  -27.4082  -29.7245   25.4587 H   0  0  0  0  0  0
  -27.8732  -30.4299   23.9286 H   0  0  0  0  0  0
  -27.2765  -33.3571   26.2043 H   0  0  0  0  0  0
  -28.3916  -32.6743   25.0300 H   0  0  0  0  0  0
  -28.0721  -31.8339   26.5383 H   0  0  0  0  0  0
  -28.2571  -38.0133   24.7585 H   0  0  0  0  0  0
  -28.1131  -36.2672   24.6186 H   0  0  0  0  0  0
  -27.2312  -37.1317   25.8855 H   0  0  0  0  0  0
  -20.9369  -29.8751   21.6854 H   0  0  0  0  0  0
  -26.0177  -38.2856   24.1459 H   0  0  0  0  0  0
  -29.7211  -21.2695   23.9500 H   0  0  0  0  0  0
  -29.3706  -23.4134   22.7210 H   0  0  0  0  0  0
  -27.9997  -17.8580   21.7121 H   0  0  0  0  0  0
  -27.3174  -18.1325   20.1230 H   0  0  0  0  0  0
  -28.3090  -16.1212   19.2697 H   0  0  0  0  0  0
  -27.8594  -15.6775   20.9404 H   0  0  0  0  0  0
  -30.8699  -17.5356   21.7079 H   0  0  0  0  0  0
  -31.4288  -17.4842   20.0512 H   0  0  0  0  0  0
  -29.5013  -18.6586   19.2053 H   0  0  0  0  0  0
  -30.2073  -24.3797   20.6096 H   0  0  0  0  0  0
  -29.4726  -23.8573   19.1434 H   0  0  0  0  0  0
  -27.8235  -24.9288   21.5191 H   0  0  0  0  0  0
  -27.2528  -24.5920   19.9215 H   0  0  0  0  0  0
  1 25  1  0  0  0
  1 30  2  0  0  0
  1 83  1  0  0  0
  2  3  1  0  0  0
  2 25  1  0  0  0
  2 85  1  0  0  0
  2 86  1  0  0  0
  3  4  1  0  0  0
  3 87  1  0  0  0
  3 88  1  0  0  0
  4  5  1  0  0  0
  4 89  1  0  0  0
  4 90  1  0  0  0
  5  6  1  0  0  0
  5 26  1  0  0  0
  5 91  1  0  0  0
  6 25  1  0  0  0
  6 92  1  0  0  0
  6 93  1  0  0  0
  7  8  2  0  0  0
  7 26  1  0  0  0
  7 29  1  0  0  0
  8  9  1  0  0  0
  8 22  1  0  0  0
  9 10  1  0  0  0
  9 27  2  0  0  0
 10 11  2  0  0  0
 10 15  1  0  0  0
 11 12  1  0  0  0
 11 94  1  0  0  0
 12 13  2  0  0  0
 12 95  1  0  0  0
 13 14  1  0  0  0
 13 31  1  0  0  0
 14 15  2  0  0  0
 14 96  1  0  0  0
 15 97  1  0  0  0
 16 17  2  0  0  0
 16 21  1  0  0  0
 16 31  1  0  0  0
 17 18  1  0  0  0
 17 98  1  0  0  0
 18 19  2  0  0  0
 18 99  1  0  0  0
 19 20  1  0  0  0
 19 24  1  0  0  0
 20 21  2  0  0  0
 20100  1  0  0  0
 21 23  1  0  0  0
 22 28  1  0  0  0
 22 32  2  0  0  0
 26 27  1  0  0  0
 28101  1  0  0  0
 28102  1  0  0  0
 29103  1  0  0  0
 29104  1  0  0  0
 33 34  1  0  0  0
 33 66  1  0  0  0
 33 70  2  0  0  0
 34 36  1  0  0  0
 34 59  1  0  0  0
 34105  1  0  0  0
 35 44  2  0  0  0
 35 45  1  0  0  0
 35 68  1  0  0  0
 36 56  1  0  0  0
 36106  1  0  0  0
 37 39  1  0  0  0
 37 47  1  0  0  0
 37 66  1  0  0  0
 37107  1  0  0  0
 38 43  2  0  0  0
 38 46  1  0  0  0
 38 47  1  0  0  0
 39 64  1  0  0  0
 39 67  2  0  0  0
 40 52  1  0  0  0
 40 53  2  0  0  0
 40 58  1  0  0  0
 41108  1  0  0  0
 41109  1  0  0  0
 41110  1  0  0  0
 41 48  1  0  0  0
 42 43  1  0  0  0
 42 66  1  0  0  0
 42111  1  0  0  0
 42112  1  0  0  0
 43 44  1  0  0  0
 44113  1  0  0  0
 45 46  2  0  0  0
 45114  1  0  0  0
 46115  1  0  0  0
 47116  1  0  0  0
 47117  1  0  0  0
 48 56  1  0  0  0
 48 65  1  0  0  0
 48118  1  0  0  0
 49 50  1  0  0  0
 49 53  1  0  0  0
 49 64  1  0  0  0
 49119  1  0  0  0
 50 51  1  0  0  0
 50120  1  0  0  0
 50121  1  0  0  0
 51 52  1  0  0  0
 51122  1  0  0  0
 51123  1  0  0  0
 52124  1  0  0  0
 52125  1  0  0  0
 53 54  1  0  0  0
 54 55  2  0  0  0
 54126  1  0  0  0
 55 57  1  0  0  0
 55127  1  0  0  0
 56 69  2  0  0  0
 57 58  2  0  0  0
 57128  1  0  0  0
 58129  1  0  0  0
 59 60  1  0  0  0
 59 61  1  0  0  0
 59 62  1  0  0  0
 60130  1  0  0  0
 60131  1  0  0  0
 60132  1  0  0  0
 61133  1  0  0  0
 61134  1  0  0  0
 61135  1  0  0  0
 62136  1  0  0  0
 62137  1  0  0  0
 62138  1  0  0  0
 63 65  1  0  0  0
 63139  1  0  0  0
 63140  1  0  0  0
 63141  1  0  0  0
 64142  1  0  0  0
 65143  1  0  0  0
 68 80  1  0  0  0
 71 72  2  0  0  0
 71 81  1  0  0  0
 71144  1  0  0  0
 72 82  1  0  0  0
 72145  1  0  0  0
 73 74  1  0  0  0
 73 81  2  0  0  0
 73 78  1  0  0  0
 74 82  1  0  0  0
 74 84  2  0  0  0
 75 76  1  0  0  0
 75 78  1  0  0  0
 75146  1  0  0  0
 75147  1  0  0  0
 76 83  1  0  0  0
 76148  1  0  0  0
 76149  1  0  0  0
 77 78  1  0  0  0
 77 83  1  0  0  0
 77150  1  0  0  0
 77151  1  0  0  0
 78152  1  0  0  0
 79 80  1  0  0  0
 79 82  1  0  0  0
 79153  1  0  0  0
 79154  1  0  0  0
 80155  1  0  0  0
 80156  1  0  0  0
M  ISO  4   1 100  68 101  80 101  83 100
M  END
> <chiral flag>
0

> <version>
0

> <s_m_source_file>
/data/baiqing/PycharmProjects/Reinvent-master-3.2/result/LINK_invent/BTK/process_docking_weight1_custom_sum_contain_oxygen_bond_distance_aromatic_linkinvent_7_9_3/rearranged_h_0193.sdf

> <i_m_source_file_index>
18

> <r_mmod_Potential_Energy-OPLS-2005>
475.685424804688

> <r_mmod_Stretch_Energy-OPLS-2005>
127.154098510742

> <r_mmod_Bend_Energy-OPLS-2005>
196.172454833984

> <r_mmod_Torsional_Energy-OPLS-2005>
323.764221191406

> <r_mmod_Improper_Torsional_Energy-OPLS-2005>
5.26852512359619

> <r_mmod_Van_der_Waal_Energy-OPLS-2005>
160.807922363281

> <r_mmod_Electrostatic_Energy-OPLS-2005>
-205.764892578125

> <r_mmod_Solvation_Energy-OPLS-2005>
-222.061248779297

> <b_mmod_Minimization_Converged-OPLS-2005>
0

> <r_mmod_RMS_Derivative-OPLS-2005>
3.32372832298279

$$$$
18
                    3D
 Structure written by MMmdl.
172182  0  0  1  0            999 V2000
  -30.7504  -14.4245   20.5522 C   0  0  0  0  0  0
  -30.4014  -12.2687   19.4219 C   0  0  0  0  0  0
  -29.4835  -12.4695   18.1993 C   0  0  0  0  0  0
  -28.0047  -12.3496   18.6183 C   0  0  0  0  0  0
  -27.6561  -13.2049   19.8667 C   0  0  2  0  0  0
  -28.7012  -12.9959   20.9867 C   0  0  0  0  0  0
  -25.2528  -13.8115   20.5579 C   0  0  0  0  0  0
  -24.1805  -13.0413   20.9195 C   0  0  0  0  0  0
  -24.6372  -11.6889   20.8777 C   0  0  0  0  0  0
  -23.9044  -10.4291   21.0431 C   0  0  0  0  0  0
  -24.3592   -9.4204   21.9197 C   0  0  0  0  0  0
  -23.6270   -8.2240   22.0760 C   0  0  0  0  0  0
  -22.4258   -8.0279   21.3540 C   0  0  0  0  0  0
  -21.9883   -9.0259   20.4651 C   0  0  0  0  0  0
  -22.7218  -10.2140   20.3078 C   0  0  0  0  0  0
  -21.6842   -6.0730   22.5290 C   0  0  0  0  0  0
  -21.4007   -6.5630   23.8219 C   0  0  0  0  0  0
  -21.3664   -5.6773   24.9179 C   0  0  0  0  0  0
  -21.6050   -4.3041   24.7221 C   0  0  0  0  0  0
  -21.8812   -3.8137   23.4345 C   0  0  0  0  0  0
  -21.9174   -4.6960   22.3401 C   0  0  0  0  0  0
  -22.7847  -13.5244   21.1849 C   0  0  0  0  0  0
  -22.1645   -4.2141   21.0978 F   0  0  0  0  0  0
  -21.5632   -3.4531   25.7739 F   0  0  0  0  0  0
  -30.0250  -13.2840   20.4169 N   0  0  0  0  0  0
  -26.2987  -12.9300   20.3357 N   0  0  0  0  0  0
  -25.9303  -11.6468   20.5852 N   0  0  0  0  0  0
  -22.0449  -12.8283   22.0418 N   0  0  0  0  0  0
  -25.4181  -15.1771   20.3750 N   0  0  0  0  0  0
  -31.9065  -14.5106   20.1276 O   0  0  0  0  0  0
  -21.6619   -6.8883   21.4254 O   0  0  0  0  0  0
  -22.3580  -14.5561   20.6709 O   0  0  0  0  0  0
  -24.6202  -31.8652   23.2180 C   0  0  0  0  0  0
  -25.9095  -32.4826   23.8403 C   0  0  1  0  0  0
  -27.2317  -27.4350   20.0849 C   0  0  0  0  0  0
  -25.5929  -33.8597   24.2328 N   0  0  0  0  0  0
  -23.4074  -30.5059   21.5486 C   0  0  2  0  0  0
  -24.8515  -28.9734   20.1161 C   0  0  0  0  0  0
  -22.7390  -29.4757   22.4919 C   0  0  0  0  0  0
  -18.0318  -28.1308   22.8578 C   0  0  0  0  0  0
  -24.1501  -36.7326   23.2620 C   0  0  0  0  0  0
  -25.9385  -30.8373   21.3721 C   0  0  0  0  0  0
  -26.0139  -29.4721   20.7168 C   0  0  0  0  0  0
  -27.2047  -28.7080   20.7037 C   0  0  0  0  0  0
  -26.0478  -26.9616   19.4716 C   0  0  0  0  0  0
  -24.8613  -27.7135   19.5008 C   0  0  0  0  0  0
  -23.6212  -29.8503   20.1594 C   0  0  0  0  0  0
  -25.4109  -36.3086   24.0319 C   0  0  1  0  0  0
  -20.5871  -28.3779   23.1351 C   0  0  2  0  0  0
  -20.6851  -26.9479   22.5544 C   0  0  0  0  0  0
  -19.5857  -26.6341   21.5353 C   0  0  0  0  0  0
  -18.2044  -26.7806   22.1809 C   0  0  0  0  0  0
  -19.1520  -28.8850   23.2941 C   0  0  0  0  0  0
  -18.9445  -30.1495   23.8876 C   0  0  0  0  0  0
  -17.6438  -30.6618   24.0502 C   0  0  0  0  0  0
  -25.9042  -34.9447   23.5115 C   0  0  0  0  0  0
  -16.5345  -29.9067   23.6276 C   0  0  0  0  0  0
  -16.7293  -28.6443   23.0391 C   0  0  0  0  0  0
  -26.4499  -31.6597   25.0720 C   0  0  0  0  0  0
  -25.3745  -31.3756   26.1469 C   0  0  0  0  0  0
  -27.0317  -30.3030   24.6123 C   0  0  0  0  0  0
  -27.6102  -32.4283   25.7444 C   0  0  0  0  0  0
  -27.5583  -37.1823   24.8444 C   0  0  0  0  0  0
  -21.4103  -29.3160   22.3705 N   0  0  0  0  0  0
  -26.4286  -37.3776   23.9405 N   0  0  0  0  0  0
  -24.6740  -31.0796   22.1066 N   0  0  0  0  0  0
  -23.4131  -28.8233   23.2919 O   0  0  0  0  0  0
  -28.4126  -26.7143   20.0883 O   0  0  0  0  0  0
  -26.5587  -34.8897   22.4663 O   0  0  0  0  0  0
  -23.5402  -32.1353   23.7622 O   0  0  0  0  0  0
  -28.2111  -16.3818   22.3477 C   0  0  0  0  0  0
  -26.4040  -16.6172   23.6047 C   0  0  0  0  0  0
  -26.6278  -17.7945   21.7605 C   0  0  0  0  0  0
  -30.7267  -17.0559   22.1218 C   0  0  0  0  0  0
  -24.7475  -22.3485   20.8646 C   0  0  0  0  0  0
  -30.6704  -16.8926   20.6056 C   0  0  0  0  0  0
  -25.4416  -23.6606   20.4544 C   0  0  0  0  0  0
  -27.0883  -21.9843   20.7890 C   0  0  0  0  0  0
  -29.6701  -15.9544   22.2004 C   0  0  2  0  0  0
  -25.7598  -21.2464   20.5592 C   0  0  1  0  0  0
  -25.5606  -16.2228   24.7966 C   0  0  0  0  0  0
  -25.5311  -19.9823   21.4229 C   0  0  0  0  0  0
  -27.8435  -24.3830   20.7469 C   0  0  0  0  0  0
  -28.3948  -25.3445   19.6535 C   0  0  0  0  0  0
  -27.5786  -16.0095   23.4564 N   0  0  0  0  0  0
  -27.7594  -17.2287   21.4233 N   0  0  0  0  0  0
  -25.8919  -17.5644   22.8308 N   0  0  0  0  0  0
  -30.0818  -15.5549   20.8438 N   0  0  0  0  0  0
  -26.2329  -18.8052   20.9232 N   0  0  0  0  0  0
  -26.8822  -23.3498   20.2486 N   0  3  2  0  0  0
  -31.4513  -12.3141   19.1243 H   0  0  0  0  0  0
  -30.2612  -11.2697   19.8377 H   0  0  0  0  0  0
  -29.7111  -11.7297   17.4296 H   0  0  0  0  0  0
  -29.6696  -13.4440   17.7459 H   0  0  0  0  0  0
  -27.8084  -11.2978   18.8310 H   0  0  0  0  0  0
  -27.3546  -12.6118   17.7856 H   0  0  0  0  0  0
  -27.6981  -14.2508   19.5592 H   0  0  0  0  0  0
  -28.6738  -11.9612   21.3301 H   0  0  0  0  0  0
  -28.4770  -13.5988   21.8650 H   0  0  0  0  0  0
  -25.2729   -9.5683   22.4785 H   0  0  0  0  0  0
  -23.9962   -7.4630   22.7488 H   0  0  0  0  0  0
  -21.0799   -8.8795   19.8967 H   0  0  0  0  0  0
  -22.3670  -10.9692   19.6208 H   0  0  0  0  0  0
  -21.2015   -7.6136   23.9726 H   0  0  0  0  0  0
  -21.1491   -6.0505   25.9077 H   0  0  0  0  0  0
  -22.0586   -2.7601   23.2854 H   0  0  0  0  0  0
  -22.3962  -11.9928   22.4851 H   0  0  0  0  0  0
  -21.1111  -13.1423   22.2607 H   0  0  0  0  0  0
  -24.6350  -15.8197   20.4213 H   0  0  0  0  0  0
  -26.2552  -15.5915   19.9848 H   0  0  0  0  0  0
  -26.7148  -32.5560   23.1154 H   0  0  0  0  0  0
  -25.0115  -33.9681   25.0497 H   0  0  0  0  0  0
  -22.7009  -31.3286   21.4091 H   0  0  0  0  0  0
  -23.3723  -35.9691   23.3280 H   0  0  0  0  0  0
  -24.3641  -36.8970   22.2047 H   0  0  0  0  0  0
  -23.7300  -37.6554   23.6641 H   0  0  0  0  0  0
  -26.0365  -31.6154   20.6135 H   0  0  0  0  0  0
  -26.8280  -30.8863   21.9920 H   0  0  0  0  0  0
  -28.1008  -29.0981   21.1649 H   0  0  0  0  0  0
  -26.0082  -26.0249   18.9435 H   0  0  0  0  0  0
  -23.9658  -27.3299   19.0306 H   0  0  0  0  0  0
  -23.7483  -30.6253   19.3988 H   0  0  0  0  0  0
  -22.7411  -29.2840   19.8606 H   0  0  0  0  0  0
  -25.1289  -36.1925   25.0807 H   0  0  0  0  0  0
  -20.9909  -28.3488   24.1502 H   0  0  0  0  0  0
  -20.5901  -26.2429   23.3831 H   0  0  0  0  0  0
  -21.6731  -26.7611   22.1323 H   0  0  0  0  0  0
  -19.7089  -25.6282   21.1280 H   0  0  0  0  0  0
  -19.6780  -27.3205   20.6898 H   0  0  0  0  0  0
  -17.4373  -26.6450   21.4200 H   0  0  0  0  0  0
  -18.0520  -25.9982   22.9253 H   0  0  0  0  0  0
  -19.7911  -30.7368   24.2169 H   0  0  0  0  0  0
  -17.4974  -31.6346   24.4960 H   0  0  0  0  0  0
  -15.5361  -30.3016   23.7515 H   0  0  0  0  0  0
  -15.8696  -28.0793   22.7063 H   0  0  0  0  0  0
  -24.5899  -30.7094   25.7862 H   0  0  0  0  0  0
  -24.8899  -32.2928   26.4826 H   0  0  0  0  0  0
  -25.8053  -30.9009   27.0283 H   0  0  0  0  0  0
  -26.2845  -29.6809   24.1193 H   0  0  0  0  0  0
  -27.4110  -29.7280   25.4583 H   0  0  0  0  0  0
  -27.8673  -30.4360   23.9242 H   0  0  0  0  0  0
  -27.2759  -33.3576   26.2058 H   0  0  0  0  0  0
  -28.3880  -32.6879   25.0239 H   0  0  0  0  0  0
  -28.0792  -31.8361   26.5318 H   0  0  0  0  0  0
  -28.2601  -38.0121   24.7483 H   0  0  0  0  0  0
  -28.1086  -36.2667   24.6252 H   0  0  0  0  0  0
  -27.2321  -37.1460   25.8851 H   0  0  0  0  0  0
  -20.9212  -29.8951   21.7022 H   0  0  0  0  0  0
  -26.0187  -38.2850   24.1414 H   0  0  0  0  0  0
  -30.4040  -18.0326   22.4845 H   0  0  0  0  0  0
  -31.6867  -16.7575   22.5432 H   0  0  0  0  0  0
  -23.7969  -22.1982   20.3486 H   0  0  0  0  0  0
  -24.5400  -22.3635   21.9354 H   0  0  0  0  0  0
  -31.6512  -16.9280   20.1286 H   0  0  0  0  0  0
  -30.0006  -17.5894   20.0983 H   0  0  0  0  0  0
  -25.2764  -24.4154   21.2246 H   0  0  0  0  0  0
  -25.0172  -24.0433   19.5270 H   0  0  0  0  0  0
  -27.9317  -21.4852   20.3104 H   0  0  0  0  0  0
  -27.2886  -22.0341   21.8594 H   0  0  0  0  0  0
  -29.9315  -15.2275   22.9728 H   0  0  0  0  0  0
  -25.6724  -21.0009   19.4990 H   0  0  0  0  0  0
  -26.0662  -15.4842   25.4154 H   0  0  0  0  0  0
  -24.6148  -15.7967   24.4603 H   0  0  0  0  0  0
  -25.3419  -17.0928   25.4165 H   0  0  0  0  0  0
  -24.4676  -19.7412   21.4389 H   0  0  0  0  0  0
  -25.8169  -20.1704   22.4610 H   0  0  0  0  0  0
  -27.4055  -24.9470   21.5695 H   0  0  0  0  0  0
  -28.7067  -23.8840   21.1903 H   0  0  0  0  0  0
  -27.9124  -25.2307   18.6814 H   0  0  0  0  0  0
  -29.4305  -25.0645   19.4531 H   0  0  0  0  0  0
  -26.8193  -18.9065   20.1057 H   0  0  0  0  0  0
  -27.0128  -23.2585   19.2505 H   0  0  0  0  0  0
  1 25  1  0  0  0
  1 30  2  0  0  0
  1 88  1  0  0  0
  2  3  1  0  0  0
  2 25  1  0  0  0
  2 91  1  0  0  0
  2 92  1  0  0  0
  3  4  1  0  0  0
  3 93  1  0  0  0
  3 94  1  0  0  0
  4  5  1  0  0  0
  4 95  1  0  0  0
  4 96  1  0  0  0
  5  6  1  0  0  0
  5 26  1  0  0  0
  5 97  1  0  0  0
  6 25  1  0  0  0
  6 98  1  0  0  0
  6 99  1  0  0  0
  7  8  2  0  0  0
  7 26  1  0  0  0
  7 29  1  0  0  0
  8  9  1  0  0  0
  8 22  1  0  0  0
  9 10  1  0  0  0
  9 27  2  0  0  0
 10 11  2  0  0  0
 10 15  1  0  0  0
 11 12  1  0  0  0
 11100  1  0  0  0
 12 13  2  0  0  0
 12101  1  0  0  0
 13 14  1  0  0  0
 13 31  1  0  0  0
 14 15  2  0  0  0
 14102  1  0  0  0
 15103  1  0  0  0
 16 17  2  0  0  0
 16 21  1  0  0  0
 16 31  1  0  0  0
 17 18  1  0  0  0
 17104  1  0  0  0
 18 19  2  0  0  0
 18105  1  0  0  0
 19 20  1  0  0  0
 19 24  1  0  0  0
 20 21  2  0  0  0
 20106  1  0  0  0
 21 23  1  0  0  0
 22 28  1  0  0  0
 22 32  2  0  0  0
 26 27  1  0  0  0
 28107  1  0  0  0
 28108  1  0  0  0
 29109  1  0  0  0
 29110  1  0  0  0
 33 34  1  0  0  0
 33 66  1  0  0  0
 33 70  2  0  0  0
 34 36  1  0  0  0
 34 59  1  0  0  0
 34111  1  0  0  0
 35 44  2  0  0  0
 35 45  1  0  0  0
 35 68  1  0  0  0
 36 56  1  0  0  0
 36112  1  0  0  0
 37 39  1  0  0  0
 37 47  1  0  0  0
 37 66  1  0  0  0
 37113  1  0  0  0
 38 43  2  0  0  0
 38 46  1  0  0  0
 38 47  1  0  0  0
 39 64  1  0  0  0
 39 67  2  0  0  0
 40 52  1  0  0  0
 40 53  2  0  0  0
 40 58  1  0  0  0
 41114  1  0  0  0
 41115  1  0  0  0
 41116  1  0  0  0
 41 48  1  0  0  0
 42 43  1  0  0  0
 42 66  1  0  0  0
 42117  1  0  0  0
 42118  1  0  0  0
 43 44  1  0  0  0
 44119  1  0  0  0
 45 46  2  0  0  0
 45120  1  0  0  0
 46121  1  0  0  0
 47122  1  0  0  0
 47123  1  0  0  0
 48 56  1  0  0  0
 48 65  1  0  0  0
 48124  1  0  0  0
 49 50  1  0  0  0
 49 53  1  0  0  0
 49 64  1  0  0  0
 49125  1  0  0  0
 50 51  1  0  0  0
 50126  1  0  0  0
 50127  1  0  0  0
 51 52  1  0  0  0
 51128  1  0  0  0
 51129  1  0  0  0
 52130  1  0  0  0
 52131  1  0  0  0
 53 54  1  0  0  0
 54 55  2  0  0  0
 54132  1  0  0  0
 55 57  1  0  0  0
 55133  1  0  0  0
 56 69  2  0  0  0
 57 58  2  0  0  0
 57134  1  0  0  0
 58135  1  0  0  0
 59 60  1  0  0  0
 59 61  1  0  0  0
 59 62  1  0  0  0
 60136  1  0  0  0
 60137  1  0  0  0
 60138  1  0  0  0
 61139  1  0  0  0
 61140  1  0  0  0
 61141  1  0  0  0
 62142  1  0  0  0
 62143  1  0  0  0
 62144  1  0  0  0
 63 65  1  0  0  0
 63145  1  0  0  0
 63146  1  0  0  0
 63147  1  0  0  0
 64148  1  0  0  0
 65149  1  0  0  0
 68 84  1  0  0  0
 71 85  1  0  0  0
 71 86  2  0  0  0
 71 79  1  0  0  0
 72 81  1  0  0  0
 72 85  2  0  0  0
 72 87  1  0  0  0
 73 86  1  0  0  0
 73 87  2  0  0  0
 73 89  1  0  0  0
 74 76  1  0  0  0
 74 79  1  0  0  0
 74150  1  0  0  0
 74151  1  0  0  0
 75 77  1  0  0  0
 75 80  1  0  0  0
 75152  1  0  0  0
 75153  1  0  0  0
 76 88  1  0  0  0
 76154  1  0  0  0
 76155  1  0  0  0
 77 90  1  0  0  0
 77156  1  0  0  0
 77157  1  0  0  0
 78 80  1  0  0  0
 78 90  1  0  0  0
 78158  1  0  0  0
 78159  1  0  0  0
 79 88  1  0  0  0
 79160  1  0  0  0
 80 82  1  0  0  0
 80161  1  0  0  0
 81162  1  0  0  0
 81163  1  0  0  0
 81164  1  0  0  0
 82 89  1  0  0  0
 82165  1  0  0  0
 82166  1  0  0  0
 83 84  1  0  0  0
 83167  1  0  0  0
 83168  1  0  0  0
 83 90  1  0  0  0
 84169  1  0  0  0
 84170  1  0  0  0
 89171  1  0  0  0
 90172  1  0  0  0
M  CHG  1  90   1
M  ISO  4   1 100  68 101  84 101  88 100
M  END
> <chiral flag>
0

> <version>
0

> <s_m_source_file>
/data/baiqing/PycharmProjects/Reinvent-master-3.2/result/LINK_invent/BTK/process_docking_weight1_custom_sum_contain_oxygen_bond_distance_aromatic_linkinvent_7_9_3/rearranged_h_0193.sdf

> <i_m_source_file_index>
19

> <r_mmod_Potential_Energy-OPLS-2005>
-854.783081054688

> <r_mmod_Stretch_Energy-OPLS-2005>
36.8017311096191

> <r_mmod_Bend_Energy-OPLS-2005>
141.29248046875

> <r_mmod_Torsional_Energy-OPLS-2005>
325.537170410156

> <r_mmod_Improper_Torsional_Energy-OPLS-2005>
18.4186534881592

> <r_mmod_Van_der_Waal_Energy-OPLS-2005>
176.356399536133

> <r_mmod_Electrostatic_Energy-OPLS-2005>
-1128.11596679688

> <r_mmod_Solvation_Energy-OPLS-2005>
-441.891906738281

> <b_mmod_Minimization_Converged-OPLS-2005>
0

> <r_mmod_RMS_Derivative-OPLS-2005>
5.30607461929321

$$$$
19
                    3D
 Structure written by MMmdl.
152161  0  0  1  0            999 V2000
  -30.5578  -14.9488   20.4059 C   0  0  0  0  0  0
  -30.4449  -12.5913   19.4961 C   0  0  0  0  0  0
  -29.5267  -12.5610   18.2523 C   0  0  0  0  0  0
  -28.0556  -12.3528   18.6663 C   0  0  0  0  0  0
  -27.6380  -13.2642   19.8552 C   0  0  2  0  0  0
  -28.6895  -13.2803   20.9869 C   0  0  0  0  0  0
  -25.2461  -13.8258   20.5748 C   0  0  0  0  0  0
  -24.1786  -13.0488   20.9265 C   0  0  0  0  0  0
  -24.6417  -11.6958   20.8767 C   0  0  0  0  0  0
  -23.9122  -10.4300   21.0390 C   0  0  0  0  0  0
  -24.3668   -9.4224   21.9174 C   0  0  0  0  0  0
  -23.6329   -8.2253   22.0748 C   0  0  0  0  0  0
  -22.4305   -8.0276   21.3535 C   0  0  0  0  0  0
  -21.9950   -9.0259   20.4638 C   0  0  0  0  0  0
  -22.7279  -10.2144   20.3042 C   0  0  0  0  0  0
  -21.6867   -6.0737   22.5279 C   0  0  0  0  0  0
  -21.3989   -6.5627   23.8215 C   0  0  0  0  0  0
  -21.3681   -5.6793   24.9194 C   0  0  0  0  0  0
  -21.6052   -4.3059   24.7250 C   0  0  0  0  0  0
  -21.8813   -3.8142   23.4372 C   0  0  0  0  0  0
  -21.9205   -4.6956   22.3418 C   0  0  0  0  0  0
  -22.7781  -13.5231   21.1903 C   0  0  0  0  0  0
  -22.1660   -4.2137   21.0986 F   0  0  0  0  0  0
  -21.5671   -3.4545   25.7767 F   0  0  0  0  0  0
  -29.9654  -13.6859   20.3881 N   0  0  0  0  0  0
  -26.2941  -12.9542   20.3353 N   0  0  0  0  0  0
  -25.9387  -11.6650   20.5803 N   0  0  0  0  0  0
  -22.0426  -12.8175   22.0445 N   0  0  0  0  0  0
  -25.4122  -15.1996   20.4092 N   0  0  0  0  0  0
  -31.7474  -15.0171   20.0835 O   0  0  0  0  0  0
  -21.6672   -6.8869   21.4224 O   0  0  0  0  0  0
  -22.3439  -14.5536   20.6781 O   0  0  0  0  0  0
  -24.6313  -31.8535   23.1936 C   0  0  0  0  0  0
  -25.9141  -32.4739   23.8276 C   0  0  1  0  0  0
  -27.2124  -27.1625   20.1464 C   0  0  0  0  0  0
  -25.5954  -33.8544   24.2181 N   0  0  0  0  0  0
  -23.4323  -30.4727   21.5409 C   0  0  2  0  0  0
  -24.8830  -28.9122   20.1081 C   0  0  0  0  0  0
  -22.7498  -29.4596   22.4929 C   0  0  0  0  0  0
  -18.0270  -28.1397   22.8516 C   0  0  0  0  0  0
  -24.1494  -36.7218   23.2644 C   0  0  0  0  0  0
  -25.9860  -30.7386   21.3911 C   0  0  0  0  0  0
  -26.0601  -29.3541   20.7249 C   0  0  0  0  0  0
  -27.2207  -28.4937   20.7330 C   0  0  0  0  0  0
  -26.0032  -26.8196   19.5006 C   0  0  0  0  0  0
  -24.8652  -27.6551   19.4888 C   0  0  0  0  0  0
  -23.6576  -29.8110   20.1578 C   0  0  0  0  0  0
  -25.4150  -36.3036   24.0293 C   0  0  1  0  0  0
  -20.5877  -28.3708   23.1320 C   0  0  2  0  0  0
  -20.6796  -26.9434   22.5464 C   0  0  0  0  0  0
  -19.5786  -26.6390   21.5269 C   0  0  0  0  0  0
  -18.1932  -26.7952   22.1619 C   0  0  0  0  0  0
  -19.1525  -28.8876   23.2909 C   0  0  0  0  0  0
  -18.9444  -30.1488   23.8917 C   0  0  0  0  0  0
  -17.6446  -30.6623   24.0579 C   0  0  0  0  0  0
  -25.9092  -34.9427   23.5032 C   0  0  0  0  0  0
  -16.5334  -29.9109   23.6380 C   0  0  0  0  0  0
  -16.7251  -28.6517   23.0411 C   0  0  0  0  0  0
  -26.4487  -31.6605   25.0708 C   0  0  0  0  0  0
  -25.3657  -31.3792   26.1391 C   0  0  0  0  0  0
  -27.0308  -30.2980   24.6292 C   0  0  0  0  0  0
  -27.6028  -32.4368   25.7472 C   0  0  0  0  0  0
  -27.5581  -37.1778   24.8471 C   0  0  0  0  0  0
  -21.4197  -29.3022   22.3669 N   0  0  0  0  0  0
  -26.4292  -37.3770   23.9410 N   0  0  0  0  0  0
  -24.7025  -31.0415   22.0970 N   0  0  0  0  0  0
  -23.4178  -28.8191   23.3096 O   0  0  0  0  0  0
  -28.2650  -26.1835   20.2804 O   0  0  0  0  0  0
  -26.5689  -34.8921   22.4611 O   0  0  0  0  0  0
  -23.5454  -32.1420   23.7185 O   0  0  0  0  0  0
  -28.4902  -23.3603   20.2124 C   0  0  0  0  0  0
  -28.9447  -21.1670   20.3875 C   0  0  0  0  0  0
  -29.9939  -18.8291   21.2940 C   0  0  0  0  0  0
  -28.9109  -18.5733   19.6152 C   0  0  0  0  0  0
  -30.0594  -17.6507   20.2193 C   0  0  0  0  0  0
  -26.8169  -20.5772   21.6710 C   0  0  0  0  0  0
  -28.3536  -24.8392   19.5141 C   0  0  0  0  0  0
  -29.4341  -22.3492   19.8782 N   0  0  0  0  0  0
  -27.4859  -22.8050   20.9112 N   0  0  0  0  0  0
  -27.7760  -21.4472   21.0098 N   0  0  0  0  0  0
  -29.5782  -19.7795   20.2066 N   0  0  0  0  0  0
  -29.7837  -16.1322   20.5700 N   0  0  0  0  0  0
  -31.4821  -12.7333   19.1872 H   0  0  0  0  0  0
  -30.4228  -11.6361   20.0210 H   0  0  0  0  0  0
  -29.8416  -11.7689   17.5725 H   0  0  0  0  0  0
  -29.6200  -13.4988   17.7031 H   0  0  0  0  0  0
  -27.9317  -11.3042   18.9388 H   0  0  0  0  0  0
  -27.3972  -12.5265   17.8134 H   0  0  0  0  0  0
  -27.6022  -14.2763   19.4516 H   0  0  0  0  0  0
  -28.7749  -12.3021   21.4628 H   0  0  0  0  0  0
  -28.4070  -13.9835   21.7718 H   0  0  0  0  0  0
  -25.2826   -9.5713   22.4757 H   0  0  0  0  0  0
  -24.0065   -7.4651   22.7465 H   0  0  0  0  0  0
  -21.0903   -8.8781   19.8920 H   0  0  0  0  0  0
  -22.3755  -10.9692   19.6153 H   0  0  0  0  0  0
  -21.1916   -7.6126   23.9716 H   0  0  0  0  0  0
  -21.1516   -6.0517   25.9091 H   0  0  0  0  0  0
  -22.0572   -2.7594   23.2898 H   0  0  0  0  0  0
  -22.4089  -11.9893   22.4877 H   0  0  0  0  0  0
  -21.1002  -13.1099   22.2585 H   0  0  0  0  0  0
  -24.6511  -15.8608   20.5188 H   0  0  0  0  0  0
  -26.2557  -15.6218   20.0420 H   0  0  0  0  0  0
  -26.7196  -32.5368   23.1003 H   0  0  0  0  0  0
  -25.0109  -33.9705   25.0325 H   0  0  0  0  0  0
  -22.7280  -31.2953   21.3925 H   0  0  0  0  0  0
  -23.3807  -35.9497   23.3288 H   0  0  0  0  0  0
  -24.3586  -36.8881   22.2069 H   0  0  0  0  0  0
  -23.7177  -37.6358   23.6717 H   0  0  0  0  0  0
  -26.1479  -31.5110   20.6386 H   0  0  0  0  0  0
  -26.8488  -30.7789   22.0435 H   0  0  0  0  0  0
  -28.1119  -28.8274   21.2455 H   0  0  0  0  0  0
  -25.8692  -25.8545   19.0424 H   0  0  0  0  0  0
  -23.9594  -27.2956   19.0228 H   0  0  0  0  0  0
  -23.7795  -30.5900   19.4025 H   0  0  0  0  0  0
  -22.7724  -29.2501   19.8553 H   0  0  0  0  0  0
  -25.1354  -36.1841   25.0775 H   0  0  0  0  0  0
  -20.9930  -28.3283   24.1466 H   0  0  0  0  0  0
  -20.5761  -26.2311   23.3659 H   0  0  0  0  0  0
  -21.6666  -26.7551   22.1237 H   0  0  0  0  0  0
  -19.6977  -25.6293   21.1339 H   0  0  0  0  0  0
  -19.6750  -27.3199   20.6799 H   0  0  0  0  0  0
  -17.4247  -26.6762   21.3956 H   0  0  0  0  0  0
  -18.0257  -26.0057   22.8958 H   0  0  0  0  0  0
  -19.7909  -30.7309   24.2271 H   0  0  0  0  0  0
  -17.4997  -31.6313   24.5139 H   0  0  0  0  0  0
  -15.5345  -30.3025   23.7699 H   0  0  0  0  0  0
  -15.8635  -28.0834   22.7173 H   0  0  0  0  0  0
  -24.5882  -30.7098   25.7709 H   0  0  0  0  0  0
  -24.8798  -32.2959   26.4732 H   0  0  0  0  0  0
  -25.7925  -30.9024   27.0222 H   0  0  0  0  0  0
  -26.2899  -29.6738   24.1287 H   0  0  0  0  0  0
  -27.3869  -29.7280   25.4887 H   0  0  0  0  0  0
  -27.8850  -30.4195   23.9629 H   0  0  0  0  0  0
  -27.2662  -33.3744   26.1922 H   0  0  0  0  0  0
  -28.3896  -32.6803   25.0312 H   0  0  0  0  0  0
  -28.0624  -31.8557   26.5483 H   0  0  0  0  0  0
  -28.2592  -38.0092   24.7565 H   0  0  0  0  0  0
  -28.1077  -36.2617   24.6231 H   0  0  0  0  0  0
  -27.2312  -37.1363   25.8882 H   0  0  0  0  0  0
  -20.9371  -29.8596   21.6765 H   0  0  0  0  0  0
  -26.0127  -38.2801   24.1485 H   0  0  0  0  0  0
  -30.9707  -19.0625   21.7226 H   0  0  0  0  0  0
  -29.2403  -18.7120   22.0750 H   0  0  0  0  0  0
  -27.9267  -18.3751   20.0389 H   0  0  0  0  0  0
  -28.8579  -18.5719   18.5240 H   0  0  0  0  0  0
  -30.9652  -17.7566   19.6180 H   0  0  0  0  0  0
  -26.6093  -19.7058   21.0553 H   0  0  0  0  0  0
  -25.8651  -21.0927   21.8138 H   0  0  0  0  0  0
  -27.2019  -20.2520   22.6378 H   0  0  0  0  0  0
  -27.5702  -24.7644   18.7689 H   0  0  0  0  0  0
  -29.2499  -24.9553   18.9064 H   0  0  0  0  0  0
  -28.8390  -15.9511   20.8674 H   0  0  0  0  0  0
  1 25  1  0  0  0
  1 30  2  0  0  0
  1 82  1  0  0  0
  2  3  1  0  0  0
  2 25  1  0  0  0
  2 83  1  0  0  0
  2 84  1  0  0  0
  3  4  1  0  0  0
  3 85  1  0  0  0
  3 86  1  0  0  0
  4  5  1  0  0  0
  4 87  1  0  0  0
  4 88  1  0  0  0
  5  6  1  0  0  0
  5 26  1  0  0  0
  5 89  1  0  0  0
  6 25  1  0  0  0
  6 90  1  0  0  0
  6 91  1  0  0  0
  7  8  2  0  0  0
  7 26  1  0  0  0
  7 29  1  0  0  0
  8  9  1  0  0  0
  8 22  1  0  0  0
  9 10  1  0  0  0
  9 27  2  0  0  0
 10 11  2  0  0  0
 10 15  1  0  0  0
 11 12  1  0  0  0
 11 92  1  0  0  0
 12 13  2  0  0  0
 12 93  1  0  0  0
 13 14  1  0  0  0
 13 31  1  0  0  0
 14 15  2  0  0  0
 14 94  1  0  0  0
 15 95  1  0  0  0
 16 17  2  0  0  0
 16 21  1  0  0  0
 16 31  1  0  0  0
 17 18  1  0  0  0
 17 96  1  0  0  0
 18 19  2  0  0  0
 18 97  1  0  0  0
 19 20  1  0  0  0
 19 24  1  0  0  0
 20 21  2  0  0  0
 20 98  1  0  0  0
 21 23  1  0  0  0
 22 28  1  0  0  0
 22 32  2  0  0  0
 26 27  1  0  0  0
 28 99  1  0  0  0
 28100  1  0  0  0
 29101  1  0  0  0
 29102  1  0  0  0
 33 34  1  0  0  0
 33 66  1  0  0  0
 33 70  2  0  0  0
 34 36  1  0  0  0
 34 59  1  0  0  0
 34103  1  0  0  0
 35 44  2  0  0  0
 35 45  1  0  0  0
 35 68  1  0  0  0
 36 56  1  0  0  0
 36104  1  0  0  0
 37 39  1  0  0  0
 37 47  1  0  0  0
 37 66  1  0  0  0
 37105  1  0  0  0
 38 43  2  0  0  0
 38 46  1  0  0  0
 38 47  1  0  0  0
 39 64  1  0  0  0
 39 67  2  0  0  0
 40 52  1  0  0  0
 40 53  2  0  0  0
 40 58  1  0  0  0
 41106  1  0  0  0
 41107  1  0  0  0
 41108  1  0  0  0
 41 48  1  0  0  0
 42 43  1  0  0  0
 42 66  1  0  0  0
 42109  1  0  0  0
 42110  1  0  0  0
 43 44  1  0  0  0
 44111  1  0  0  0
 45 46  2  0  0  0
 45112  1  0  0  0
 46113  1  0  0  0
 47114  1  0  0  0
 47115  1  0  0  0
 48 56  1  0  0  0
 48 65  1  0  0  0
 48116  1  0  0  0
 49 50  1  0  0  0
 49 53  1  0  0  0
 49 64  1  0  0  0
 49117  1  0  0  0
 50 51  1  0  0  0
 50118  1  0  0  0
 50119  1  0  0  0
 51 52  1  0  0  0
 51120  1  0  0  0
 51121  1  0  0  0
 52122  1  0  0  0
 52123  1  0  0  0
 53 54  1  0  0  0
 54 55  2  0  0  0
 54124  1  0  0  0
 55 57  1  0  0  0
 55125  1  0  0  0
 56 69  2  0  0  0
 57 58  2  0  0  0
 57126  1  0  0  0
 58127  1  0  0  0
 59 60  1  0  0  0
 59 61  1  0  0  0
 59 62  1  0  0  0
 60128  1  0  0  0
 60129  1  0  0  0
 60130  1  0  0  0
 61131  1  0  0  0
 61132  1  0  0  0
 61133  1  0  0  0
 62134  1  0  0  0
 62135  1  0  0  0
 62136  1  0  0  0
 63 65  1  0  0  0
 63137  1  0  0  0
 63138  1  0  0  0
 63139  1  0  0  0
 64140  1  0  0  0
 65141  1  0  0  0
 68 77  1  0  0  0
 71 77  1  0  0  0
 71 78  1  0  0  0
 71 79  2  0  0  0
 72 78  2  0  0  0
 72 80  1  0  0  0
 72 81  1  0  0  0
 73 75  1  0  0  0
 73 81  1  0  0  0
 73142  1  0  0  0
 73143  1  0  0  0
 74 75  1  0  0  0
 74 81  1  0  0  0
 74144  1  0  0  0
 74145  1  0  0  0
 75 82  1  0  0  0
 75146  1  0  0  0
 76 80  1  0  0  0
 76147  1  0  0  0
 76148  1  0  0  0
 76149  1  0  0  0
 77150  1  0  0  0
 77151  1  0  0  0
 79 80  1  0  0  0
 82152  1  0  0  0
M  ISO  4   1 100  68 101  77 101  82 100
M  END
> <chiral flag>
0

> <version>
0

> <s_m_source_file>
/data/baiqing/PycharmProjects/Reinvent-master-3.2/result/LINK_invent/BTK/process_docking_weight1_custom_sum_contain_oxygen_bond_distance_aromatic_linkinvent_7_9_3/rearranged_h_0193.sdf

> <i_m_source_file_index>
20

> <r_mmod_Potential_Energy-OPLS-2005>
437.644805908203

> <r_mmod_Stretch_Energy-OPLS-2005>
219.330612182617

> <r_mmod_Bend_Energy-OPLS-2005>
323.598785400391

> <r_mmod_Torsional_Energy-OPLS-2005>
251.194442749023

> <r_mmod_Improper_Torsional_Energy-OPLS-2005>
15.3249883651733

> <r_mmod_Van_der_Waal_Energy-OPLS-2005>
114.272468566895

> <r_mmod_Electrostatic_Energy-OPLS-2005>
-400.115570068359

> <r_mmod_Solvation_Energy-OPLS-2005>
-269.482299804688

> <b_mmod_Minimization_Converged-OPLS-2005>
0

> <r_mmod_RMS_Derivative-OPLS-2005>
5.31537055969238

$$$$
20
                    3D
 Structure written by MMmdl.
174184  0  0  1  0            999 V2000
  -30.1747  -15.7918   19.9471 C   0  0  0  0  0  0
  -30.3755  -13.1600   19.3915 C   0  0  0  0  0  0
  -29.5113  -12.5781   18.2432 C   0  0  0  0  0  0
  -28.1026  -12.2181   18.7372 C   0  0  0  0  0  0
  -27.5564  -13.2804   19.7141 C   0  0  2  0  0  0
  -28.5790  -13.7500   20.7690 C   0  0  0  0  0  0
  -25.2303  -13.8206   20.5703 C   0  0  0  0  0  0
  -24.1695  -13.0408   20.9306 C   0  0  0  0  0  0
  -24.6355  -11.6903   20.8747 C   0  0  0  0  0  0
  -23.9045  -10.4275   21.0407 C   0  0  0  0  0  0
  -24.3614   -9.4185   21.9164 C   0  0  0  0  0  0
  -23.6290   -8.2221   22.0749 C   0  0  0  0  0  0
  -22.4254   -8.0263   21.3565 C   0  0  0  0  0  0
  -21.9894   -9.0218   20.4646 C   0  0  0  0  0  0
  -22.7226  -10.2094   20.3044 C   0  0  0  0  0  0
  -21.6825   -6.0726   22.5282 C   0  0  0  0  0  0
  -21.3990   -6.5637   23.8211 C   0  0  0  0  0  0
  -21.3664   -5.6805   24.9185 C   0  0  0  0  0  0
  -21.6051   -4.3064   24.7240 C   0  0  0  0  0  0
  -21.8817   -3.8145   23.4360 C   0  0  0  0  0  0
  -21.9186   -4.6959   22.3412 C   0  0  0  0  0  0
  -22.7710  -13.5178   21.1945 C   0  0  0  0  0  0
  -22.1655   -4.2147   21.0989 F   0  0  0  0  0  0
  -21.5647   -3.4545   25.7753 F   0  0  0  0  0  0
  -29.6842  -14.3933   19.9955 N   0  0  0  0  0  0
  -26.2642  -12.9461   20.2911 N   0  0  0  0  0  0
  -25.9241  -11.6558   20.5517 N   0  0  0  0  0  0
  -22.0322  -12.8187   22.0482 N   0  0  0  0  0  0
  -25.3992  -15.1919   20.4215 N   0  0  0  0  0  0
  -31.4260  -15.6563   19.9599 O   0  0  0  0  0  0
  -21.6627   -6.8857   21.4243 O   0  0  0  0  0  0
  -22.3418  -14.5457   20.6727 O   0  0  0  0  0  0
  -24.7458  -31.7902   23.0011 C   0  0  0  0  0  0
  -25.9731  -32.4457   23.7207 C   0  0  1  0  0  0
  -27.1741  -26.4369   20.8650 C   0  0  0  0  0  0
  -25.6041  -33.8148   24.1301 N   0  0  0  0  0  0
  -23.5356  -30.3591   21.3825 C   0  0  2  0  0  0
  -24.8721  -28.5889   19.7371 C   0  0  0  0  0  0
  -22.7236  -29.5450   22.4520 C   0  0  0  0  0  0
  -18.0252  -28.1476   22.8375 C   0  0  0  0  0  0
  -24.1354  -36.6890   23.2728 C   0  0  0  0  0  0
  -26.1062  -30.5669   21.0485 C   0  0  0  0  0  0
  -26.2767  -29.1490   20.2129 C   0  0  0  0  0  0
  -27.4547  -28.1051   20.6645 C   0  0  0  0  0  0
  -25.5494  -25.8532   20.4209 C   0  0  0  0  0  0
  -24.4771  -27.0095   19.7879 C   0  0  0  0  0  0
  -23.6900  -29.5981   19.9828 C   0  0  0  0  0  0
  -25.4141  -36.2764   24.0187 C   0  0  1  0  0  0
  -20.5865  -28.4008   23.0800 C   0  0  2  0  0  0
  -20.6675  -26.9501   22.5492 C   0  0  0  0  0  0
  -19.5660  -26.6172   21.5379 C   0  0  0  0  0  0
  -18.1969  -26.7776   22.1973 C   0  0  0  0  0  0
  -19.1462  -28.9166   23.2464 C   0  0  0  0  0  0
  -18.9347  -30.1771   23.8495 C   0  0  0  0  0  0
  -17.6304  -30.6720   24.0413 C   0  0  0  0  0  0
  -25.9274  -34.9318   23.4670 C   0  0  0  0  0  0
  -16.5227  -29.9062   23.6347 C   0  0  0  0  0  0
  -16.7247  -28.6457   23.0434 C   0  0  0  0  0  0
  -26.4683  -31.6727   25.0130 C   0  0  0  0  0  0
  -25.3460  -31.4030   26.0550 C   0  0  0  0  0  0
  -27.1058  -30.3505   24.5677 C   0  0  0  0  0  0
  -27.5750  -32.4868   25.7235 C   0  0  0  0  0  0
  -27.5462  -37.1565   24.8447 C   0  0  0  0  0  0
  -21.4209  -29.2845   22.2513 N   0  0  0  0  0  0
  -26.4177  -37.3636   23.9401 N   0  0  0  0  0  0
  -24.8393  -30.9430   21.8777 N   0  0  0  0  0  0
  -23.2859  -29.1300   23.4646 O   0  0  0  0  0  0
  -28.1022  -25.5095   21.0936 O   0  0  0  0  0  0
  -26.6148  -34.9113   22.4440 O   0  0  0  0  0  0
  -23.6498  -32.1147   23.5001 O   0  0  0  0  0  0
  -26.9358  -22.1097   18.2903 C   0  0  0  0  0  0
  -26.3703  -23.5643   18.3437 C   0  0  0  0  0  0
  -28.2536  -21.5725   18.7142 C   0  0  0  0  0  0
  -27.1139  -24.9151   18.4936 C   0  0  0  0  0  0
  -24.7425  -26.6228   22.8204 C   0  0  0  0  0  0
  -26.0324  -27.2065   23.2253 C   0  0  0  0  0  0
  -28.3117  -18.2683   19.8434 C   0  0  0  0  0  0
  -30.0037  -18.5630   18.7869 C   0  0  0  0  0  0
  -28.8537  -19.7875   19.1935 C   0  0  0  0  0  0
  -25.4725  -27.6042   21.8035 C   0  0  0  0  0  0
  -23.9993  -22.7650   17.3945 C   0  0  0  0  0  0
  -26.5881  -26.8808   18.7724 C   0  0  0  0  0  0
  -26.7608  -22.9887   21.4237 C   0  0  0  0  0  0
  -24.6051  -22.5044   19.8836 C   0  0  0  0  0  0
  -27.4920  -24.3689   21.8771 C   0  0  0  0  0  0
  -24.8422  -23.3975   18.5820 C   0  0  1  0  0  0
  -28.8912  -22.8789   18.8503 N   0  0  0  0  0  0
  -28.4270  -24.2768   18.6923 N   0  0  0  0  0  0
  -29.5151  -17.2128   19.5575 N   0  0  0  0  0  0
  -25.2543  -22.8110   21.2388 N   0  3  0  0  0  0
  -31.3445  -13.4249   18.9554 H   0  0  0  0  0  0
  -30.5987  -12.3935   20.1402 H   0  0  0  0  0  0
  -29.9959  -11.7015   17.8134 H   0  0  0  0  0  0
  -29.4340  -13.3065   17.4320 H   0  0  0  0  0  0
  -28.1667  -11.2522   19.2404 H   0  0  0  0  0  0
  -27.4308  -12.0676   17.8920 H   0  0  0  0  0  0
  -27.3607  -14.1386   19.0665 H   0  0  0  0  0  0
  -28.8946  -12.9213   21.4031 H   0  0  0  0  0  0
  -28.1331  -14.4987   21.4195 H   0  0  0  0  0  0
  -25.2744   -9.5663   22.4750 H   0  0  0  0  0  0
  -24.0000   -7.4601   22.7441 H   0  0  0  0  0  0
  -21.0836   -8.8710   19.8938 H   0  0  0  0  0  0
  -22.3658  -10.9628   19.6160 H   0  0  0  0  0  0
  -21.1947   -7.6137   23.9716 H   0  0  0  0  0  0
  -21.1500   -6.0531   25.9094 H   0  0  0  0  0  0
  -22.0587   -2.7605   23.2860 H   0  0  0  0  0  0
  -22.3954  -11.9936   22.5054 H   0  0  0  0  0  0
  -21.0905  -13.1160   22.2521 H   0  0  0  0  0  0
  -24.6370  -15.8437   20.5678 H   0  0  0  0  0  0
  -26.2659  -15.6398   20.1471 H   0  0  0  0  0  0
  -26.7973  -32.5030   23.0135 H   0  0  0  0  0  0
  -24.9624  -33.8808   24.9043 H   0  0  0  0  0  0
  -22.9008  -31.2224   21.1871 H   0  0  0  0  0  0
  -23.3808  -35.9037   23.3396 H   0  0  0  0  0  0
  -24.3198  -36.8718   22.2137 H   0  0  0  0  0  0
  -23.6904  -37.5876   23.6999 H   0  0  0  0  0  0
  -26.2524  -31.3561   20.3124 H   0  0  0  0  0  0
  -26.9602  -30.6453   21.7190 H   0  0  0  0  0  0
  -28.4221  -28.4812   20.9667 H   0  0  0  0  0  0
  -25.2607  -24.8604   20.4198 H   0  0  0  0  0  0
  -23.4725  -26.7169   19.5020 H   0  0  0  0  0  0
  -23.6947  -30.3482   19.1966 H   0  0  0  0  0  0
  -22.7584  -29.0575   19.8257 H   0  0  0  0  0  0
  -25.1399  -36.1296   25.0672 H   0  0  0  0  0  0
  -20.9985  -28.3832   24.0890 H   0  0  0  0  0  0
  -20.5524  -26.2605   23.3844 H   0  0  0  0  0  0
  -21.6596  -26.7450   22.1493 H   0  0  0  0  0  0
  -19.6800  -25.5997   21.1619 H   0  0  0  0  0  0
  -19.6333  -27.2858   20.6779 H   0  0  0  0  0  0
  -17.3985  -26.5945   21.4732 H   0  0  0  0  0  0
  -18.0936  -26.0416   22.9977 H   0  0  0  0  0  0
  -19.7813  -30.7776   24.1553 H   0  0  0  0  0  0
  -17.4813  -31.6427   24.4915 H   0  0  0  0  0  0
  -15.5222  -30.2819   23.7917 H   0  0  0  0  0  0
  -15.8627  -28.0629   22.7474 H   0  0  0  0  0  0
  -24.5512  -30.7686   25.6633 H   0  0  0  0  0  0
  -24.8730  -32.3355   26.3710 H   0  0  0  0  0  0
  -25.7230  -30.9260   26.9594 H   0  0  0  0  0  0
  -26.3821  -29.7668   24.0282 H   0  0  0  0  0  0
  -27.4966  -29.7535   25.3912 H   0  0  0  0  0  0
  -27.9302  -30.5215   23.8770 H   0  0  0  0  0  0
  -27.1672  -33.3815   26.1962 H   0  0  0  0  0  0
  -28.3413  -32.8239   25.0233 H   0  0  0  0  0  0
  -28.0688  -31.9190   26.5141 H   0  0  0  0  0  0
  -28.2537  -37.9817   24.7641 H   0  0  0  0  0  0
  -28.0925  -36.2389   24.6188 H   0  0  0  0  0  0
  -27.2183  -37.1098   25.8852 H   0  0  0  0  0  0
  -21.0234  -29.6074   21.3847 H   0  0  0  0  0  0
  -25.9961  -38.2610   24.1650 H   0  0  0  0  0  0
  -26.2294  -21.3235   18.0614 H   0  0  0  0  0  0
  -23.9054  -26.9513   23.4229 H   0  0  0  0  0  0
  -24.6996  -25.5538   22.6402 H   0  0  0  0  0  0
  -25.9161  -27.8278   24.0982 H   0  0  0  0  0  0
  -26.8998  -26.5814   23.3157 H   0  0  0  0  0  0
  -27.3731  -17.9479   19.3888 H   0  0  0  0  0  0
  -28.1039  -18.3759   20.9115 H   0  0  0  0  0  0
  -31.0055  -18.8626   19.0944 H   0  0  0  0  0  0
  -30.0318  -18.4084   17.7088 H   0  0  0  0  0  0
  -29.3275  -20.2040   20.0801 H   0  0  0  0  0  0
  -25.0499  -28.5456   22.0382 H   0  0  0  0  0  0
  -23.8220  -23.4306   16.5507 H   0  0  0  0  0  0
  -22.9896  -22.4808   17.7229 H   0  0  0  0  0  0
  -24.4411  -21.8595   16.9874 H   0  0  0  0  0  0
  -25.8901  -27.0989   17.9495 H   0  0  0  0  0  0
  -27.4324  -27.4784   18.4063 H   0  0  0  0  0  0
  -26.9206  -22.3445   22.2925 H   0  0  0  0  0  0
  -27.3330  -22.4334   20.7282 H   0  0  0  0  0  0
  -24.8693  -21.4721   19.6651 H   0  0  0  0  0  0
  -23.5264  -22.4190   20.0469 H   0  0  0  0  0  0
  -28.3484  -24.0007   22.4337 H   0  0  0  0  0  0
  -26.8413  -24.7211   22.6670 H   0  0  0  0  0  0
  -24.3787  -24.3687   18.7019 H   0  0  0  0  0  0
  -24.7107  -23.4743   21.7840 H   0  0  0  0  0  0
  -25.0647  -21.9435   21.7200 H   0  0  0  0  0  0
  1 25  1  0  0  0
  1 30  2  0  0  0
  1 89  1  0  0  0
  2  3  1  0  0  0
  2 25  1  0  0  0
  2 91  1  0  0  0
  2 92  1  0  0  0
  3  4  1  0  0  0
  3 93  1  0  0  0
  3 94  1  0  0  0
  4  5  1  0  0  0
  4 95  1  0  0  0
  4 96  1  0  0  0
  5  6  1  0  0  0
  5 26  1  0  0  0
  5 97  1  0  0  0
  6 25  1  0  0  0
  6 98  1  0  0  0
  6 99  1  0  0  0
  7  8  2  0  0  0
  7 26  1  0  0  0
  7 29  1  0  0  0
  8  9  1  0  0  0
  8 22  1  0  0  0
  9 10  1  0  0  0
  9 27  2  0  0  0
 10 11  2  0  0  0
 10 15  1  0  0  0
 11 12  1  0  0  0
 11100  1  0  0  0
 12 13  2  0  0  0
 12101  1  0  0  0
 13 14  1  0  0  0
 13 31  1  0  0  0
 14 15  2  0  0  0
 14102  1  0  0  0
 15103  1  0  0  0
 16 17  2  0  0  0
 16 21  1  0  0  0
 16 31  1  0  0  0
 17 18  1  0  0  0
 17104  1  0  0  0
 18 19  2  0  0  0
 18105  1  0  0  0
 19 20  1  0  0  0
 19 24  1  0  0  0
 20 21  2  0  0  0
 20106  1  0  0  0
 21 23  1  0  0  0
 22 28  1  0  0  0
 22 32  2  0  0  0
 26 27  1  0  0  0
 28107  1  0  0  0
 28108  1  0  0  0
 29109  1  0  0  0
 29110  1  0  0  0
 33 34  1  0  0  0
 33 66  1  0  0  0
 33 70  2  0  0  0
 34 36  1  0  0  0
 34 59  1  0  0  0
 34111  1  0  0  0
 35 44  2  0  0  0
 35 45  1  0  0  0
 35 68  1  0  0  0
 36 56  1  0  0  0
 36112  1  0  0  0
 37 39  1  0  0  0
 37 47  1  0  0  0
 37 66  1  0  0  0
 37113  1  0  0  0
 38 43  2  0  0  0
 38 46  1  0  0  0
 38 47  1  0  0  0
 39 64  1  0  0  0
 39 67  2  0  0  0
 40 52  1  0  0  0
 40 53  2  0  0  0
 40 58  1  0  0  0
 41114  1  0  0  0
 41115  1  0  0  0
 41116  1  0  0  0
 41 48  1  0  0  0
 42 43  1  0  0  0
 42 66  1  0  0  0
 42117  1  0  0  0
 42118  1  0  0  0
 43 44  1  0  0  0
 44119  1  0  0  0
 45 46  2  0  0  0
 45120  1  0  0  0
 46121  1  0  0  0
 47122  1  0  0  0
 47123  1  0  0  0
 48 56  1  0  0  0
 48 65  1  0  0  0
 48124  1  0  0  0
 49 50  1  0  0  0
 49 53  1  0  0  0
 49 64  1  0  0  0
 49125  1  0  0  0
 50 51  1  0  0  0
 50126  1  0  0  0
 50127  1  0  0  0
 51 52  1  0  0  0
 51128  1  0  0  0
 51129  1  0  0  0
 52130  1  0  0  0
 52131  1  0  0  0
 53 54  1  0  0  0
 54 55  2  0  0  0
 54132  1  0  0  0
 55 57  1  0  0  0
 55133  1  0  0  0
 56 69  2  0  0  0
 57 58  2  0  0  0
 57134  1  0  0  0
 58135  1  0  0  0
 59 60  1  0  0  0
 59 61  1  0  0  0
 59 62  1  0  0  0
 60136  1  0  0  0
 60137  1  0  0  0
 60138  1  0  0  0
 61139  1  0  0  0
 61140  1  0  0  0
 61141  1  0  0  0
 62142  1  0  0  0
 62143  1  0  0  0
 62144  1  0  0  0
 63 65  1  0  0  0
 63145  1  0  0  0
 63146  1  0  0  0
 63147  1  0  0  0
 64148  1  0  0  0
 65149  1  0  0  0
 68 85  1  0  0  0
 71 72  2  0  0  0
 71 73  1  0  0  0
 71150  1  0  0  0
 72 74  1  0  0  0
 72 86  1  0  0  0
 73 87  2  0  0  0
 73 79  1  0  0  0
 74 82  1  0  0  0
 74 88  2  0  0  0
 75 76  1  0  0  0
 75 80  1  0  0  0
 75151  1  0  0  0
 75152  1  0  0  0
 76 80  1  0  0  0
 76153  1  0  0  0
 76154  1  0  0  0
 77 79  1  0  0  0
 77 89  1  0  0  0
 77155  1  0  0  0
 77156  1  0  0  0
 78 79  1  0  0  0
 78 89  1  0  0  0
 78157  1  0  0  0
 78158  1  0  0  0
 79159  1  0  0  0
 80 82  1  0  0  0
 80160  1  0  0  0
 81161  1  0  0  0
 81162  1  0  0  0
 81163  1  0  0  0
 81 86  1  0  0  0
 82164  1  0  0  0
 82165  1  0  0  0
 83 85  1  0  0  0
 83 90  1  0  0  0
 83166  1  0  0  0
 83167  1  0  0  0
 84 86  1  0  0  0
 84 90  1  0  0  0
 84168  1  0  0  0
 84169  1  0  0  0
 85170  1  0  0  0
 85171  1  0  0  0
 86172  1  0  0  0
 87 88  1  0  0  0
 90173  1  0  0  0
 90174  1  0  0  0
M  CHG  1  90   1
M  ISO  4   1 100  68 101  85 101  89 100
M  END
> <chiral flag>
0

> <version>
0

> <s_m_source_file>
/data/baiqing/PycharmProjects/Reinvent-master-3.2/result/LINK_invent/BTK/process_docking_weight1_custom_sum_contain_oxygen_bond_distance_aromatic_linkinvent_7_9_3/rearranged_h_0193.sdf

> <i_m_source_file_index>
21

> <r_mmod_Potential_Energy-OPLS-2005>
10934.7255859375

> <r_mmod_Stretch_Energy-OPLS-2005>
6095.24658203125

> <r_mmod_Bend_Energy-OPLS-2005>
1067.30004882812

> <r_mmod_Torsional_Energy-OPLS-2005>
436.484832763672

> <r_mmod_Improper_Torsional_Energy-OPLS-2005>
39.5396728515625

> <r_mmod_Van_der_Waal_Energy-OPLS-2005>
2263.66381835938

> <r_mmod_Electrostatic_Energy-OPLS-2005>
-189.525604248047

> <r_mmod_Solvation_Energy-OPLS-2005>
-500.821258544922

> <b_mmod_Minimization_Converged-OPLS-2005>
0

> <r_mmod_RMS_Derivative-OPLS-2005>
30.5335655212402

$$$$
21
                    3D
 Structure written by MMmdl.
167176  0  0  1  0            999 V2000
  -30.7307  -14.5026   20.6025 C   0  0  0  0  0  0
  -30.4208  -12.3424   19.4264 C   0  0  0  0  0  0
  -29.4883  -12.4770   18.2061 C   0  0  0  0  0  0
  -28.0205  -12.2800   18.6285 C   0  0  0  0  0  0
  -27.6456  -13.1656   19.8387 C   0  0  2  0  0  0
  -28.6890  -13.0186   20.9760 C   0  0  0  0  0  0
  -25.2602  -13.8059   20.5623 C   0  0  0  0  0  0
  -24.1829  -13.0405   20.9188 C   0  0  0  0  0  0
  -24.6327  -11.6855   20.8748 C   0  0  0  0  0  0
  -23.8988  -10.4273   21.0430 C   0  0  0  0  0  0
  -24.3566   -9.4195   21.9195 C   0  0  0  0  0  0
  -23.6266   -8.2218   22.0750 C   0  0  0  0  0  0
  -22.4251   -8.0259   21.3539 C   0  0  0  0  0  0
  -21.9869   -9.0229   20.4644 C   0  0  0  0  0  0
  -22.7172  -10.2118   20.3065 C   0  0  0  0  0  0
  -21.6842   -6.0724   22.5278 C   0  0  0  0  0  0
  -21.4003   -6.5629   23.8211 C   0  0  0  0  0  0
  -21.3657   -5.6782   24.9175 C   0  0  0  0  0  0
  -21.6046   -4.3048   24.7223 C   0  0  0  0  0  0
  -21.8823   -3.8141   23.4344 C   0  0  0  0  0  0
  -21.9191   -4.6955   22.3402 C   0  0  0  0  0  0
  -22.7875  -13.5254   21.1865 C   0  0  0  0  0  0
  -22.1664   -4.2147   21.0979 F   0  0  0  0  0  0
  -21.5630   -3.4531   25.7736 F   0  0  0  0  0  0
  -30.0166  -13.3465   20.4312 N   0  0  0  0  0  0
  -26.2929  -12.9122   20.3175 N   0  0  0  0  0  0
  -25.9215  -11.6343   20.5708 N   0  0  0  0  0  0
  -22.0490  -12.8266   22.0418 N   0  0  0  0  0  0
  -25.4405  -15.1766   20.4006 N   0  0  0  0  0  0
  -31.8410  -14.6466   20.0789 O   0  0  0  0  0  0
  -21.6621   -6.8857   21.4238 O   0  0  0  0  0  0
  -22.3592  -14.5571   20.6714 O   0  0  0  0  0  0
  -24.6160  -31.8687   23.2091 C   0  0  0  0  0  0
  -25.9054  -32.4835   23.8383 C   0  0  1  0  0  0
  -27.2385  -27.4322   20.0776 C   0  0  0  0  0  0
  -25.5911  -33.8620   24.2331 N   0  0  0  0  0  0
  -23.4039  -30.4939   21.5488 C   0  0  2  0  0  0
  -24.8476  -28.9579   20.1147 C   0  0  0  0  0  0
  -22.7416  -29.4687   22.4974 C   0  0  0  0  0  0
  -18.0285  -28.1416   22.8500 C   0  0  0  0  0  0
  -24.1479  -36.7285   23.2638 C   0  0  0  0  0  0
  -25.9325  -30.8334   21.3601 C   0  0  0  0  0  0
  -26.0087  -29.4657   20.7092 C   0  0  0  0  0  0
  -27.2033  -28.7073   20.6933 C   0  0  0  0  0  0
  -26.0431  -26.9278   19.5118 C   0  0  0  0  0  0
  -24.8583  -27.6866   19.5195 C   0  0  0  0  0  0
  -23.6108  -29.8260   20.1638 C   0  0  0  0  0  0
  -25.4105  -36.3111   24.0346 C   0  0  1  0  0  0
  -20.5880  -28.3695   23.1309 C   0  0  2  0  0  0
  -20.6783  -26.9429   22.5420 C   0  0  0  0  0  0
  -19.5760  -26.6421   21.5214 C   0  0  0  0  0  0
  -18.1934  -26.7966   22.1627 C   0  0  0  0  0  0
  -19.1536  -28.8866   23.2913 C   0  0  0  0  0  0
  -18.9472  -30.1473   23.8927 C   0  0  0  0  0  0
  -17.6476  -30.6621   24.0577 C   0  0  0  0  0  0
  -25.9040  -34.9482   23.5135 C   0  0  0  0  0  0
  -16.5363  -29.9135   23.6335 C   0  0  0  0  0  0
  -16.7282  -28.6543   23.0362 C   0  0  0  0  0  0
  -26.4483  -31.6616   25.0706 C   0  0  0  0  0  0
  -25.3740  -31.3738   26.1450 C   0  0  0  0  0  0
  -27.0312  -30.3065   24.6070 C   0  0  0  0  0  0
  -27.6089  -32.4316   25.7457 C   0  0  0  0  0  0
  -27.5584  -37.1793   24.8473 C   0  0  0  0  0  0
  -21.4142  -29.3057   22.3700 N   0  0  0  0  0  0
  -26.4289  -37.3801   23.9428 N   0  0  0  0  0  0
  -24.6696  -31.0792   22.0986 N   0  0  0  0  0  0
  -23.4179  -28.8233   23.3023 O   0  0  0  0  0  0
  -28.4214  -26.7141   20.0976 O   0  0  0  0  0  0
  -26.5589  -34.8935   22.4693 O   0  0  0  0  0  0
  -23.5356  -32.1440   23.7490 O   0  0  0  0  0  0
  -30.5740  -24.2246   19.9099 C   0  0  0  0  0  0
  -31.0263  -22.9254   20.2345 C   0  0  0  0  0  0
  -29.2157  -24.3992   19.5775 C   0  0  0  0  0  0
  -30.0722  -21.8736   20.2110 C   0  0  0  0  0  0
  -31.2707  -17.7382   21.9483 C   0  0  0  0  0  0
  -28.9930  -17.6081   20.9553 C   0  0  0  0  0  0
  -31.1825  -16.2319   22.3144 C   0  0  0  0  0  0
  -28.9315  -16.1148   21.3432 C   0  0  0  0  0  0
  -29.8695  -18.3907   21.9443 C   0  0  0  0  0  0
  -32.4936  -22.6962   20.5569 C   0  0  0  0  0  0
  -30.2940  -20.6142   22.9553 C   0  0  0  0  0  0
  -30.4310  -20.4026   20.4858 C   0  0  0  0  0  0
  -28.6953  -25.7482   19.0649 C   0  0  0  0  0  0
  -28.3440  -23.3554   19.6097 N   0  0  0  0  0  0
  -28.7652  -22.1199   19.9262 N   0  0  0  0  0  0
  -30.2575  -15.4662   21.4501 N   0  0  0  0  0  0
  -29.8358  -19.8795   21.7483 N   0  3  1  0  0  0
  -31.4605  -12.4478   19.1121 H   0  0  0  0  0  0
  -30.3491  -11.3406   19.8535 H   0  0  0  0  0  0
  -29.7575  -11.7416   17.4463 H   0  0  0  0  0  0
  -29.6160  -13.4573   17.7442 H   0  0  0  0  0  0
  -27.8866  -11.2283   18.8864 H   0  0  0  0  0  0
  -27.3524  -12.4743   17.7883 H   0  0  0  0  0  0
  -27.6490  -14.1667   19.4225 H   0  0  0  0  0  0
  -28.6928  -11.9925   21.3466 H   0  0  0  0  0  0
  -28.4220  -13.6241   21.8407 H   0  0  0  0  0  0
  -25.2716   -9.5683   22.4756 H   0  0  0  0  0  0
  -23.9991   -7.4605   22.7454 H   0  0  0  0  0  0
  -21.0803   -8.8731   19.8943 H   0  0  0  0  0  0
  -22.3629  -10.9655   19.6171 H   0  0  0  0  0  0
  -21.1986   -7.6136   23.9714 H   0  0  0  0  0  0
  -21.1475   -6.0510   25.9077 H   0  0  0  0  0  0
  -22.0604   -2.7603   23.2837 H   0  0  0  0  0  0
  -22.4074  -11.9914   22.4805 H   0  0  0  0  0  0
  -21.1114  -13.1324   22.2607 H   0  0  0  0  0  0
  -24.6798  -15.8381   20.5113 H   0  0  0  0  0  0
  -26.2896  -15.6037   20.0550 H   0  0  0  0  0  0
  -26.7122  -32.5530   23.1143 H   0  0  0  0  0  0
  -25.0082  -33.9778   25.0494 H   0  0  0  0  0  0
  -22.6951  -31.3131   21.4084 H   0  0  0  0  0  0
  -23.3764  -35.9597   23.3320 H   0  0  0  0  0  0
  -24.3574  -36.8878   22.2050 H   0  0  0  0  0  0
  -23.7199  -37.6486   23.6621 H   0  0  0  0  0  0
  -26.0402  -31.5975   20.5884 H   0  0  0  0  0  0
  -26.8239  -30.8912   21.9731 H   0  0  0  0  0  0
  -28.1020  -29.0988   21.1502 H   0  0  0  0  0  0
  -25.9846  -25.9369   19.0878 H   0  0  0  0  0  0
  -23.9563  -27.2796   19.0814 H   0  0  0  0  0  0
  -23.7202  -30.5984   19.4013 H   0  0  0  0  0  0
  -22.7353  -29.2447   19.8709 H   0  0  0  0  0  0
  -25.1286  -36.1975   25.0839 H   0  0  0  0  0  0
  -20.9999  -28.3277   24.1422 H   0  0  0  0  0  0
  -20.5710  -26.2306   23.3618 H   0  0  0  0  0  0
  -21.6648  -26.7509   22.1186 H   0  0  0  0  0  0
  -19.6927  -25.6339   21.1232 H   0  0  0  0  0  0
  -19.6702  -27.3243   20.6749 H   0  0  0  0  0  0
  -17.4213  -26.6734   21.4017 H   0  0  0  0  0  0
  -18.0330  -26.0113   22.9029 H   0  0  0  0  0  0
  -19.7942  -30.7274   24.2318 H   0  0  0  0  0  0
  -17.5036  -31.6295   24.5199 H   0  0  0  0  0  0
  -15.5370  -30.3056   23.7632 H   0  0  0  0  0  0
  -15.8680  -28.0872   22.7088 H   0  0  0  0  0  0
  -24.5925  -30.7076   25.7780 H   0  0  0  0  0  0
  -24.8893  -32.2891   26.4854 H   0  0  0  0  0  0
  -25.8071  -30.8938   27.0230 H   0  0  0  0  0  0
  -26.2839  -29.6817   24.1156 H   0  0  0  0  0  0
  -27.4146  -29.7327   25.4517 H   0  0  0  0  0  0
  -27.8649  -30.4414   23.9173 H   0  0  0  0  0  0
  -27.2764  -33.3637   26.2033 H   0  0  0  0  0  0
  -28.3889  -32.6834   25.0260 H   0  0  0  0  0  0
  -28.0749  -31.8415   26.5356 H   0  0  0  0  0  0
  -28.2618  -38.0079   24.7551 H   0  0  0  0  0  0
  -28.1071  -36.2621   24.6274 H   0  0  0  0  0  0
  -27.2302  -37.1425   25.8876 H   0  0  0  0  0  0
  -20.9314  -29.8768   21.6904 H   0  0  0  0  0  0
  -26.0189  -38.2877   24.1464 H   0  0  0  0  0  0
  -31.2529  -25.0650   19.8745 H   0  0  0  0  0  0
  -31.7438  -17.8429   20.9713 H   0  0  0  0  0  0
  -31.9261  -18.2361   22.6629 H   0  0  0  0  0  0
  -27.9811  -18.0159   20.9388 H   0  0  0  0  0  0
  -29.3773  -17.6966   19.9386 H   0  0  0  0  0  0
  -30.8403  -16.1239   23.3447 H   0  0  0  0  0  0
  -32.1858  -15.8012   22.3027 H   0  0  0  0  0  0
  -28.3206  -15.6514   20.5875 H   0  0  0  0  0  0
  -28.3986  -15.9902   22.2872 H   0  0  0  0  0  0
  -29.4294  -18.2126   22.9277 H   0  0  0  0  0  0
  -33.0486  -23.6354   20.5620 H   0  0  0  0  0  0
  -32.9544  -22.0454   19.8133 H   0  0  0  0  0  0
  -32.6126  -22.2400   21.5393 H   0  0  0  0  0  0
  -29.7736  -20.2671   23.8482 H   0  0  0  0  0  0
  -30.0976  -21.6836   22.8784 H   0  0  0  0  0  0
  -31.3634  -20.4824   23.1189 H   0  0  0  0  0  0
  -31.5098  -20.2540   20.4954 H   0  0  0  0  0  0
  -30.0643  -19.8290   19.6359 H   0  0  0  0  0  0
  -27.8842  -25.5718   18.3623 H   0  0  0  0  0  0
  -29.4833  -26.1793   18.4467 H   0  0  0  0  0  0
  -28.8569  -20.1171   21.6673 H   0  0  0  0  0  0
  1 25  1  0  0  0
  1 30  2  0  0  0
  1 86  1  0  0  0
  2  3  1  0  0  0
  2 25  1  0  0  0
  2 88  1  0  0  0
  2 89  1  0  0  0
  3  4  1  0  0  0
  3 90  1  0  0  0
  3 91  1  0  0  0
  4  5  1  0  0  0
  4 92  1  0  0  0
  4 93  1  0  0  0
  5  6  1  0  0  0
  5 26  1  0  0  0
  5 94  1  0  0  0
  6 25  1  0  0  0
  6 95  1  0  0  0
  6 96  1  0  0  0
  7  8  2  0  0  0
  7 26  1  0  0  0
  7 29  1  0  0  0
  8  9  1  0  0  0
  8 22  1  0  0  0
  9 10  1  0  0  0
  9 27  2  0  0  0
 10 11  2  0  0  0
 10 15  1  0  0  0
 11 12  1  0  0  0
 11 97  1  0  0  0
 12 13  2  0  0  0
 12 98  1  0  0  0
 13 14  1  0  0  0
 13 31  1  0  0  0
 14 15  2  0  0  0
 14 99  1  0  0  0
 15100  1  0  0  0
 16 17  2  0  0  0
 16 21  1  0  0  0
 16 31  1  0  0  0
 17 18  1  0  0  0
 17101  1  0  0  0
 18 19  2  0  0  0
 18102  1  0  0  0
 19 20  1  0  0  0
 19 24  1  0  0  0
 20 21  2  0  0  0
 20103  1  0  0  0
 21 23  1  0  0  0
 22 28  1  0  0  0
 22 32  2  0  0  0
 26 27  1  0  0  0
 28104  1  0  0  0
 28105  1  0  0  0
 29106  1  0  0  0
 29107  1  0  0  0
 33 34  1  0  0  0
 33 66  1  0  0  0
 33 70  2  0  0  0
 34 36  1  0  0  0
 34 59  1  0  0  0
 34108  1  0  0  0
 35 44  2  0  0  0
 35 45  1  0  0  0
 35 68  1  0  0  0
 36 56  1  0  0  0
 36109  1  0  0  0
 37 39  1  0  0  0
 37 47  1  0  0  0
 37 66  1  0  0  0
 37110  1  0  0  0
 38 43  2  0  0  0
 38 46  1  0  0  0
 38 47  1  0  0  0
 39 64  1  0  0  0
 39 67  2  0  0  0
 40 52  1  0  0  0
 40 53  2  0  0  0
 40 58  1  0  0  0
 41111  1  0  0  0
 41112  1  0  0  0
 41113  1  0  0  0
 41 48  1  0  0  0
 42 43  1  0  0  0
 42 66  1  0  0  0
 42114  1  0  0  0
 42115  1  0  0  0
 43 44  1  0  0  0
 44116  1  0  0  0
 45 46  2  0  0  0
 45117  1  0  0  0
 46118  1  0  0  0
 47119  1  0  0  0
 47120  1  0  0  0
 48 56  1  0  0  0
 48 65  1  0  0  0
 48121  1  0  0  0
 49 50  1  0  0  0
 49 53  1  0  0  0
 49 64  1  0  0  0
 49122  1  0  0  0
 50 51  1  0  0  0
 50123  1  0  0  0
 50124  1  0  0  0
 51 52  1  0  0  0
 51125  1  0  0  0
 51126  1  0  0  0
 52127  1  0  0  0
 52128  1  0  0  0
 53 54  1  0  0  0
 54 55  2  0  0  0
 54129  1  0  0  0
 55 57  1  0  0  0
 55130  1  0  0  0
 56 69  2  0  0  0
 57 58  2  0  0  0
 57131  1  0  0  0
 58132  1  0  0  0
 59 60  1  0  0  0
 59 61  1  0  0  0
 59 62  1  0  0  0
 60133  1  0  0  0
 60134  1  0  0  0
 60135  1  0  0  0
 61136  1  0  0  0
 61137  1  0  0  0
 61138  1  0  0  0
 62139  1  0  0  0
 62140  1  0  0  0
 62141  1  0  0  0
 63 65  1  0  0  0
 63142  1  0  0  0
 63143  1  0  0  0
 63144  1  0  0  0
 64145  1  0  0  0
 65146  1  0  0  0
 68 83  1  0  0  0
 71 72  2  0  0  0
 71 73  1  0  0  0
 71147  1  0  0  0
 72 74  1  0  0  0
 72 80  1  0  0  0
 73 83  1  0  0  0
 73 84  2  0  0  0
 74 82  1  0  0  0
 74 85  2  0  0  0
 75 77  1  0  0  0
 75148  1  0  0  0
 75149  1  0  0  0
 75 79  1  0  0  0
 76 78  1  0  0  0
 76 79  1  0  0  0
 76150  1  0  0  0
 76151  1  0  0  0
 77 86  1  0  0  0
 77152  1  0  0  0
 77153  1  0  0  0
 78 86  1  0  0  0
 78154  1  0  0  0
 78155  1  0  0  0
 79 87  1  0  0  0
 79156  1  0  0  0
 80157  1  0  0  0
 80158  1  0  0  0
 80159  1  0  0  0
 81160  1  0  0  0
 81161  1  0  0  0
 81162  1  0  0  0
 81 87  1  0  0  0
 82 87  1  0  0  0
 82163  1  0  0  0
 82164  1  0  0  0
 83165  1  0  0  0
 83166  1  0  0  0
 84 85  1  0  0  0
 87167  1  0  0  0
M  CHG  1  87   1
M  ISO  4   1 100  68 101  83 101  86 100
M  END
> <chiral flag>
0

> <version>
0

> <s_m_source_file>
/data/baiqing/PycharmProjects/Reinvent-master-3.2/result/LINK_invent/BTK/process_docking_weight1_custom_sum_contain_oxygen_bond_distance_aromatic_linkinvent_7_9_3/rearranged_h_0193.sdf

> <i_m_source_file_index>
22

> <r_mmod_Potential_Energy-OPLS-2005>
89.4386215209961

> <r_mmod_Stretch_Energy-OPLS-2005>
47.3879280090332

> <r_mmod_Bend_Energy-OPLS-2005>
129.517913818359

> <r_mmod_Torsional_Energy-OPLS-2005>
317.219360351562

> <r_mmod_Improper_Torsional_Energy-OPLS-2005>
3.50732135772705

> <r_mmod_Van_der_Waal_Energy-OPLS-2005>
168.035675048828

> <r_mmod_Electrostatic_Energy-OPLS-2005>
-148.861145019531

> <r_mmod_Solvation_Energy-OPLS-2005>
-445.014007568359

> <b_mmod_Minimization_Converged-OPLS-2005>
0

> <r_mmod_RMS_Derivative-OPLS-2005>
1.6782922744751

$$$$
22
                    3D
 Structure written by MMmdl.
161170  0  0  1  0            999 V2000
  -30.5632  -14.9596   20.3670 C   0  0  0  0  0  0
  -30.4406  -12.5932   19.4801 C   0  0  0  0  0  0
  -29.5154  -12.4960   18.2474 C   0  0  0  0  0  0
  -28.0584  -12.2512   18.6867 C   0  0  0  0  0  0
  -27.6202  -13.1972   19.8319 C   0  0  2  0  0  0
  -28.6751  -13.3091   20.9532 C   0  0  0  0  0  0
  -25.2522  -13.8071   20.5769 C   0  0  0  0  0  0
  -24.1775  -13.0375   20.9248 C   0  0  0  0  0  0
  -24.6324  -11.6838   20.8796 C   0  0  0  0  0  0
  -23.9001  -10.4253   21.0440 C   0  0  0  0  0  0
  -24.3574   -9.4167   21.9200 C   0  0  0  0  0  0
  -23.6268   -8.2196   22.0753 C   0  0  0  0  0  0
  -22.4250   -8.0248   21.3539 C   0  0  0  0  0  0
  -21.9871   -9.0222   20.4649 C   0  0  0  0  0  0
  -22.7188  -10.2107   20.3071 C   0  0  0  0  0  0
  -21.6834   -6.0716   22.5281 C   0  0  0  0  0  0
  -21.4003   -6.5631   23.8213 C   0  0  0  0  0  0
  -21.3653   -5.6785   24.9181 C   0  0  0  0  0  0
  -21.6038   -4.3044   24.7230 C   0  0  0  0  0  0
  -21.8820   -3.8136   23.4351 C   0  0  0  0  0  0
  -21.9192   -4.6948   22.3408 C   0  0  0  0  0  0
  -22.7817  -13.5216   21.1872 C   0  0  0  0  0  0
  -22.1661   -4.2132   21.0981 F   0  0  0  0  0  0
  -21.5633   -3.4534   25.7745 F   0  0  0  0  0  0
  -29.9388  -13.7132   20.3199 N   0  0  0  0  0  0
  -26.2857  -12.9157   20.3304 N   0  0  0  0  0  0
  -25.9234  -11.6356   20.5806 N   0  0  0  0  0  0
  -22.0428  -12.8260   22.0438 N   0  0  0  0  0  0
  -25.4324  -15.1794   20.4217 N   0  0  0  0  0  0
  -31.7929  -14.9740   20.2511 O   0  0  0  0  0  0
  -21.6612   -6.8852   21.4236 O   0  0  0  0  0  0
  -22.3541  -14.5522   20.6689 O   0  0  0  0  0  0
  -24.6427  -31.8457   23.1918 C   0  0  0  0  0  0
  -25.9212  -32.4698   23.8296 C   0  0  1  0  0  0
  -27.2103  -27.1550   20.1550 C   0  0  0  0  0  0
  -25.5978  -33.8503   24.2221 N   0  0  0  0  0  0
  -23.4449  -30.4674   21.5363 C   0  0  2  0  0  0
  -24.8941  -28.8981   20.1123 C   0  0  0  0  0  0
  -22.7555  -29.4564   22.4869 C   0  0  0  0  0  0
  -18.0299  -28.1390   22.8479 C   0  0  0  0  0  0
  -24.1496  -36.7250   23.2637 C   0  0  0  0  0  0
  -26.0008  -30.7251   21.3900 C   0  0  0  0  0  0
  -26.0719  -29.3386   20.7315 C   0  0  0  0  0  0
  -27.2359  -28.4835   20.7357 C   0  0  0  0  0  0
  -26.0141  -26.8187   19.4870 C   0  0  0  0  0  0
  -24.8765  -27.6507   19.4735 C   0  0  0  0  0  0
  -23.6698  -29.7975   20.1557 C   0  0  0  0  0  0
  -25.4122  -36.3034   24.0326 C   0  0  1  0  0  0
  -20.5911  -28.3715   23.1234 C   0  0  2  0  0  0
  -20.6778  -26.9416   22.5408 C   0  0  0  0  0  0
  -19.5764  -26.6371   21.5208 C   0  0  0  0  0  0
  -18.1940  -26.7937   22.1607 C   0  0  0  0  0  0
  -19.1556  -28.8869   23.2852 C   0  0  0  0  0  0
  -18.9469  -30.1463   23.8876 C   0  0  0  0  0  0
  -17.6470  -30.6585   24.0548 C   0  0  0  0  0  0
  -25.9079  -34.9404   23.5079 C   0  0  0  0  0  0
  -16.5360  -29.9077   23.6334 C   0  0  0  0  0  0
  -16.7283  -28.6489   23.0361 C   0  0  0  0  0  0
  -26.4538  -31.6562   25.0733 C   0  0  0  0  0  0
  -25.3736  -31.3789   26.1455 C   0  0  0  0  0  0
  -27.0366  -30.2935   24.6339 C   0  0  0  0  0  0
  -27.6105  -32.4307   25.7477 C   0  0  0  0  0  0
  -27.5593  -37.1759   24.8450 C   0  0  0  0  0  0
  -21.4250  -29.3046   22.3606 N   0  0  0  0  0  0
  -26.4282  -37.3751   23.9435 N   0  0  0  0  0  0
  -24.7153  -31.0338   22.0938 N   0  0  0  0  0  0
  -23.4205  -28.8111   23.3012 O   0  0  0  0  0  0
  -28.2447  -26.1577   20.1878 O   0  0  0  0  0  0
  -26.5635  -34.8895   22.4641 O   0  0  0  0  0  0
  -23.5550  -32.1320   23.7153 O   0  0  0  0  0  0
  -29.2388  -20.4036   20.1540 C   0  0  0  0  0  0
  -29.5585  -21.2385   21.2810 C   0  0  0  0  0  0
  -28.2540  -22.4359   19.2473 C   0  0  0  0  0  0
  -28.5659  -23.2756   20.3739 C   0  0  0  0  0  0
  -28.5639  -18.0111   19.1584 C   0  0  0  0  0  0
  -29.0822  -16.5467   19.0861 C   0  0  0  0  0  0
  -30.1272  -17.6157   20.8555 C   0  0  0  0  0  0
  -29.6419  -18.8252   19.8587 C   0  0  2  0  0  0
  -30.3053  -20.6554   22.4617 C   0  0  0  0  0  0
  -28.2832  -23.5930   16.9816 C   0  0  0  0  0  0
  -27.4259  -22.9651   18.0851 C   0  0  0  0  0  0
  -27.8788  -24.7431   20.6961 C   0  0  0  0  0  0
  -28.6125  -21.0930   19.1374 N   0  0  0  0  0  0
  -29.2305  -22.5959   21.3809 N   0  0  0  0  0  0
  -29.8206  -16.1849   20.3162 N   0  0  0  0  0  0
  -31.4707  -12.7560   19.1584 H   0  0  0  0  0  0
  -30.4457  -11.6589   20.0442 H   0  0  0  0  0  0
  -29.8504  -11.6922   17.5901 H   0  0  0  0  0  0
  -29.5755  -13.4162   17.6636 H   0  0  0  0  0  0
  -27.9888  -11.2182   19.0277 H   0  0  0  0  0  0
  -27.3818  -12.3356   17.8356 H   0  0  0  0  0  0
  -27.5268  -14.1518   19.3493 H   0  0  0  0  0  0
  -28.7863  -12.3647   21.4877 H   0  0  0  0  0  0
  -28.3671  -14.0537   21.6886 H   0  0  0  0  0  0
  -25.2713   -9.5651   22.4779 H   0  0  0  0  0  0
  -23.9981   -7.4580   22.7459 H   0  0  0  0  0  0
  -21.0801   -8.8744   19.8964 H   0  0  0  0  0  0
  -22.3644  -10.9655   19.6198 H   0  0  0  0  0  0
  -21.1988   -7.6137   23.9715 H   0  0  0  0  0  0
  -21.1475   -6.0513   25.9083 H   0  0  0  0  0  0
  -22.0608   -2.7596   23.2851 H   0  0  0  0  0  0
  -22.4018  -11.9940   22.4885 H   0  0  0  0  0  0
  -21.1045  -13.1317   22.2595 H   0  0  0  0  0  0
  -24.6779  -15.8443   20.5516 H   0  0  0  0  0  0
  -26.3053  -15.6148   20.1528 H   0  0  0  0  0  0
  -26.7283  -32.5312   23.1027 H   0  0  0  0  0  0
  -25.0145  -33.9618   25.0386 H   0  0  0  0  0  0
  -22.7478  -31.2937   21.3833 H   0  0  0  0  0  0
  -23.3779  -35.9556   23.3237 H   0  0  0  0  0  0
  -24.3606  -36.8935   22.2065 H   0  0  0  0  0  0
  -23.7205  -37.6415   23.6698 H   0  0  0  0  0  0
  -26.1583  -31.4815   20.6201 H   0  0  0  0  0  0
  -26.8701  -30.7720   22.0341 H   0  0  0  0  0  0
  -28.1342  -28.8138   21.2382 H   0  0  0  0  0  0
  -25.9346  -25.8684   18.9801 H   0  0  0  0  0  0
  -23.9805  -27.3119   18.9720 H   0  0  0  0  0  0
  -23.8018  -30.5707   19.3984 H   0  0  0  0  0  0
  -22.7856  -29.2365   19.8477 H   0  0  0  0  0  0
  -25.1296  -36.1858   25.0816 H   0  0  0  0  0  0
  -21.0007  -28.3302   24.1352 H   0  0  0  0  0  0
  -20.5642  -26.2332   23.3628 H   0  0  0  0  0  0
  -21.6647  -26.7399   22.1226 H   0  0  0  0  0  0
  -19.6919  -25.6272   21.1255 H   0  0  0  0  0  0
  -19.6713  -27.3160   20.6725 H   0  0  0  0  0  0
  -17.4216  -26.6684   21.4002 H   0  0  0  0  0  0
  -18.0330  -26.0075   22.8994 H   0  0  0  0  0  0
  -19.7949  -30.7279   24.2237 H   0  0  0  0  0  0
  -17.5025  -31.6266   24.5149 H   0  0  0  0  0  0
  -15.5363  -30.2964   23.7678 H   0  0  0  0  0  0
  -15.8683  -28.0794   22.7104 H   0  0  0  0  0  0
  -24.5922  -30.7107   25.7813 H   0  0  0  0  0  0
  -24.8912  -32.2980   26.4794 H   0  0  0  0  0  0
  -25.8037  -30.9039   27.0284 H   0  0  0  0  0  0
  -26.2971  -29.6669   24.1338 H   0  0  0  0  0  0
  -27.3924  -29.7242   25.4939 H   0  0  0  0  0  0
  -27.8921  -30.4119   23.9685 H   0  0  0  0  0  0
  -27.2743  -33.3630   26.2021 H   0  0  0  0  0  0
  -28.3915  -32.6824   25.0290 H   0  0  0  0  0  0
  -28.0781  -31.8452   26.5403 H   0  0  0  0  0  0
  -28.2563  -38.0103   24.7568 H   0  0  0  0  0  0
  -28.1134  -36.2642   24.6166 H   0  0  0  0  0  0
  -27.2337  -37.1271   25.8854 H   0  0  0  0  0  0
  -20.9459  -29.8757   21.6783 H   0  0  0  0  0  0
  -26.0148  -38.2808   24.1491 H   0  0  0  0  0  0
  -27.6430  -18.0503   19.7409 H   0  0  0  0  0  0
  -28.3348  -18.4051   18.1677 H   0  0  0  0  0  0
  -29.7609  -16.4437   18.2369 H   0  0  0  0  0  0
  -28.2358  -15.9144   18.8763 H   0  0  0  0  0  0
  -29.5993  -17.7064   21.8052 H   0  0  0  0  0  0
  -31.1898  -17.7157   21.0830 H   0  0  0  0  0  0
  -30.4533  -18.9275   19.1368 H   0  0  0  0  0  0
  -31.2115  -20.1513   22.1249 H   0  0  0  0  0  0
  -29.6793  -19.9278   22.9785 H   0  0  0  0  0  0
  -30.5951  -21.4266   23.1755 H   0  0  0  0  0  0
  -27.6579  -23.9493   16.1630 H   0  0  0  0  0  0
  -28.9890  -22.8713   16.5710 H   0  0  0  0  0  0
  -28.8502  -24.4439   17.3588 H   0  0  0  0  0  0
  -26.6905  -23.6856   18.4399 H   0  0  0  0  0  0
  -26.8439  -22.1454   17.6615 H   0  0  0  0  0  0
  -27.9580  -24.8415   21.7791 H   0  0  0  0  0  0
  -26.8126  -24.5802   20.5521 H   0  0  0  0  0  0
  1 25  1  0  0  0
  1 30  2  0  0  0
  1 85  1  0  0  0
  2  3  1  0  0  0
  2 25  1  0  0  0
  2 86  1  0  0  0
  2 87  1  0  0  0
  3  4  1  0  0  0
  3 88  1  0  0  0
  3 89  1  0  0  0
  4  5  1  0  0  0
  4 90  1  0  0  0
  4 91  1  0  0  0
  5  6  1  0  0  0
  5 26  1  0  0  0
  5 92  1  0  0  0
  6 25  1  0  0  0
  6 93  1  0  0  0
  6 94  1  0  0  0
  7  8  2  0  0  0
  7 26  1  0  0  0
  7 29  1  0  0  0
  8  9  1  0  0  0
  8 22  1  0  0  0
  9 10  1  0  0  0
  9 27  2  0  0  0
 10 11  2  0  0  0
 10 15  1  0  0  0
 11 12  1  0  0  0
 11 95  1  0  0  0
 12 13  2  0  0  0
 12 96  1  0  0  0
 13 14  1  0  0  0
 13 31  1  0  0  0
 14 15  2  0  0  0
 14 97  1  0  0  0
 15 98  1  0  0  0
 16 17  2  0  0  0
 16 21  1  0  0  0
 16 31  1  0  0  0
 17 18  1  0  0  0
 17 99  1  0  0  0
 18 19  2  0  0  0
 18100  1  0  0  0
 19 20  1  0  0  0
 19 24  1  0  0  0
 20 21  2  0  0  0
 20101  1  0  0  0
 21 23  1  0  0  0
 22 28  1  0  0  0
 22 32  2  0  0  0
 26 27  1  0  0  0
 28102  1  0  0  0
 28103  1  0  0  0
 29104  1  0  0  0
 29105  1  0  0  0
 33 34  1  0  0  0
 33 66  1  0  0  0
 33 70  2  0  0  0
 34 36  1  0  0  0
 34 59  1  0  0  0
 34106  1  0  0  0
 35 44  2  0  0  0
 35 45  1  0  0  0
 35 68  1  0  0  0
 36 56  1  0  0  0
 36107  1  0  0  0
 37 39  1  0  0  0
 37 47  1  0  0  0
 37 66  1  0  0  0
 37108  1  0  0  0
 38 43  2  0  0  0
 38 46  1  0  0  0
 38 47  1  0  0  0
 39 64  1  0  0  0
 39 67  2  0  0  0
 40 52  1  0  0  0
 40 53  2  0  0  0
 40 58  1  0  0  0
 41109  1  0  0  0
 41110  1  0  0  0
 41111  1  0  0  0
 41 48  1  0  0  0
 42 43  1  0  0  0
 42 66  1  0  0  0
 42112  1  0  0  0
 42113  1  0  0  0
 43 44  1  0  0  0
 44114  1  0  0  0
 45 46  2  0  0  0
 45115  1  0  0  0
 46116  1  0  0  0
 47117  1  0  0  0
 47118  1  0  0  0
 48 56  1  0  0  0
 48 65  1  0  0  0
 48119  1  0  0  0
 49 50  1  0  0  0
 49 53  1  0  0  0
 49 64  1  0  0  0
 49120  1  0  0  0
 50 51  1  0  0  0
 50121  1  0  0  0
 50122  1  0  0  0
 51 52  1  0  0  0
 51123  1  0  0  0
 51124  1  0  0  0
 52125  1  0  0  0
 52126  1  0  0  0
 53 54  1  0  0  0
 54 55  2  0  0  0
 54127  1  0  0  0
 55 57  1  0  0  0
 55128  1  0  0  0
 56 69  2  0  0  0
 57 58  2  0  0  0
 57129  1  0  0  0
 58130  1  0  0  0
 59 60  1  0  0  0
 59 61  1  0  0  0
 59 62  1  0  0  0
 60131  1  0  0  0
 60132  1  0  0  0
 60133  1  0  0  0
 61134  1  0  0  0
 61135  1  0  0  0
 61136  1  0  0  0
 62137  1  0  0  0
 62138  1  0  0  0
 62139  1  0  0  0
 63 65  1  0  0  0
 63140  1  0  0  0
 63141  1  0  0  0
 63142  1  0  0  0
 64143  1  0  0  0
 65144  1  0  0  0
 68 82  1  0  0  0
 71 72  2  0  0  0
 71 83  1  0  0  0
 71 78  1  0  0  0
 72 79  1  0  0  0
 72 84  1  0  0  0
 73 74  1  0  0  0
 73 81  1  0  0  0
 73 83  2  0  0  0
 74 82  1  0  0  0
 74 84  2  0  0  0
 75 76  1  0  0  0
 75 78  1  0  0  0
 75145  1  0  0  0
 75146  1  0  0  0
 76 85  1  0  0  0
 76147  1  0  0  0
 76148  1  0  0  0
 77 78  1  0  0  0
 77 85  1  0  0  0
 77149  1  0  0  0
 77150  1  0  0  0
 78151  1  0  0  0
 79152  1  0  0  0
 79153  1  0  0  0
 79154  1  0  0  0
 80 81  1  0  0  0
 80155  1  0  0  0
 80156  1  0  0  0
 80157  1  0  0  0
 81158  1  0  0  0
 81159  1  0  0  0
 82160  1  0  0  0
 82161  1  0  0  0
M  ISO  4   1 100  68 101  82 101  85 100
M  END
> <chiral flag>
0

> <version>
0

> <s_m_source_file>
/data/baiqing/PycharmProjects/Reinvent-master-3.2/result/LINK_invent/BTK/process_docking_weight1_custom_sum_contain_oxygen_bond_distance_aromatic_linkinvent_7_9_3/rearranged_h_0193.sdf

> <i_m_source_file_index>
23

> <r_mmod_Potential_Energy-OPLS-2005>
758.858947753906

> <r_mmod_Stretch_Energy-OPLS-2005>
218.729431152344

> <r_mmod_Bend_Energy-OPLS-2005>
296.80224609375

> <r_mmod_Torsional_Energy-OPLS-2005>
351.457550048828

> <r_mmod_Improper_Torsional_Energy-OPLS-2005>
10.8883743286133

> <r_mmod_Van_der_Waal_Energy-OPLS-2005>
127.677612304688

> <r_mmod_Electrostatic_Energy-OPLS-2005>
-232.396194458008

> <r_mmod_Solvation_Energy-OPLS-2005>
-213.70133972168

> <b_mmod_Minimization_Converged-OPLS-2005>
0

> <r_mmod_RMS_Derivative-OPLS-2005>
1.70732414722443

$$$$
23
                    3D
 Structure written by MMmdl.
159167  0  0  1  0            999 V2000
  -30.6943  -14.4223   20.5934 C   0  0  0  0  0  0
  -30.4232  -12.2859   19.4098 C   0  0  0  0  0  0
  -29.4888  -12.5207   18.2034 C   0  0  0  0  0  0
  -28.0079  -12.3893   18.6159 C   0  0  0  0  0  0
  -27.6642  -13.2025   19.8935 C   0  0  2  0  0  0
  -28.7061  -12.9287   21.0030 C   0  0  0  0  0  0
  -25.2561  -13.8153   20.5744 C   0  0  0  0  0  0
  -24.1794  -13.0442   20.9185 C   0  0  0  0  0  0
  -24.6334  -11.6907   20.8727 C   0  0  0  0  0  0
  -23.9015  -10.4280   21.0385 C   0  0  0  0  0  0
  -24.3579   -9.4201   21.9169 C   0  0  0  0  0  0
  -23.6266   -8.2227   22.0728 C   0  0  0  0  0  0
  -22.4255   -8.0248   21.3523 C   0  0  0  0  0  0
  -21.9886   -9.0215   20.4623 C   0  0  0  0  0  0
  -22.7188  -10.2106   20.3028 C   0  0  0  0  0  0
  -21.6837   -6.0698   22.5264 C   0  0  0  0  0  0
  -21.4023   -6.5592   23.8205 C   0  0  0  0  0  0
  -21.3681   -5.6747   24.9170 C   0  0  0  0  0  0
  -21.6040   -4.3004   24.7209 C   0  0  0  0  0  0
  -21.8821   -3.8103   23.4327 C   0  0  0  0  0  0
  -21.9187   -4.6929   22.3389 C   0  0  0  0  0  0
  -22.7800  -13.5250   21.1836 C   0  0  0  0  0  0
  -22.1651   -4.2118   21.0962 F   0  0  0  0  0  0
  -21.5650   -3.4490   25.7725 F   0  0  0  0  0  0
  -30.0435  -13.2374   20.4627 N   0  0  0  0  0  0
  -26.3008  -12.9319   20.3466 N   0  0  0  0  0  0
  -25.9268  -11.6481   20.5789 N   0  0  0  0  0  0
  -22.0418  -12.8289   22.0411 N   0  0  0  0  0  0
  -25.4315  -15.1884   20.4223 N   0  0  0  0  0  0
  -31.7869  -14.6627   20.0740 O   0  0  0  0  0  0
  -21.6615   -6.8847   21.4228 O   0  0  0  0  0  0
  -22.3513  -14.5547   20.6653 O   0  0  0  0  0  0
  -24.6163  -31.8707   23.2090 C   0  0  0  0  0  0
  -25.9055  -32.4827   23.8385 C   0  0  1  0  0  0
  -27.2425  -27.4405   20.0838 C   0  0  0  0  0  0
  -25.5935  -33.8626   24.2341 N   0  0  0  0  0  0
  -23.4003  -30.4938   21.5509 C   0  0  2  0  0  0
  -24.8429  -28.9496   20.1220 C   0  0  0  0  0  0
  -22.7406  -29.4707   22.5021 C   0  0  0  0  0  0
  -18.0283  -28.1386   22.8511 C   0  0  0  0  0  0
  -24.1499  -36.7310   23.2645 C   0  0  0  0  0  0
  -25.9284  -30.8296   21.3627 C   0  0  0  0  0  0
  -26.0013  -29.4634   20.7144 C   0  0  0  0  0  0
  -27.1983  -28.7165   20.6922 C   0  0  0  0  0  0
  -26.0561  -26.9309   19.5014 C   0  0  0  0  0  0
  -24.8644  -27.6816   19.5190 C   0  0  0  0  0  0
  -23.6052  -29.8174   20.1688 C   0  0  0  0  0  0
  -25.4121  -36.3126   24.0359 C   0  0  1  0  0  0
  -20.5874  -28.3694   23.1308 C   0  0  2  0  0  0
  -20.6789  -26.9430   22.5412 C   0  0  0  0  0  0
  -19.5755  -26.6392   21.5229 C   0  0  0  0  0  0
  -18.1927  -26.7933   22.1631 C   0  0  0  0  0  0
  -19.1529  -28.8857   23.2902 C   0  0  0  0  0  0
  -18.9456  -30.1462   23.8913 C   0  0  0  0  0  0
  -17.6461  -30.6590   24.0572 C   0  0  0  0  0  0
  -25.9052  -34.9487   23.5148 C   0  0  0  0  0  0
  -16.5354  -29.9085   23.6333 C   0  0  0  0  0  0
  -16.7277  -28.6502   23.0365 C   0  0  0  0  0  0
  -26.4480  -31.6591   25.0706 C   0  0  0  0  0  0
  -25.3738  -31.3686   26.1443 C   0  0  0  0  0  0
  -27.0328  -30.3049   24.6076 C   0  0  0  0  0  0
  -27.6060  -32.4301   25.7456 C   0  0  0  0  0  0
  -27.5593  -37.1816   24.8479 C   0  0  0  0  0  0
  -21.4149  -29.3057   22.3718 N   0  0  0  0  0  0
  -26.4316  -37.3805   23.9408 N   0  0  0  0  0  0
  -24.6659  -31.0795   22.0986 N   0  0  0  0  0  0
  -23.4179  -28.8299   23.3095 O   0  0  0  0  0  0
  -28.4636  -26.7955   20.0465 O   0  0  0  0  0  0
  -26.5585  -34.8939   22.4691 O   0  0  0  0  0  0
  -23.5354  -32.1482   23.7483 O   0  0  0  0  0  0
  -27.6863  -20.3347   19.7702 C   0  0  0  0  0  0
  -28.0852  -19.0348   19.8879 C   0  0  0  0  0  0
  -28.1087  -20.9447   20.9848 C   0  0  0  0  0  0
  -27.4736  -22.4104   22.9374 C   0  0  0  0  0  0
  -29.1731  -17.6762   21.7586 C   0  0  0  0  0  0
  -30.1301  -16.8120   20.9088 C   0  0  0  0  0  0
  -28.7694  -24.6975   21.2116 C   0  0  0  0  0  0
  -28.5676  -25.3803   19.8449 C   0  0  0  0  0  0
  -27.8512  -22.3697   21.4395 C   0  0  1  0  0  0
  -28.8028  -20.0939   21.7413 N   0  0  0  0  0  0
  -28.7350  -18.9042   21.0972 N   0  0  0  0  0  0
  -29.9700  -15.3825   21.1811 N   0  0  0  0  0  0
  -29.0103  -23.2286   21.1210 N   0  3  0  0  0  0
  -31.4672  -12.3912   19.1104 H   0  0  0  0  0  0
  -30.3186  -11.2644   19.7753 H   0  0  0  0  0  0
  -29.7119  -11.8127   17.4048 H   0  0  0  0  0  0
  -29.6614  -13.5169   17.7953 H   0  0  0  0  0  0
  -27.8074  -11.3319   18.7830 H   0  0  0  0  0  0
  -27.3572  -12.6925   17.7934 H   0  0  0  0  0  0
  -27.7173  -14.2592   19.6320 H   0  0  0  0  0  0
  -28.6756  -11.8773   21.2930 H   0  0  0  0  0  0
  -28.4716  -13.4800   21.9156 H   0  0  0  0  0  0
  -25.2701   -9.5655   22.4784 H   0  0  0  0  0  0
  -23.9932   -7.4603   22.7454 H   0  0  0  0  0  0
  -21.0796   -8.8710   19.8968 H   0  0  0  0  0  0
  -22.3600  -10.9633   19.6146 H   0  0  0  0  0  0
  -21.2031   -7.6100   23.9704 H   0  0  0  0  0  0
  -21.1523   -6.0471   25.9075 H   0  0  0  0  0  0
  -22.0604   -2.7566   23.2817 H   0  0  0  0  0  0
  -22.3971  -11.9959   22.4871 H   0  0  0  0  0  0
  -21.1039  -13.1377   22.2546 H   0  0  0  0  0  0
  -24.6736  -15.8500   20.5480 H   0  0  0  0  0  0
  -26.2985  -15.6300   20.1493 H   0  0  0  0  0  0
  -26.7123  -32.5539   23.1145 H   0  0  0  0  0  0
  -25.0165  -33.9802   25.0542 H   0  0  0  0  0  0
  -22.6906  -31.3115   21.4115 H   0  0  0  0  0  0
  -23.3773  -35.9630   23.3336 H   0  0  0  0  0  0
  -24.3595  -36.8876   22.2051 H   0  0  0  0  0  0
  -23.7240  -37.6528   23.6619 H   0  0  0  0  0  0
  -26.0449  -31.5931   20.5920 H   0  0  0  0  0  0
  -26.8151  -30.8800   21.9835 H   0  0  0  0  0  0
  -28.0956  -29.1238   21.1378 H   0  0  0  0  0  0
  -26.0148  -25.9747   19.0042 H   0  0  0  0  0  0
  -23.9717  -27.2793   19.0617 H   0  0  0  0  0  0
  -23.7116  -30.5869   19.4038 H   0  0  0  0  0  0
  -22.7276  -29.2330   19.8815 H   0  0  0  0  0  0
  -25.1285  -36.2010   25.0853 H   0  0  0  0  0  0
  -20.9972  -28.3271   24.1428 H   0  0  0  0  0  0
  -20.5734  -26.2320   23.3615 H   0  0  0  0  0  0
  -21.6655  -26.7503   22.1174 H   0  0  0  0  0  0
  -19.6926  -25.6308   21.1243 H   0  0  0  0  0  0
  -19.6668  -27.3227   20.6778 H   0  0  0  0  0  0
  -17.4216  -26.6741   21.3997 H   0  0  0  0  0  0
  -18.0284  -26.0033   22.8986 H   0  0  0  0  0  0
  -19.7942  -30.7274   24.2272 H   0  0  0  0  0  0
  -17.5027  -31.6279   24.5173 H   0  0  0  0  0  0
  -15.5361  -30.3001   23.7642 H   0  0  0  0  0  0
  -15.8686  -28.0826   22.7070 H   0  0  0  0  0  0
  -24.5918  -30.7038   25.7770 H   0  0  0  0  0  0
  -24.8929  -32.2840   26.4898 H   0  0  0  0  0  0
  -25.8078  -30.8841   27.0204 H   0  0  0  0  0  0
  -26.2884  -29.6761   24.1197 H   0  0  0  0  0  0
  -27.4205  -29.7313   25.4507 H   0  0  0  0  0  0
  -27.8652  -30.4388   23.9168 H   0  0  0  0  0  0
  -27.2702  -33.3601   26.2053 H   0  0  0  0  0  0
  -28.3846  -32.6862   25.0257 H   0  0  0  0  0  0
  -28.0766  -31.8423   26.5346 H   0  0  0  0  0  0
  -28.2634  -38.0095   24.7513 H   0  0  0  0  0  0
  -28.1062  -36.2627   24.6317 H   0  0  0  0  0  0
  -27.2307  -37.1485   25.8884 H   0  0  0  0  0  0
  -20.9353  -29.8721   21.6873 H   0  0  0  0  0  0
  -26.0215  -38.2897   24.1366 H   0  0  0  0  0  0
  -27.1257  -20.7722   18.9556 H   0  0  0  0  0  0
  -27.9250  -18.1933   19.2301 H   0  0  0  0  0  0
  -27.1946  -23.4091   23.2721 H   0  0  0  0  0  0
  -28.3035  -22.0753   23.5615 H   0  0  0  0  0  0
  -26.6299  -21.7504   23.1420 H   0  0  0  0  0  0
  -29.6361  -17.9222   22.7166 H   0  0  0  0  0  0
  -28.2687  -17.1128   21.9937 H   0  0  0  0  0  0
  -29.9273  -16.9506   19.8478 H   0  0  0  0  0  0
  -31.1625  -17.1194   21.0703 H   0  0  0  0  0  0
  -27.9247  -24.9285   21.8594 H   0  0  0  0  0  0
  -29.6426  -25.1416   21.6871 H   0  0  0  0  0  0
  -29.4550  -25.2179   19.2318 H   0  0  0  0  0  0
  -27.7517  -24.9270   19.2885 H   0  0  0  0  0  0
  -27.0006  -22.7504   20.8722 H   0  0  0  0  0  0
  -29.1023  -15.0805   21.5992 H   0  0  0  0  0  0
  -29.7476  -22.9651   21.7560 H   0  0  0  0  0  0
  -29.3285  -22.9845   20.1954 H   0  0  0  0  0  0
  1 25  1  0  0  0
  1 30  2  0  0  0
  1 82  1  0  0  0
  2  3  1  0  0  0
  2 25  1  0  0  0
  2 84  1  0  0  0
  2 85  1  0  0  0
  3  4  1  0  0  0
  3 86  1  0  0  0
  3 87  1  0  0  0
  4  5  1  0  0  0
  4 88  1  0  0  0
  4 89  1  0  0  0
  5  6  1  0  0  0
  5 26  1  0  0  0
  5 90  1  0  0  0
  6 25  1  0  0  0
  6 91  1  0  0  0
  6 92  1  0  0  0
  7  8  2  0  0  0
  7 26  1  0  0  0
  7 29  1  0  0  0
  8  9  1  0  0  0
  8 22  1  0  0  0
  9 10  1  0  0  0
  9 27  2  0  0  0
 10 11  2  0  0  0
 10 15  1  0  0  0
 11 12  1  0  0  0
 11 93  1  0  0  0
 12 13  2  0  0  0
 12 94  1  0  0  0
 13 14  1  0  0  0
 13 31  1  0  0  0
 14 15  2  0  0  0
 14 95  1  0  0  0
 15 96  1  0  0  0
 16 17  2  0  0  0
 16 21  1  0  0  0
 16 31  1  0  0  0
 17 18  1  0  0  0
 17 97  1  0  0  0
 18 19  2  0  0  0
 18 98  1  0  0  0
 19 20  1  0  0  0
 19 24  1  0  0  0
 20 21  2  0  0  0
 20 99  1  0  0  0
 21 23  1  0  0  0
 22 28  1  0  0  0
 22 32  2  0  0  0
 26 27  1  0  0  0
 28100  1  0  0  0
 28101  1  0  0  0
 29102  1  0  0  0
 29103  1  0  0  0
 33 34  1  0  0  0
 33 66  1  0  0  0
 33 70  2  0  0  0
 34 36  1  0  0  0
 34 59  1  0  0  0
 34104  1  0  0  0
 35 44  2  0  0  0
 35 45  1  0  0  0
 35 68  1  0  0  0
 36 56  1  0  0  0
 36105  1  0  0  0
 37 39  1  0  0  0
 37 47  1  0  0  0
 37 66  1  0  0  0
 37106  1  0  0  0
 38 43  2  0  0  0
 38 46  1  0  0  0
 38 47  1  0  0  0
 39 64  1  0  0  0
 39 67  2  0  0  0
 40 52  1  0  0  0
 40 53  2  0  0  0
 40 58  1  0  0  0
 41107  1  0  0  0
 41108  1  0  0  0
 41109  1  0  0  0
 41 48  1  0  0  0
 42 43  1  0  0  0
 42 66  1  0  0  0
 42110  1  0  0  0
 42111  1  0  0  0
 43 44  1  0  0  0
 44112  1  0  0  0
 45 46  2  0  0  0
 45113  1  0  0  0
 46114  1  0  0  0
 47115  1  0  0  0
 47116  1  0  0  0
 48 56  1  0  0  0
 48 65  1  0  0  0
 48117  1  0  0  0
 49 50  1  0  0  0
 49 53  1  0  0  0
 49 64  1  0  0  0
 49118  1  0  0  0
 50 51  1  0  0  0
 50119  1  0  0  0
 50120  1  0  0  0
 51 52  1  0  0  0
 51121  1  0  0  0
 51122  1  0  0  0
 52123  1  0  0  0
 52124  1  0  0  0
 53 54  1  0  0  0
 54 55  2  0  0  0
 54125  1  0  0  0
 55 57  1  0  0  0
 55126  1  0  0  0
 56 69  2  0  0  0
 57 58  2  0  0  0
 57127  1  0  0  0
 58128  1  0  0  0
 59 60  1  0  0  0
 59 61  1  0  0  0
 59 62  1  0  0  0
 60129  1  0  0  0
 60130  1  0  0  0
 60131  1  0  0  0
 61132  1  0  0  0
 61133  1  0  0  0
 61134  1  0  0  0
 62135  1  0  0  0
 62136  1  0  0  0
 62137  1  0  0  0
 63 65  1  0  0  0
 63138  1  0  0  0
 63139  1  0  0  0
 63140  1  0  0  0
 64141  1  0  0  0
 65142  1  0  0  0
 68 78  1  0  0  0
 71 72  2  0  0  0
 71 73  1  0  0  0
 71143  1  0  0  0
 72 81  1  0  0  0
 72144  1  0  0  0
 73 79  1  0  0  0
 73 80  2  0  0  0
 74145  1  0  0  0
 74146  1  0  0  0
 74147  1  0  0  0
 74 79  1  0  0  0
 75 76  1  0  0  0
 75 81  1  0  0  0
 75148  1  0  0  0
 75149  1  0  0  0
 76 82  1  0  0  0
 76150  1  0  0  0
 76151  1  0  0  0
 77 78  1  0  0  0
 77 83  1  0  0  0
 77152  1  0  0  0
 77153  1  0  0  0
 78154  1  0  0  0
 78155  1  0  0  0
 79 83  1  0  0  0
 79156  1  0  0  0
 80 81  1  0  0  0
 82157  1  0  0  0
 83158  1  0  0  0
 83159  1  0  0  0
M  CHG  1  83   1
M  ISO  4   1 100  68 101  78 101  82 100
M  END
> <chiral flag>
0

> <version>
0

> <s_m_source_file>
/data/baiqing/PycharmProjects/Reinvent-master-3.2/result/LINK_invent/BTK/process_docking_weight1_custom_sum_contain_oxygen_bond_distance_aromatic_linkinvent_7_9_3/rearranged_h_0193.sdf

> <i_m_source_file_index>
24

> <r_mmod_Potential_Energy-OPLS-2005>
-303.162689208984

> <r_mmod_Stretch_Energy-OPLS-2005>
33.4670944213867

> <r_mmod_Bend_Energy-OPLS-2005>
101.619590759277

> <r_mmod_Torsional_Energy-OPLS-2005>
222.583190917969

> <r_mmod_Improper_Torsional_Energy-OPLS-2005>
5.54051446914673

> <r_mmod_Van_der_Waal_Energy-OPLS-2005>
131.120300292969

> <r_mmod_Electrostatic_Energy-OPLS-2005>
-348.344879150391

> <r_mmod_Solvation_Energy-OPLS-2005>
-459.018127441406

> <b_mmod_Minimization_Converged-OPLS-2005>
0

> <r_mmod_RMS_Derivative-OPLS-2005>
3.42849016189575

$$$$
24
                    3D
 Structure written by MMmdl.
162171  0  0  1  0            999 V2000
  -30.7157  -14.4302   20.5563 C   0  0  0  0  0  0
  -30.4192  -12.2762   19.4090 C   0  0  0  0  0  0
  -29.4912  -12.5006   18.1978 C   0  0  0  0  0  0
  -28.0092  -12.3803   18.6095 C   0  0  0  0  0  0
  -27.6640  -13.2019   19.8795 C   0  0  2  0  0  0
  -28.7096  -12.9684   20.9936 C   0  0  0  0  0  0
  -25.2621  -13.8141   20.5694 C   0  0  0  0  0  0
  -24.1854  -13.0435   20.9175 C   0  0  0  0  0  0
  -24.6395  -11.6894   20.8728 C   0  0  0  0  0  0
  -23.9057  -10.4290   21.0400 C   0  0  0  0  0  0
  -24.3610   -9.4208   21.9180 C   0  0  0  0  0  0
  -23.6302   -8.2234   22.0749 C   0  0  0  0  0  0
  -22.4283   -8.0277   21.3546 C   0  0  0  0  0  0
  -21.9906   -9.0248   20.4654 C   0  0  0  0  0  0
  -22.7221  -10.2134   20.3059 C   0  0  0  0  0  0
  -21.6846   -6.0739   22.5275 C   0  0  0  0  0  0
  -21.4007   -6.5643   23.8212 C   0  0  0  0  0  0
  -21.3660   -5.6791   24.9177 C   0  0  0  0  0  0
  -21.6049   -4.3056   24.7214 C   0  0  0  0  0  0
  -21.8821   -3.8152   23.4336 C   0  0  0  0  0  0
  -21.9192   -4.6963   22.3395 C   0  0  0  0  0  0
  -22.7876  -13.5247   21.1831 C   0  0  0  0  0  0
  -22.1665   -4.2141   21.0978 F   0  0  0  0  0  0
  -21.5634   -3.4541   25.7734 F   0  0  0  0  0  0
  -30.0413  -13.2563   20.4346 N   0  0  0  0  0  0
  -26.3053  -12.9295   20.3419 N   0  0  0  0  0  0
  -25.9324  -11.6457   20.5774 N   0  0  0  0  0  0
  -22.0504  -12.8270   22.0393 N   0  0  0  0  0  0
  -25.4388  -15.1859   20.4127 N   0  0  0  0  0  0
  -31.8601  -14.5984   20.1235 O   0  0  0  0  0  0
  -21.6635   -6.8882   21.4245 O   0  0  0  0  0  0
  -22.3578  -14.5559   20.6676 O   0  0  0  0  0  0
  -24.6082  -31.8703   23.2131 C   0  0  0  0  0  0
  -25.8986  -32.4849   23.8413 C   0  0  1  0  0  0
  -27.2599  -27.4705   20.0983 C   0  0  0  0  0  0
  -25.5836  -33.8647   24.2328 N   0  0  0  0  0  0
  -23.3983  -30.4908   21.5512 C   0  0  2  0  0  0
  -24.8518  -28.9587   20.1212 C   0  0  0  0  0  0
  -22.7387  -29.4647   22.4991 C   0  0  0  0  0  0
  -18.0265  -28.1384   22.8486 C   0  0  0  0  0  0
  -24.1473  -36.7356   23.2644 C   0  0  0  0  0  0
  -25.9221  -30.8450   21.3662 C   0  0  0  0  0  0
  -26.0040  -29.4798   20.7204 C   0  0  0  0  0  0
  -27.2074  -28.7442   20.7170 C   0  0  0  0  0  0
  -26.0896  -26.9602   19.4987 C   0  0  0  0  0  0
  -24.8851  -27.6922   19.5113 C   0  0  0  0  0  0
  -23.6103  -29.8210   20.1658 C   0  0  0  0  0  0
  -25.4096  -36.3136   24.0337 C   0  0  1  0  0  0
  -20.5851  -28.3655   23.1336 C   0  0  2  0  0  0
  -20.6749  -26.9386   22.5455 C   0  0  0  0  0  0
  -19.5739  -26.6369   21.5236 C   0  0  0  0  0  0
  -18.1908  -26.7937   22.1618 C   0  0  0  0  0  0
  -19.1516  -28.8830   23.2911 C   0  0  0  0  0  0
  -18.9449  -30.1436   23.8914 C   0  0  0  0  0  0
  -17.6457  -30.6586   24.0561 C   0  0  0  0  0  0
  -25.9009  -34.9496   23.5137 C   0  0  0  0  0  0
  -16.5343  -29.9095   23.6316 C   0  0  0  0  0  0
  -16.7259  -28.6517   23.0326 C   0  0  0  0  0  0
  -26.4449  -31.6641   25.0740 C   0  0  0  0  0  0
  -25.3731  -31.3789   26.1510 C   0  0  0  0  0  0
  -27.0270  -30.3067   24.6136 C   0  0  0  0  0  0
  -27.6029  -32.4383   25.7471 C   0  0  0  0  0  0
  -27.5591  -37.1816   24.8441 C   0  0  0  0  0  0
  -21.4119  -29.3019   22.3737 N   0  0  0  0  0  0
  -26.4287  -37.3811   23.9410 N   0  0  0  0  0  0
  -24.6601  -31.0830   22.1021 N   0  0  0  0  0  0
  -23.4170  -28.8185   23.3022 O   0  0  0  0  0  0
  -28.3917  -26.6832   20.0274 O   0  0  0  0  0  0
  -26.5605  -34.8944   22.4718 O   0  0  0  0  0  0
  -23.5278  -32.1442   23.7534 O   0  0  0  0  0  0
  -31.5248  -21.4027   22.0608 C   0  0  0  0  0  0
  -30.9369  -22.2588   21.1032 C   0  0  0  0  0  0
  -30.1915  -19.7153   21.2955 C   0  0  0  0  0  0
  -29.0540  -17.7601   20.2263 C   0  0  0  0  0  0
  -30.3568  -17.4452   22.3292 C   0  0  0  0  0  0
  -29.7278  -16.4726   19.7375 C   0  0  0  0  0  0
  -29.7984  -16.0078   22.1918 C   0  0  0  0  0  0
  -31.4028  -23.6943   20.8836 C   0  0  0  0  0  0
  -30.6666  -26.0413   20.5474 C   0  0  0  0  0  0
  -29.5472  -27.0752   20.7664 C   0  0  0  0  0  0
  -31.1390  -20.1076   22.1521 N   0  0  0  0  0  0
  -29.9589  -21.7923   20.2893 N   0  0  0  0  0  0
  -29.5828  -20.5095   20.3954 N   0  0  0  0  0  0
  -29.8330  -18.3654   21.3104 N   0  0  0  0  0  0
  -29.9318  -15.4929   20.8186 N   0  0  0  0  0  0
  -30.3193  -24.6899   21.0543 N   0  3  0  0  0  0
  -31.4635  -12.3678   19.1050 H   0  0  0  0  0  0
  -30.3074  -11.2630   19.7971 H   0  0  0  0  0  0
  -29.7191  -11.7802   17.4109 H   0  0  0  0  0  0
  -29.6745  -13.4868   17.7681 H   0  0  0  0  0  0
  -27.7963  -11.3260   18.7827 H   0  0  0  0  0  0
  -27.3652  -12.6863   17.7836 H   0  0  0  0  0  0
  -27.7067  -14.2519   19.5971 H   0  0  0  0  0  0
  -28.6749  -11.9361   21.3420 H   0  0  0  0  0  0
  -28.4865  -13.5808   21.8677 H   0  0  0  0  0  0
  -25.2743   -9.5681   22.4773 H   0  0  0  0  0  0
  -24.0008   -7.4616   22.7460 H   0  0  0  0  0  0
  -21.0823   -8.8753   19.8980 H   0  0  0  0  0  0
  -22.3652  -10.9674   19.6182 H   0  0  0  0  0  0
  -21.1996   -7.6149   23.9719 H   0  0  0  0  0  0
  -21.1488   -6.0518   25.9085 H   0  0  0  0  0  0
  -22.0607   -2.7613   23.2819 H   0  0  0  0  0  0
  -22.4086  -11.9937   22.4815 H   0  0  0  0  0  0
  -21.1135  -13.1353   22.2595 H   0  0  0  0  0  0
  -24.6858  -15.8524   20.5402 H   0  0  0  0  0  0
  -26.3085  -15.6191   20.1290 H   0  0  0  0  0  0
  -26.7060  -32.5587   23.1188 H   0  0  0  0  0  0
  -24.9906  -33.9806   25.0414 H   0  0  0  0  0  0
  -22.6856  -31.3053   21.4090 H   0  0  0  0  0  0
  -23.3725  -35.9695   23.3298 H   0  0  0  0  0  0
  -24.3565  -36.8978   22.2058 H   0  0  0  0  0  0
  -23.7225  -37.6555   23.6678 H   0  0  0  0  0  0
  -26.0310  -31.6071   20.5938 H   0  0  0  0  0  0
  -26.8106  -30.9034   21.9827 H   0  0  0  0  0  0
  -28.0803  -29.1752   21.1831 H   0  0  0  0  0  0
  -26.1130  -25.9925   19.0170 H   0  0  0  0  0  0
  -24.0003  -27.2823   19.0442 H   0  0  0  0  0  0
  -23.7211  -30.5938   19.4042 H   0  0  0  0  0  0
  -22.7384  -29.2369   19.8677 H   0  0  0  0  0  0
  -25.1275  -36.2009   25.0829 H   0  0  0  0  0  0
  -20.9953  -28.3233   24.1450 H   0  0  0  0  0  0
  -20.5621  -26.2270   23.3648 H   0  0  0  0  0  0
  -21.6627  -26.7404   22.1272 H   0  0  0  0  0  0
  -19.6890  -25.6273   21.1268 H   0  0  0  0  0  0
  -19.6710  -27.3174   20.6766 H   0  0  0  0  0  0
  -17.4200  -26.6696   21.3994 H   0  0  0  0  0  0
  -18.0275  -26.0076   22.9002 H   0  0  0  0  0  0
  -19.7925  -30.7234   24.2307 H   0  0  0  0  0  0
  -17.5014  -31.6268   24.5162 H   0  0  0  0  0  0
  -15.5342  -30.3003   23.7631 H   0  0  0  0  0  0
  -15.8660  -28.0846   22.7026 H   0  0  0  0  0  0
  -24.5826  -30.7225   25.7861 H   0  0  0  0  0  0
  -24.9026  -32.2980   26.5018 H   0  0  0  0  0  0
  -25.8067  -30.8893   27.0236 H   0  0  0  0  0  0
  -26.2808  -29.6830   24.1204 H   0  0  0  0  0  0
  -27.4018  -29.7320   25.4620 H   0  0  0  0  0  0
  -27.8659  -30.4365   23.9295 H   0  0  0  0  0  0
  -27.2630  -33.3646   26.2124 H   0  0  0  0  0  0
  -28.3775  -32.7028   25.0260 H   0  0  0  0  0  0
  -28.0793  -31.8490   26.5317 H   0  0  0  0  0  0
  -28.2598  -38.0124   24.7513 H   0  0  0  0  0  0
  -28.1092  -36.2661   24.6223 H   0  0  0  0  0  0
  -27.2336  -37.1423   25.8847 H   0  0  0  0  0  0
  -20.9273  -29.8749   21.6971 H   0  0  0  0  0  0
  -26.0188  -38.2882   24.1437 H   0  0  0  0  0  0
  -32.3097  -21.7393   22.7224 H   0  0  0  0  0  0
  -28.0426  -17.5527   20.5814 H   0  0  0  0  0  0
  -28.9428  -18.4209   19.3665 H   0  0  0  0  0  0
  -31.4448  -17.4169   22.2485 H   0  0  0  0  0  0
  -30.1325  -17.8369   23.3235 H   0  0  0  0  0  0
  -30.6835  -16.7299   19.2747 H   0  0  0  0  0  0
  -29.1273  -16.0200   18.9466 H   0  0  0  0  0  0
  -28.7418  -15.9923   22.4618 H   0  0  0  0  0  0
  -30.2975  -15.3507   22.9072 H   0  0  0  0  0  0
  -31.7923  -23.7531   19.8657 H   0  0  0  0  0  0
  -32.2357  -23.9300   21.5487 H   0  0  0  0  0  0
  -31.5692  -26.3894   21.0510 H   0  0  0  0  0  0
  -30.9052  -25.9849   19.4835 H   0  0  0  0  0  0
  -29.8981  -28.0468   20.4145 H   0  0  0  0  0  0
  -29.3163  -27.1717   21.8281 H   0  0  0  0  0  0
  -30.0736  -24.7395   22.0306 H   0  0  0  0  0  0
  -29.5099  -24.3545   20.5533 H   0  0  0  0  0  0
  1 25  1  0  0  0
  1 30  2  0  0  0
  1 85  1  0  0  0
  2  3  1  0  0  0
  2 25  1  0  0  0
  2 87  1  0  0  0
  2 88  1  0  0  0
  3  4  1  0  0  0
  3 89  1  0  0  0
  3 90  1  0  0  0
  4  5  1  0  0  0
  4 91  1  0  0  0
  4 92  1  0  0  0
  5  6  1  0  0  0
  5 26  1  0  0  0
  5 93  1  0  0  0
  6 25  1  0  0  0
  6 94  1  0  0  0
  6 95  1  0  0  0
  7  8  2  0  0  0
  7 26  1  0  0  0
  7 29  1  0  0  0
  8  9  1  0  0  0
  8 22  1  0  0  0
  9 10  1  0  0  0
  9 27  2  0  0  0
 10 11  2  0  0  0
 10 15  1  0  0  0
 11 12  1  0  0  0
 11 96  1  0  0  0
 12 13  2  0  0  0
 12 97  1  0  0  0
 13 14  1  0  0  0
 13 31  1  0  0  0
 14 15  2  0  0  0
 14 98  1  0  0  0
 15 99  1  0  0  0
 16 17  2  0  0  0
 16 21  1  0  0  0
 16 31  1  0  0  0
 17 18  1  0  0  0
 17100  1  0  0  0
 18 19  2  0  0  0
 18101  1  0  0  0
 19 20  1  0  0  0
 19 24  1  0  0  0
 20 21  2  0  0  0
 20102  1  0  0  0
 21 23  1  0  0  0
 22 28  1  0  0  0
 22 32  2  0  0  0
 26 27  1  0  0  0
 28103  1  0  0  0
 28104  1  0  0  0
 29105  1  0  0  0
 29106  1  0  0  0
 33 34  1  0  0  0
 33 66  1  0  0  0
 33 70  2  0  0  0
 34 36  1  0  0  0
 34 59  1  0  0  0
 34107  1  0  0  0
 35 44  2  0  0  0
 35 45  1  0  0  0
 35 68  1  0  0  0
 36 56  1  0  0  0
 36108  1  0  0  0
 37 39  1  0  0  0
 37 47  1  0  0  0
 37 66  1  0  0  0
 37109  1  0  0  0
 38 43  2  0  0  0
 38 46  1  0  0  0
 38 47  1  0  0  0
 39 64  1  0  0  0
 39 67  2  0  0  0
 40 52  1  0  0  0
 40 53  2  0  0  0
 40 58  1  0  0  0
 41110  1  0  0  0
 41111  1  0  0  0
 41112  1  0  0  0
 41 48  1  0  0  0
 42 43  1  0  0  0
 42 66  1  0  0  0
 42113  1  0  0  0
 42114  1  0  0  0
 43 44  1  0  0  0
 44115  1  0  0  0
 45 46  2  0  0  0
 45116  1  0  0  0
 46117  1  0  0  0
 47118  1  0  0  0
 47119  1  0  0  0
 48 56  1  0  0  0
 48 65  1  0  0  0
 48120  1  0  0  0
 49 50  1  0  0  0
 49 53  1  0  0  0
 49 64  1  0  0  0
 49121  1  0  0  0
 50 51  1  0  0  0
 50122  1  0  0  0
 50123  1  0  0  0
 51 52  1  0  0  0
 51124  1  0  0  0
 51125  1  0  0  0
 52126  1  0  0  0
 52127  1  0  0  0
 53 54  1  0  0  0
 54 55  2  0  0  0
 54128  1  0  0  0
 55 57  1  0  0  0
 55129  1  0  0  0
 56 69  2  0  0  0
 57 58  2  0  0  0
 57130  1  0  0  0
 58131  1  0  0  0
 59 60  1  0  0  0
 59 61  1  0  0  0
 59 62  1  0  0  0
 60132  1  0  0  0
 60133  1  0  0  0
 60134  1  0  0  0
 61135  1  0  0  0
 61136  1  0  0  0
 61137  1  0  0  0
 62138  1  0  0  0
 62139  1  0  0  0
 62140  1  0  0  0
 63 65  1  0  0  0
 63141  1  0  0  0
 63142  1  0  0  0
 63143  1  0  0  0
 64144  1  0  0  0
 65145  1  0  0  0
 68 80  1  0  0  0
 71 72  2  0  0  0
 71 81  1  0  0  0
 71146  1  0  0  0
 72 78  1  0  0  0
 72 82  1  0  0  0
 73 81  2  0  0  0
 73 83  1  0  0  0
 73 84  1  0  0  0
 74 76  1  0  0  0
 74 84  1  0  0  0
 74147  1  0  0  0
 74148  1  0  0  0
 75 77  1  0  0  0
 75 84  1  0  0  0
 75149  1  0  0  0
 75150  1  0  0  0
 76 85  1  0  0  0
 76151  1  0  0  0
 76152  1  0  0  0
 77 85  1  0  0  0
 77153  1  0  0  0
 77154  1  0  0  0
 78 86  1  0  0  0
 78155  1  0  0  0
 78156  1  0  0  0
 79 80  1  0  0  0
 79 86  1  0  0  0
 79157  1  0  0  0
 79158  1  0  0  0
 80159  1  0  0  0
 80160  1  0  0  0
 82 83  2  0  0  0
 86161  1  0  0  0
 86162  1  0  0  0
M  CHG  1  86   1
M  ISO  4   1 100  68 101  80 101  85 100
M  END
> <chiral flag>
0

> <version>
0

> <s_m_source_file>
/data/baiqing/PycharmProjects/Reinvent-master-3.2/result/LINK_invent/BTK/process_docking_weight1_custom_sum_contain_oxygen_bond_distance_aromatic_linkinvent_7_9_3/rearranged_h_0193.sdf

> <i_m_source_file_index>
25

> <r_mmod_Potential_Energy-OPLS-2005>
-151.560745239258

> <r_mmod_Stretch_Energy-OPLS-2005>
38.0045280456543

> <r_mmod_Bend_Energy-OPLS-2005>
104.587715148926

> <r_mmod_Torsional_Energy-OPLS-2005>
341.975219726562

> <r_mmod_Improper_Torsional_Energy-OPLS-2005>
12.2902297973633

> <r_mmod_Van_der_Waal_Energy-OPLS-2005>
185.077697753906

> <r_mmod_Electrostatic_Energy-OPLS-2005>
-356.89892578125

> <r_mmod_Solvation_Energy-OPLS-2005>
-486.592224121094

> <b_mmod_Minimization_Converged-OPLS-2005>
0

> <r_mmod_RMS_Derivative-OPLS-2005>
2.26419591903687

$$$$
25
                    3D
 Structure written by MMmdl.
169178  0  0  1  0            999 V2000
  -30.7413  -14.4252   20.6312 C   0  0  0  0  0  0
  -30.4183  -12.3042   19.4083 C   0  0  0  0  0  0
  -29.4887  -12.5223   18.2001 C   0  0  0  0  0  0
  -28.0110  -12.3732   18.6142 C   0  0  0  0  0  0
  -27.6625  -13.1976   19.8795 C   0  0  2  0  0  0
  -28.7062  -12.9579   20.9947 C   0  0  0  0  0  0
  -25.2595  -13.8145   20.5714 C   0  0  0  0  0  0
  -24.1824  -13.0435   20.9160 C   0  0  0  0  0  0
  -24.6370  -11.6898   20.8722 C   0  0  0  0  0  0
  -23.9022  -10.4293   21.0387 C   0  0  0  0  0  0
  -24.3585   -9.4216   21.9178 C   0  0  0  0  0  0
  -23.6279   -8.2249   22.0752 C   0  0  0  0  0  0
  -22.4264   -8.0281   21.3544 C   0  0  0  0  0  0
  -21.9887   -9.0242   20.4647 C   0  0  0  0  0  0
  -22.7197  -10.2127   20.3046 C   0  0  0  0  0  0
  -21.6855   -6.0732   22.5278 C   0  0  0  0  0  0
  -21.4009   -6.5637   23.8210 C   0  0  0  0  0  0
  -21.3657   -5.6792   24.9175 C   0  0  0  0  0  0
  -21.6053   -4.3052   24.7223 C   0  0  0  0  0  0
  -21.8816   -3.8143   23.4344 C   0  0  0  0  0  0
  -21.9178   -4.6960   22.3396 C   0  0  0  0  0  0
  -22.7847  -13.5240   21.1814 C   0  0  0  0  0  0
  -22.1646   -4.2149   21.0973 F   0  0  0  0  0  0
  -21.5653   -3.4539   25.7734 F   0  0  0  0  0  0
  -30.0369  -13.2720   20.4507 N   0  0  0  0  0  0
  -26.3027  -12.9302   20.3394 N   0  0  0  0  0  0
  -25.9292  -11.6464   20.5760 N   0  0  0  0  0  0
  -22.0471  -12.8258   22.0371 N   0  0  0  0  0  0
  -25.4302  -15.1882   20.4236 N   0  0  0  0  0  0
  -31.8314  -14.6191   20.0811 O   0  0  0  0  0  0
  -21.6632   -6.8877   21.4245 O   0  0  0  0  0  0
  -22.3541  -14.5544   20.6645 O   0  0  0  0  0  0
  -24.6134  -31.8701   23.2125 C   0  0  0  0  0  0
  -25.9031  -32.4832   23.8409 C   0  0  1  0  0  0
  -27.2455  -27.4583   20.0898 C   0  0  0  0  0  0
  -25.5901  -33.8633   24.2348 N   0  0  0  0  0  0
  -23.3994  -30.4922   21.5547 C   0  0  2  0  0  0
  -24.8446  -28.9560   20.1213 C   0  0  0  0  0  0
  -22.7414  -29.4682   22.5053 C   0  0  0  0  0  0
  -18.0306  -28.1364   22.8472 C   0  0  0  0  0  0
  -24.1500  -36.7309   23.2636 C   0  0  0  0  0  0
  -25.9254  -30.8400   21.3609 C   0  0  0  0  0  0
  -26.0035  -29.4764   20.7099 C   0  0  0  0  0  0
  -27.2046  -28.7356   20.6906 C   0  0  0  0  0  0
  -26.0663  -26.9488   19.4971 C   0  0  0  0  0  0
  -24.8697  -27.6872   19.5172 C   0  0  0  0  0  0
  -23.6018  -29.8139   20.1731 C   0  0  0  0  0  0
  -25.4125  -36.3130   24.0338 C   0  0  1  0  0  0
  -20.5864  -28.3709   23.1375 C   0  0  2  0  0  0
  -20.6803  -26.9474   22.5446 C   0  0  0  0  0  0
  -19.5841  -26.6522   21.5177 C   0  0  0  0  0  0
  -18.2017  -26.7926   22.1585 C   0  0  0  0  0  0
  -19.1521  -28.8849   23.2915 C   0  0  0  0  0  0
  -18.9428  -30.1447   23.8918 C   0  0  0  0  0  0
  -17.6420  -30.6554   24.0551 C   0  0  0  0  0  0
  -25.9031  -34.9484   23.5141 C   0  0  0  0  0  0
  -16.5325  -29.9025   23.6299 C   0  0  0  0  0  0
  -16.7275  -28.6453   23.0316 C   0  0  0  0  0  0
  -26.4463  -31.6605   25.0730 C   0  0  0  0  0  0
  -25.3716  -31.3714   26.1475 C   0  0  0  0  0  0
  -27.0302  -30.3056   24.6088 C   0  0  0  0  0  0
  -27.6056  -32.4306   25.7483 C   0  0  0  0  0  0
  -27.5597  -37.1809   24.8457 C   0  0  0  0  0  0
  -21.4135  -29.3123   22.3868 N   0  0  0  0  0  0
  -26.4321  -37.3799   23.9385 N   0  0  0  0  0  0
  -24.6640  -31.0813   22.1008 N   0  0  0  0  0  0
  -23.4227  -28.8147   23.3002 O   0  0  0  0  0  0
  -28.4381  -26.7650   20.0879 O   0  0  0  0  0  0
  -26.5590  -34.8924   22.4700 O   0  0  0  0  0  0
  -23.5335  -32.1454   23.7551 O   0  0  0  0  0  0
  -25.2051  -20.2875   20.4465 C   0  0  0  0  0  0
  -25.4841  -19.2905   21.3865 C   0  0  0  0  0  0
  -26.2531  -20.6761   19.5976 C   0  0  0  0  0  0
  -27.6312  -19.1822   20.6446 C   0  0  0  0  0  0
  -30.7907  -17.6252   21.9465 C   0  0  0  0  0  0
  -31.1210  -16.1800   22.3067 C   0  0  0  0  0  0
  -29.0717  -16.1561   21.1104 C   0  0  0  0  0  0
  -29.3012  -17.5790   21.6462 C   0  0  2  0  0  0
  -24.6006  -21.7657   17.9772 C   0  0  0  0  0  0
  -28.5539  -24.6254   18.8861 C   0  0  0  0  0  0
  -26.5818  -23.1025   18.7763 C   0  0  0  0  0  0
  -28.3766  -25.3439   20.2409 C   0  0  0  0  0  0
  -26.0655  -21.6820   18.4562 C   0  0  1  0  0  0
  -26.7066  -18.7354   21.4762 N   0  0  0  0  0  0
  -27.4808  -20.1283   19.7271 N   0  0  0  0  0  0
  -30.2312  -15.3350   21.4985 N   0  0  0  0  0  0
  -28.8860  -18.6298   20.7202 N   0  0  0  0  0  0
  -28.0580  -23.2212   18.8923 N   0  3  0  0  0  0
  -31.4627  -12.3963   19.1039 H   0  0  0  0  0  0
  -30.3160  -11.2863   19.7860 H   0  0  0  0  0  0
  -29.7279  -11.8155   17.4049 H   0  0  0  0  0  0
  -29.6579  -13.5158   17.7837 H   0  0  0  0  0  0
  -27.8234  -11.3147   18.7998 H   0  0  0  0  0  0
  -27.3572  -12.6629   17.7907 H   0  0  0  0  0  0
  -27.7050  -14.2451   19.5872 H   0  0  0  0  0  0
  -28.6837  -11.9140   21.3136 H   0  0  0  0  0  0
  -28.4703  -13.5314   21.8896 H   0  0  0  0  0  0
  -25.2736   -9.5724   22.4735 H   0  0  0  0  0  0
  -24.0006   -7.4654   22.7476 H   0  0  0  0  0  0
  -21.0814   -8.8758   19.8956 H   0  0  0  0  0  0
  -22.3657  -10.9663   19.6152 H   0  0  0  0  0  0
  -21.2009   -7.6149   23.9722 H   0  0  0  0  0  0
  -21.1474   -6.0516   25.9078 H   0  0  0  0  0  0
  -22.0590   -2.7606   23.2845 H   0  0  0  0  0  0
  -22.4088  -11.9937   22.4782 H   0  0  0  0  0  0
  -21.1097  -13.1308   22.2568 H   0  0  0  0  0  0
  -24.6685  -15.8393   20.5750 H   0  0  0  0  0  0
  -26.2976  -15.6455   20.1754 H   0  0  0  0  0  0
  -26.7075  -32.5547   23.1154 H   0  0  0  0  0  0
  -25.0066  -33.9786   25.0507 H   0  0  0  0  0  0
  -22.6895  -31.3100   21.4137 H   0  0  0  0  0  0
  -23.3774  -35.9632   23.3305 H   0  0  0  0  0  0
  -24.3567  -36.8910   22.2040 H   0  0  0  0  0  0
  -23.7237  -37.6511   23.6637 H   0  0  0  0  0  0
  -26.0379  -31.6084   20.5949 H   0  0  0  0  0  0
  -26.8132  -30.8945   21.9777 H   0  0  0  0  0  0
  -28.1017  -29.1330   21.1442 H   0  0  0  0  0  0
  -26.0596  -25.9888   19.0090 H   0  0  0  0  0  0
  -23.9745  -27.2775   19.0673 H   0  0  0  0  0  0
  -23.6871  -30.5813   19.4019 H   0  0  0  0  0  0
  -22.7318  -29.2148   19.8950 H   0  0  0  0  0  0
  -25.1311  -36.2011   25.0833 H   0  0  0  0  0  0
  -20.9908  -28.3296   24.1512 H   0  0  0  0  0  0
  -20.5654  -26.2296   23.3581 H   0  0  0  0  0  0
  -21.6688  -26.7551   22.1258 H   0  0  0  0  0  0
  -19.7122  -25.6500   21.1079 H   0  0  0  0  0  0
  -19.6738  -27.3481   20.6824 H   0  0  0  0  0  0
  -17.4304  -26.6676   21.3978 H   0  0  0  0  0  0
  -18.0501  -26.0007   22.8938 H   0  0  0  0  0  0
  -19.7908  -30.7254   24.2313 H   0  0  0  0  0  0
  -17.4949  -31.6257   24.5105 H   0  0  0  0  0  0
  -15.5316  -30.2921   23.7544 H   0  0  0  0  0  0
  -15.8691  -28.0786   22.6965 H   0  0  0  0  0  0
  -24.5909  -30.7033   25.7810 H   0  0  0  0  0  0
  -24.8875  -32.2878   26.4882 H   0  0  0  0  0  0
  -25.8060  -30.8921   27.0255 H   0  0  0  0  0  0
  -26.2849  -29.6820   24.1145 H   0  0  0  0  0  0
  -27.4086  -29.7295   25.4535 H   0  0  0  0  0  0
  -27.8681  -30.4369   23.9236 H   0  0  0  0  0  0
  -27.2691  -33.3614   26.2053 H   0  0  0  0  0  0
  -28.3876  -32.6823   25.0308 H   0  0  0  0  0  0
  -28.0709  -31.8418   26.5395 H   0  0  0  0  0  0
  -28.2638  -38.0092   24.7544 H   0  0  0  0  0  0
  -28.1077  -36.2629   24.6273 H   0  0  0  0  0  0
  -27.2290  -37.1453   25.8852 H   0  0  0  0  0  0
  -20.9243  -29.9045   21.7308 H   0  0  0  0  0  0
  -26.0235  -38.2902   24.1352 H   0  0  0  0  0  0
  -24.2074  -20.6989   20.3843 H   0  0  0  0  0  0
  -24.7229  -18.9211   22.0574 H   0  0  0  0  0  0
  -31.3599  -17.9099   21.0599 H   0  0  0  0  0  0
  -31.0380  -18.3274   22.7443 H   0  0  0  0  0  0
  -30.9037  -15.9900   23.3591 H   0  0  0  0  0  0
  -32.1830  -15.9748   22.1635 H   0  0  0  0  0  0
  -28.9615  -16.1625   20.0248 H   0  0  0  0  0  0
  -28.1521  -15.7504   21.5315 H   0  0  0  0  0  0
  -28.7672  -17.6877   22.5934 H   0  0  0  0  0  0
  -24.2074  -20.7837   17.7195 H   0  0  0  0  0  0
  -24.5154  -22.3912   17.0877 H   0  0  0  0  0  0
  -23.9506  -22.2013   18.7369 H   0  0  0  0  0  0
  -29.6118  -24.6272   18.6200 H   0  0  0  0  0  0
  -28.0549  -25.1800   18.0914 H   0  0  0  0  0  0
  -26.0968  -23.4654   19.6821 H   0  0  0  0  0  0
  -26.2638  -23.7633   17.9684 H   0  0  0  0  0  0
  -29.1794  -25.0400   20.9144 H   0  0  0  0  0  0
  -27.4535  -25.0495   20.7411 H   0  0  0  0  0  0
  -26.6397  -21.3009   17.6100 H   0  0  0  0  0  0
  -29.5637  -18.9988   20.0668 H   0  0  0  0  0  0
  -28.3839  -22.7265   19.7093 H   0  0  0  0  0  0
  -28.4676  -22.7538   18.0980 H   0  0  0  0  0  0
  1 25  1  0  0  0
  1 30  2  0  0  0
  1 86  1  0  0  0
  2  3  1  0  0  0
  2 25  1  0  0  0
  2 89  1  0  0  0
  2 90  1  0  0  0
  3  4  1  0  0  0
  3 91  1  0  0  0
  3 92  1  0  0  0
  4  5  1  0  0  0
  4 93  1  0  0  0
  4 94  1  0  0  0
  5  6  1  0  0  0
  5 26  1  0  0  0
  5 95  1  0  0  0
  6 25  1  0  0  0
  6 96  1  0  0  0
  6 97  1  0  0  0
  7  8  2  0  0  0
  7 26  1  0  0  0
  7 29  1  0  0  0
  8  9  1  0  0  0
  8 22  1  0  0  0
  9 10  1  0  0  0
  9 27  2  0  0  0
 10 11  2  0  0  0
 10 15  1  0  0  0
 11 12  1  0  0  0
 11 98  1  0  0  0
 12 13  2  0  0  0
 12 99  1  0  0  0
 13 14  1  0  0  0
 13 31  1  0  0  0
 14 15  2  0  0  0
 14100  1  0  0  0
 15101  1  0  0  0
 16 17  2  0  0  0
 16 21  1  0  0  0
 16 31  1  0  0  0
 17 18  1  0  0  0
 17102  1  0  0  0
 18 19  2  0  0  0
 18103  1  0  0  0
 19 20  1  0  0  0
 19 24  1  0  0  0
 20 21  2  0  0  0
 20104  1  0  0  0
 21 23  1  0  0  0
 22 28  1  0  0  0
 22 32  2  0  0  0
 26 27  1  0  0  0
 28105  1  0  0  0
 28106  1  0  0  0
 29107  1  0  0  0
 29108  1  0  0  0
 33 34  1  0  0  0
 33 66  1  0  0  0
 33 70  2  0  0  0
 34 36  1  0  0  0
 34 59  1  0  0  0
 34109  1  0  0  0
 35 44  2  0  0  0
 35 45  1  0  0  0
 35 68  1  0  0  0
 36 56  1  0  0  0
 36110  1  0  0  0
 37 39  1  0  0  0
 37 47  1  0  0  0
 37 66  1  0  0  0
 37111  1  0  0  0
 38 43  2  0  0  0
 38 46  1  0  0  0
 38 47  1  0  0  0
 39 64  1  0  0  0
 39 67  2  0  0  0
 40 52  1  0  0  0
 40 53  2  0  0  0
 40 58  1  0  0  0
 41112  1  0  0  0
 41113  1  0  0  0
 41114  1  0  0  0
 41 48  1  0  0  0
 42 43  1  0  0  0
 42 66  1  0  0  0
 42115  1  0  0  0
 42116  1  0  0  0
 43 44  1  0  0  0
 44117  1  0  0  0
 45 46  2  0  0  0
 45118  1  0  0  0
 46119  1  0  0  0
 47120  1  0  0  0
 47121  1  0  0  0
 48 56  1  0  0  0
 48 65  1  0  0  0
 48122  1  0  0  0
 49 50  1  0  0  0
 49 53  1  0  0  0
 49 64  1  0  0  0
 49123  1  0  0  0
 50 51  1  0  0  0
 50124  1  0  0  0
 50125  1  0  0  0
 51 52  1  0  0  0
 51126  1  0  0  0
 51127  1  0  0  0
 52128  1  0  0  0
 52129  1  0  0  0
 53 54  1  0  0  0
 54 55  2  0  0  0
 54130  1  0  0  0
 55 57  1  0  0  0
 55131  1  0  0  0
 56 69  2  0  0  0
 57 58  2  0  0  0
 57132  1  0  0  0
 58133  1  0  0  0
 59 60  1  0  0  0
 59 61  1  0  0  0
 59 62  1  0  0  0
 60134  1  0  0  0
 60135  1  0  0  0
 60136  1  0  0  0
 61137  1  0  0  0
 61138  1  0  0  0
 61139  1  0  0  0
 62140  1  0  0  0
 62141  1  0  0  0
 62142  1  0  0  0
 63 65  1  0  0  0
 63143  1  0  0  0
 63144  1  0  0  0
 63145  1  0  0  0
 64146  1  0  0  0
 65147  1  0  0  0
 68 82  1  0  0  0
 71 72  2  0  0  0
 71 73  1  0  0  0
 71148  1  0  0  0
 72 84  1  0  0  0
 72149  1  0  0  0
 73 83  1  0  0  0
 73 85  2  0  0  0
 74 84  2  0  0  0
 74 85  1  0  0  0
 74 87  1  0  0  0
 75 76  1  0  0  0
 75 78  1  0  0  0
 75150  1  0  0  0
 75151  1  0  0  0
 76 86  1  0  0  0
 76152  1  0  0  0
 76153  1  0  0  0
 77 78  1  0  0  0
 77 86  1  0  0  0
 77154  1  0  0  0
 77155  1  0  0  0
 78 87  1  0  0  0
 78156  1  0  0  0
 79157  1  0  0  0
 79158  1  0  0  0
 79159  1  0  0  0
 79 83  1  0  0  0
 80 82  1  0  0  0
 80 88  1  0  0  0
 80160  1  0  0  0
 80161  1  0  0  0
 81 83  1  0  0  0
 81 88  1  0  0  0
 81162  1  0  0  0
 81163  1  0  0  0
 82164  1  0  0  0
 82165  1  0  0  0
 83166  1  0  0  0
 87167  1  0  0  0
 88168  1  0  0  0
 88169  1  0  0  0
M  CHG  1  88   1
M  ISO  4   1 100  68 101  82 101  86 100
M  END
> <chiral flag>
0

> <version>
0

> <s_m_source_file>
/data/baiqing/PycharmProjects/Reinvent-master-3.2/result/LINK_invent/BTK/process_docking_weight1_custom_sum_contain_oxygen_bond_distance_aromatic_linkinvent_7_9_3/rearranged_h_0193.sdf

> <i_m_source_file_index>
26

> <r_mmod_Potential_Energy-OPLS-2005>
-583.279907226562

> <r_mmod_Stretch_Energy-OPLS-2005>
35.2105102539062

> <r_mmod_Bend_Energy-OPLS-2005>
131.428436279297

> <r_mmod_Torsional_Energy-OPLS-2005>
321.061706542969

> <r_mmod_Improper_Torsional_Energy-OPLS-2005>
5.64720869064331

> <r_mmod_Van_der_Waal_Energy-OPLS-2005>
162.08349609375

> <r_mmod_Electrostatic_Energy-OPLS-2005>
-783.806518554688

> <r_mmod_Solvation_Energy-OPLS-2005>
-463.984619140625

> <b_mmod_Minimization_Converged-OPLS-2005>
0

> <r_mmod_RMS_Derivative-OPLS-2005>
2.9555869102478

$$$$
26
                    3D
 Structure written by MMmdl.
157166  0  0  1  0            999 V2000
  -30.7464  -14.3923   20.6590 C   0  0  0  0  0  0
  -30.4212  -12.2938   19.4015 C   0  0  0  0  0  0
  -29.4874  -12.5173   18.1965 C   0  0  0  0  0  0
  -28.0113  -12.3744   18.6117 C   0  0  0  0  0  0
  -27.6658  -13.2013   19.8782 C   0  0  2  0  0  0
  -28.7040  -12.9477   20.9939 C   0  0  0  0  0  0
  -25.2603  -13.8158   20.5666 C   0  0  0  0  0  0
  -24.1844  -13.0445   20.9149 C   0  0  0  0  0  0
  -24.6388  -11.6909   20.8717 C   0  0  0  0  0  0
  -23.9055  -10.4298   21.0395 C   0  0  0  0  0  0
  -24.3609   -9.4216   21.9176 C   0  0  0  0  0  0
  -23.6281   -8.2252   22.0755 C   0  0  0  0  0  0
  -22.4267   -8.0287   21.3540 C   0  0  0  0  0  0
  -21.9895   -9.0267   20.4649 C   0  0  0  0  0  0
  -22.7225  -10.2147   20.3053 C   0  0  0  0  0  0
  -21.6853   -6.0737   22.5275 C   0  0  0  0  0  0
  -21.4017   -6.5640   23.8210 C   0  0  0  0  0  0
  -21.3654   -5.6786   24.9167 C   0  0  0  0  0  0
  -21.6045   -4.3049   24.7213 C   0  0  0  0  0  0
  -21.8820   -3.8142   23.4340 C   0  0  0  0  0  0
  -21.9196   -4.6961   22.3392 C   0  0  0  0  0  0
  -22.7871  -13.5256   21.1817 C   0  0  0  0  0  0
  -22.1663   -4.2152   21.0972 F   0  0  0  0  0  0
  -21.5620   -3.4540   25.7730 F   0  0  0  0  0  0
  -30.0449  -13.2463   20.4559 N   0  0  0  0  0  0
  -26.3037  -12.9315   20.3361 N   0  0  0  0  0  0
  -25.9313  -11.6479   20.5756 N   0  0  0  0  0  0
  -22.0506  -12.8267   22.0385 N   0  0  0  0  0  0
  -25.4346  -15.1879   20.4104 N   0  0  0  0  0  0
  -31.7978  -14.6590   20.0690 O   0  0  0  0  0  0
  -21.6638   -6.8881   21.4236 O   0  0  0  0  0  0
  -22.3572  -14.5568   20.6667 O   0  0  0  0  0  0
  -24.6112  -31.8696   23.2122 C   0  0  0  0  0  0
  -25.9019  -32.4828   23.8408 C   0  0  1  0  0  0
  -27.2376  -27.4557   20.0992 C   0  0  0  0  0  0
  -25.5893  -33.8628   24.2342 N   0  0  0  0  0  0
  -23.3990  -30.4912   21.5522 C   0  0  2  0  0  0
  -24.8466  -28.9559   20.1200 C   0  0  0  0  0  0
  -22.7396  -29.4654   22.5014 C   0  0  0  0  0  0
  -18.0270  -28.1366   22.8488 C   0  0  0  0  0  0
  -24.1486  -36.7319   23.2630 C   0  0  0  0  0  0
  -25.9247  -30.8399   21.3633 C   0  0  0  0  0  0
  -26.0033  -29.4732   20.7175 C   0  0  0  0  0  0
  -27.2026  -28.7283   20.7094 C   0  0  0  0  0  0
  -26.0683  -26.9490   19.4913 C   0  0  0  0  0  0
  -24.8715  -27.6901   19.5081 C   0  0  0  0  0  0
  -23.6074  -29.8212   20.1674 C   0  0  0  0  0  0
  -25.4098  -36.3113   24.0340 C   0  0  1  0  0  0
  -20.5859  -28.3643   23.1332 C   0  0  2  0  0  0
  -20.6759  -26.9382   22.5424 C   0  0  0  0  0  0
  -19.5743  -26.6376   21.5211 C   0  0  0  0  0  0
  -18.1919  -26.7915   22.1613 C   0  0  0  0  0  0
  -19.1518  -28.8823   23.2910 C   0  0  0  0  0  0
  -18.9449  -30.1428   23.8916 C   0  0  0  0  0  0
  -17.6452  -30.6569   24.0567 C   0  0  0  0  0  0
  -25.9032  -34.9476   23.5140 C   0  0  0  0  0  0
  -16.5344  -29.9074   23.6319 C   0  0  0  0  0  0
  -16.7259  -28.6492   23.0342 C   0  0  0  0  0  0
  -26.4460  -31.6596   25.0722 C   0  0  0  0  0  0
  -25.3745  -31.3724   26.1494 C   0  0  0  0  0  0
  -27.0254  -30.3028   24.6073 C   0  0  0  0  0  0
  -27.6058  -32.4300   25.7457 C   0  0  0  0  0  0
  -27.5595  -37.1786   24.8443 C   0  0  0  0  0  0
  -21.4128  -29.3016   22.3747 N   0  0  0  0  0  0
  -26.4279  -37.3803   23.9432 N   0  0  0  0  0  0
  -24.6627  -31.0812   22.1015 N   0  0  0  0  0  0
  -23.4180  -28.8201   23.3054 O   0  0  0  0  0  0
  -28.4186  -26.7472   20.0364 O   0  0  0  0  0  0
  -26.5596  -34.8926   22.4705 O   0  0  0  0  0  0
  -23.5310  -32.1443   23.7532 O   0  0  0  0  0  0
  -27.9026  -24.1193   22.3377 C   0  0  0  0  0  0
  -28.8425  -23.1851   21.8273 C   0  0  0  0  0  0
  -28.5015  -25.5518   20.6713 C   0  0  0  0  0  0
  -29.3023  -19.5030   22.4118 C   0  0  0  0  0  0
  -30.2630  -17.7079   21.0238 C   0  0  0  0  0  0
  -30.0429  -17.2299   23.0571 C   0  0  0  0  0  0
  -30.7664  -16.5454   21.8934 C   0  0  0  0  0  0
  -27.0464  -23.8486   23.5606 C   0  0  0  0  0  0
  -29.6150  -20.8151   21.6781 C   0  0  0  0  0  0
  -27.7363  -25.3232   21.7482 N   0  0  0  0  0  0
  -29.5854  -23.5122   20.7390 N   0  0  0  0  0  0
  -29.4184  -24.7118   20.1590 N   0  0  0  0  0  0
  -30.2104  -18.4552   22.2772 N   0  0  0  0  0  0
  -29.0515  -21.9389   22.4288 N   0  0  0  0  0  0
  -30.2087  -15.2411   21.5415 N   0  0  0  0  0  0
  -28.3347  -19.4334   23.1749 O   0  0  0  0  0  0
  -31.4638  -12.3989   19.0956 H   0  0  0  0  0  0
  -30.3269  -11.2743   19.7763 H   0  0  0  0  0  0
  -29.7210  -11.8087   17.4005 H   0  0  0  0  0  0
  -29.6567  -13.5107   17.7789 H   0  0  0  0  0  0
  -27.8182  -11.3173   18.7962 H   0  0  0  0  0  0
  -27.3599  -12.6618   17.7855 H   0  0  0  0  0  0
  -27.7217  -14.2539   19.5999 H   0  0  0  0  0  0
  -28.6699  -11.9043   21.3093 H   0  0  0  0  0  0
  -28.4490  -13.5204   21.8854 H   0  0  0  0  0  0
  -25.2759   -9.5694   22.4744 H   0  0  0  0  0  0
  -23.9990   -7.4649   22.7481 H   0  0  0  0  0  0
  -21.0820   -8.8802   19.8960 H   0  0  0  0  0  0
  -22.3688  -10.9691   19.6168 H   0  0  0  0  0  0
  -21.2020   -7.6152   23.9717 H   0  0  0  0  0  0
  -21.1468   -6.0514   25.9071 H   0  0  0  0  0  0
  -22.0603   -2.7601   23.2841 H   0  0  0  0  0  0
  -22.4088  -11.9916   22.4768 H   0  0  0  0  0  0
  -21.1138  -13.1330   22.2594 H   0  0  0  0  0  0
  -24.6742  -15.8483   20.5308 H   0  0  0  0  0  0
  -26.2923  -15.6261   20.0975 H   0  0  0  0  0  0
  -26.7100  -32.5556   23.1186 H   0  0  0  0  0  0
  -25.0039  -33.9790   25.0485 H   0  0  0  0  0  0
  -22.6860  -31.3064   21.4129 H   0  0  0  0  0  0
  -23.3744  -35.9653   23.3268 H   0  0  0  0  0  0
  -24.3599  -36.8959   22.2052 H   0  0  0  0  0  0
  -23.7232  -37.6516   23.6655 H   0  0  0  0  0  0
  -26.0327  -31.6035   20.5913 H   0  0  0  0  0  0
  -26.8144  -30.8977   21.9789 H   0  0  0  0  0  0
  -28.0993  -29.1279   21.1624 H   0  0  0  0  0  0
  -26.0842  -25.9844   19.0036 H   0  0  0  0  0  0
  -23.9823  -27.2873   19.0424 H   0  0  0  0  0  0
  -23.7143  -30.5954   19.4067 H   0  0  0  0  0  0
  -22.7318  -29.2399   19.8721 H   0  0  0  0  0  0
  -25.1262  -36.1975   25.0828 H   0  0  0  0  0  0
  -20.9940  -28.3200   24.1456 H   0  0  0  0  0  0
  -20.5636  -26.2251   23.3604 H   0  0  0  0  0  0
  -21.6635  -26.7407   22.1238 H   0  0  0  0  0  0
  -19.6902  -25.6292   21.1224 H   0  0  0  0  0  0
  -19.6689  -27.3199   20.6757 H   0  0  0  0  0  0
  -17.4191  -26.6664   21.4014 H   0  0  0  0  0  0
  -18.0314  -26.0052   22.8997 H   0  0  0  0  0  0
  -19.7926  -30.7236   24.2297 H   0  0  0  0  0  0
  -17.5006  -31.6251   24.5165 H   0  0  0  0  0  0
  -15.5345  -30.2983   23.7626 H   0  0  0  0  0  0
  -15.8662  -28.0817   22.7044 H   0  0  0  0  0  0
  -24.5907  -30.7063   25.7872 H   0  0  0  0  0  0
  -24.8953  -32.2890   26.4947 H   0  0  0  0  0  0
  -25.8115  -30.8907   27.0249 H   0  0  0  0  0  0
  -26.2771  -29.6815   24.1133 H   0  0  0  0  0  0
  -27.4036  -29.7241   25.4511 H   0  0  0  0  0  0
  -27.8618  -30.4344   23.9202 H   0  0  0  0  0  0
  -27.2693  -33.3579   26.2098 H   0  0  0  0  0  0
  -28.3822  -32.6889   25.0243 H   0  0  0  0  0  0
  -28.0777  -31.8390   26.5318 H   0  0  0  0  0  0
  -28.2558  -38.0138   24.7580 H   0  0  0  0  0  0
  -28.1149  -36.2685   24.6125 H   0  0  0  0  0  0
  -27.2344  -37.1266   25.8850 H   0  0  0  0  0  0
  -20.9282  -29.8750   21.6981 H   0  0  0  0  0  0
  -26.0167  -38.2867   24.1501 H   0  0  0  0  0  0
  -29.2837  -17.5394   20.5678 H   0  0  0  0  0  0
  -30.9926  -18.0886   20.3067 H   0  0  0  0  0  0
  -30.5917  -17.2220   23.9997 H   0  0  0  0  0  0
  -29.0025  -16.9189   23.1819 H   0  0  0  0  0  0
  -31.8529  -16.5510   22.0187 H   0  0  0  0  0  0
  -26.7987  -22.7914   23.6496 H   0  0  0  0  0  0
  -26.1087  -24.4020   23.5091 H   0  0  0  0  0  0
  -27.5757  -24.1562   24.4621 H   0  0  0  0  0  0
  -29.1882  -20.7619   20.6752 H   0  0  0  0  0  0
  -30.6946  -20.9364   21.5755 H   0  0  0  0  0  0
  -28.4308  -21.6566   23.1827 H   0  0  0  0  0  0
  -29.3527  -14.9530   21.9916 H   0  0  0  0  0  0
  1 25  1  0  0  0
  1 30  2  0  0  0
  1 85  1  0  0  0
  2  3  1  0  0  0
  2 25  1  0  0  0
  2 87  1  0  0  0
  2 88  1  0  0  0
  3  4  1  0  0  0
  3 89  1  0  0  0
  3 90  1  0  0  0
  4  5  1  0  0  0
  4 91  1  0  0  0
  4 92  1  0  0  0
  5  6  1  0  0  0
  5 26  1  0  0  0
  5 93  1  0  0  0
  6 25  1  0  0  0
  6 94  1  0  0  0
  6 95  1  0  0  0
  7  8  2  0  0  0
  7 26  1  0  0  0
  7 29  1  0  0  0
  8  9  1  0  0  0
  8 22  1  0  0  0
  9 10  1  0  0  0
  9 27  2  0  0  0
 10 11  2  0  0  0
 10 15  1  0  0  0
 11 12  1  0  0  0
 11 96  1  0  0  0
 12 13  2  0  0  0
 12 97  1  0  0  0
 13 14  1  0  0  0
 13 31  1  0  0  0
 14 15  2  0  0  0
 14 98  1  0  0  0
 15 99  1  0  0  0
 16 17  2  0  0  0
 16 21  1  0  0  0
 16 31  1  0  0  0
 17 18  1  0  0  0
 17100  1  0  0  0
 18 19  2  0  0  0
 18101  1  0  0  0
 19 20  1  0  0  0
 19 24  1  0  0  0
 20 21  2  0  0  0
 20102  1  0  0  0
 21 23  1  0  0  0
 22 28  1  0  0  0
 22 32  2  0  0  0
 26 27  1  0  0  0
 28103  1  0  0  0
 28104  1  0  0  0
 29105  1  0  0  0
 29106  1  0  0  0
 33 34  1  0  0  0
 33 66  1  0  0  0
 33 70  2  0  0  0
 34 36  1  0  0  0
 34 59  1  0  0  0
 34107  1  0  0  0
 35 44  2  0  0  0
 35 45  1  0  0  0
 35 68  1  0  0  0
 36 56  1  0  0  0
 36108  1  0  0  0
 37 39  1  0  0  0
 37 47  1  0  0  0
 37 66  1  0  0  0
 37109  1  0  0  0
 38 43  2  0  0  0
 38 46  1  0  0  0
 38 47  1  0  0  0
 39 64  1  0  0  0
 39 67  2  0  0  0
 40 52  1  0  0  0
 40 53  2  0  0  0
 40 58  1  0  0  0
 41110  1  0  0  0
 41111  1  0  0  0
 41112  1  0  0  0
 41 48  1  0  0  0
 42 43  1  0  0  0
 42 66  1  0  0  0
 42113  1  0  0  0
 42114  1  0  0  0
 43 44  1  0  0  0
 44115  1  0  0  0
 45 46  2  0  0  0
 45116  1  0  0  0
 46117  1  0  0  0
 47118  1  0  0  0
 47119  1  0  0  0
 48 56  1  0  0  0
 48 65  1  0  0  0
 48120  1  0  0  0
 49 50  1  0  0  0
 49 53  1  0  0  0
 49 64  1  0  0  0
 49121  1  0  0  0
 50 51  1  0  0  0
 50122  1  0  0  0
 50123  1  0  0  0
 51 52  1  0  0  0
 51124  1  0  0  0
 51125  1  0  0  0
 52126  1  0  0  0
 52127  1  0  0  0
 53 54  1  0  0  0
 54 55  2  0  0  0
 54128  1  0  0  0
 55 57  1  0  0  0
 55129  1  0  0  0
 56 69  2  0  0  0
 57 58  2  0  0  0
 57130  1  0  0  0
 58131  1  0  0  0
 59 60  1  0  0  0
 59 61  1  0  0  0
 59 62  1  0  0  0
 60132  1  0  0  0
 60133  1  0  0  0
 60134  1  0  0  0
 61135  1  0  0  0
 61136  1  0  0  0
 61137  1  0  0  0
 62138  1  0  0  0
 62139  1  0  0  0
 62140  1  0  0  0
 63 65  1  0  0  0
 63141  1  0  0  0
 63142  1  0  0  0
 63143  1  0  0  0
 64144  1  0  0  0
 65145  1  0  0  0
 68 73  1  0  0  0
 71 72  2  0  0  0
 71 78  1  0  0  0
 71 80  1  0  0  0
 72 81  1  0  0  0
 72 84  1  0  0  0
 73 80  2  0  0  0
 73 82  1  0  0  0
 74 79  1  0  0  0
 74 83  1  0  0  0
 74 86  2  0  0  0
 75 77  1  0  0  0
 75 83  1  0  0  0
 75146  1  0  0  0
 75147  1  0  0  0
 76 77  1  0  0  0
 76 83  1  0  0  0
 76148  1  0  0  0
 76149  1  0  0  0
 77 85  1  0  0  0
 77150  1  0  0  0
 78151  1  0  0  0
 78152  1  0  0  0
 78153  1  0  0  0
 79 84  1  0  0  0
 79154  1  0  0  0
 79155  1  0  0  0
 81 82  2  0  0  0
 84156  1  0  0  0
 85157  1  0  0  0
M  ISO  4   1 100  68 101  73 101  85 100
M  END
> <chiral flag>
0

> <version>
0

> <s_m_source_file>
/data/baiqing/PycharmProjects/Reinvent-master-3.2/result/LINK_invent/BTK/process_docking_weight1_custom_sum_contain_oxygen_bond_distance_aromatic_linkinvent_7_9_3/rearranged_h_0193.sdf

> <i_m_source_file_index>
27

> <r_mmod_Potential_Energy-OPLS-2005>
-164.845687866211

> <r_mmod_Stretch_Energy-OPLS-2005>
36.0313987731934

> <r_mmod_Bend_Energy-OPLS-2005>
125.74683380127

> <r_mmod_Torsional_Energy-OPLS-2005>
225.35237121582

> <r_mmod_Improper_Torsional_Energy-OPLS-2005>
12.1491279602051

> <r_mmod_Van_der_Waal_Energy-OPLS-2005>
174.035171508789

> <r_mmod_Electrostatic_Energy-OPLS-2005>
-486.435760498047

> <r_mmod_Solvation_Energy-OPLS-2005>
-258.659271240234

> <b_mmod_Minimization_Converged-OPLS-2005>
0

> <r_mmod_RMS_Derivative-OPLS-2005>
1.35556149482727

$$$$
27
                    3D
 Structure written by MMmdl.
170180  0  0  1  0            999 V2000
  -30.7553  -14.3768   20.6890 C   0  0  0  0  0  0
  -30.4208  -12.2930   19.4016 C   0  0  0  0  0  0
  -29.4881  -12.5278   18.1973 C   0  0  0  0  0  0
  -28.0111  -12.3833   18.6097 C   0  0  0  0  0  0
  -27.6679  -13.2009   19.8818 C   0  0  2  0  0  0
  -28.7030  -12.9363   20.9968 C   0  0  0  0  0  0
  -25.2614  -13.8157   20.5674 C   0  0  0  0  0  0
  -24.1852  -13.0444   20.9165 C   0  0  0  0  0  0
  -24.6389  -11.6905   20.8719 C   0  0  0  0  0  0
  -23.9054  -10.4296   21.0398 C   0  0  0  0  0  0
  -24.3611   -9.4216   21.9182 C   0  0  0  0  0  0
  -23.6291   -8.2249   22.0751 C   0  0  0  0  0  0
  -22.4278   -8.0278   21.3538 C   0  0  0  0  0  0
  -21.9910   -9.0247   20.4640 C   0  0  0  0  0  0
  -22.7226  -10.2134   20.3052 C   0  0  0  0  0  0
  -21.6853   -6.0739   22.5278 C   0  0  0  0  0  0
  -21.4013   -6.5639   23.8212 C   0  0  0  0  0  0
  -21.3659   -5.6789   24.9173 C   0  0  0  0  0  0
  -21.6047   -4.3053   24.7225 C   0  0  0  0  0  0
  -21.8819   -3.8147   23.4343 C   0  0  0  0  0  0
  -21.9192   -4.6966   22.3402 C   0  0  0  0  0  0
  -22.7875  -13.5245   21.1839 C   0  0  0  0  0  0
  -22.1664   -4.2156   21.0979 F   0  0  0  0  0  0
  -21.5628   -3.4534   25.7739 F   0  0  0  0  0  0
  -30.0486  -13.2345   20.4685 N   0  0  0  0  0  0
  -26.3050  -12.9318   20.3378 N   0  0  0  0  0  0
  -25.9313  -11.6479   20.5746 N   0  0  0  0  0  0
  -22.0509  -12.8232   22.0384 N   0  0  0  0  0  0
  -25.4358  -15.1870   20.4103 N   0  0  0  0  0  0
  -31.7649  -14.6805   20.0411 O   0  0  0  0  0  0
  -21.6633   -6.8880   21.4240 O   0  0  0  0  0  0
  -22.3569  -14.5556   20.6693 O   0  0  0  0  0  0
  -24.6109  -31.8699   23.2127 C   0  0  0  0  0  0
  -25.9016  -32.4830   23.8418 C   0  0  1  0  0  0
  -27.2416  -27.4753   20.0873 C   0  0  0  0  0  0
  -25.5897  -33.8632   24.2350 N   0  0  0  0  0  0
  -23.3980  -30.4920   21.5517 C   0  0  2  0  0  0
  -24.8473  -28.9581   20.1192 C   0  0  0  0  0  0
  -22.7387  -29.4667   22.5012 C   0  0  0  0  0  0
  -18.0264  -28.1381   22.8500 C   0  0  0  0  0  0
  -24.1485  -36.7314   23.2637 C   0  0  0  0  0  0
  -25.9220  -30.8461   21.3606 C   0  0  0  0  0  0
  -26.0030  -29.4812   20.7136 C   0  0  0  0  0  0
  -27.2055  -28.7444   20.7004 C   0  0  0  0  0  0
  -26.0760  -26.9528   19.4936 C   0  0  0  0  0  0
  -24.8751  -27.6890   19.5113 C   0  0  0  0  0  0
  -23.6057  -29.8197   20.1677 C   0  0  0  0  0  0
  -25.4107  -36.3117   24.0338 C   0  0  1  0  0  0
  -20.5851  -28.3662   23.1330 C   0  0  2  0  0  0
  -20.6758  -26.9403   22.5425 C   0  0  0  0  0  0
  -19.5737  -26.6388   21.5219 C   0  0  0  0  0  0
  -18.1908  -26.7935   22.1619 C   0  0  0  0  0  0
  -19.1513  -28.8838   23.2911 C   0  0  0  0  0  0
  -18.9446  -30.1449   23.8918 C   0  0  0  0  0  0
  -17.6449  -30.6590   24.0573 C   0  0  0  0  0  0
  -25.9034  -34.9481   23.5139 C   0  0  0  0  0  0
  -16.5341  -29.9095   23.6333 C   0  0  0  0  0  0
  -16.7257  -28.6511   23.0358 C   0  0  0  0  0  0
  -26.4463  -31.6597   25.0730 C   0  0  0  0  0  0
  -25.3753  -31.3687   26.1495 C   0  0  0  0  0  0
  -27.0284  -30.3046   24.6075 C   0  0  0  0  0  0
  -27.6059  -32.4310   25.7472 C   0  0  0  0  0  0
  -27.5589  -37.1798   24.8458 C   0  0  0  0  0  0
  -21.4120  -29.3032   22.3743 N   0  0  0  0  0  0
  -26.4291  -37.3803   23.9423 N   0  0  0  0  0  0
  -24.6615  -31.0828   22.1008 N   0  0  0  0  0  0
  -23.4171  -28.8213   23.3049 O   0  0  0  0  0  0
  -28.4003  -26.7464   20.0519 O   0  0  0  0  0  0
  -26.5590  -34.8921   22.4696 O   0  0  0  0  0  0
  -23.5310  -32.1436   23.7544 O   0  0  0  0  0  0
  -28.7881  -23.4234   21.8225 C   0  0  0  0  0  0
  -28.9044  -24.4719   20.8762 C   0  0  0  0  0  0
  -29.2058  -22.1546   21.3723 C   0  0  0  0  0  0
  -29.6865  -23.0000   19.3085 C   0  0  0  0  0  0
  -27.2734  -22.8053   23.9180 C   0  0  0  0  0  0
  -26.9243  -24.2159   23.5299 C   0  0  0  0  0  0
  -30.2878  -16.3535   23.7264 C   0  0  0  0  0  0
  -30.5851  -15.0241   23.0328 C   0  0  0  0  0  0
  -30.0171  -16.6380   21.3622 C   0  0  0  0  0  0
  -28.3114  -23.6767   23.2362 C   0  0  0  0  0  0
  -30.4457  -17.3977   22.6265 C   0  0  1  0  0  0
  -30.1865  -22.7514   17.9029 C   0  0  0  0  0  0
  -28.6054  -25.9345   21.2118 C   0  0  0  0  0  0
  -29.6729  -18.7030   22.9104 C   0  0  0  0  0  0
  -29.8912  -19.8065   21.8604 C   0  0  0  0  0  0
  -29.3491  -24.2400   19.6228 N   0  0  0  0  0  0
  -29.6434  -21.9557   20.1214 N   0  0  0  0  0  0
  -30.2424  -15.2092   21.6210 N   0  0  0  0  0  0
  -29.1894  -21.0383   22.2172 N   0  0  0  0  0  0
  -31.4645  -12.3993   19.0988 H   0  0  0  0  0  0
  -30.3233  -11.2689   19.7654 H   0  0  0  0  0  0
  -29.7222  -11.8236   17.3977 H   0  0  0  0  0  0
  -29.6589  -13.5247   17.7878 H   0  0  0  0  0  0
  -27.8137  -11.3249   18.7839 H   0  0  0  0  0  0
  -27.3608  -12.6807   17.7864 H   0  0  0  0  0  0
  -27.7287  -14.2562   19.6147 H   0  0  0  0  0  0
  -28.6634  -11.8912   21.3082 H   0  0  0  0  0  0
  -28.4420  -13.5102   21.8857 H   0  0  0  0  0  0
  -25.2758   -9.5696   22.4752 H   0  0  0  0  0  0
  -24.0005   -7.4645   22.7471 H   0  0  0  0  0  0
  -21.0844   -8.8759   19.8943 H   0  0  0  0  0  0
  -22.3681  -10.9672   19.6158 H   0  0  0  0  0  0
  -21.2001   -7.6143   23.9720 H   0  0  0  0  0  0
  -21.1481   -6.0516   25.9079 H   0  0  0  0  0  0
  -22.0597   -2.7612   23.2839 H   0  0  0  0  0  0
  -22.4126  -11.9898   22.4775 H   0  0  0  0  0  0
  -21.1122  -13.1251   22.2575 H   0  0  0  0  0  0
  -24.6761  -15.8484   20.5301 H   0  0  0  0  0  0
  -26.2989  -15.6246   20.1119 H   0  0  0  0  0  0
  -26.7101  -32.5561   23.1205 H   0  0  0  0  0  0
  -25.0097  -33.9811   25.0527 H   0  0  0  0  0  0
  -22.6853  -31.3074   21.4112 H   0  0  0  0  0  0
  -23.3760  -35.9631   23.3276 H   0  0  0  0  0  0
  -24.3588  -36.8959   22.2058 H   0  0  0  0  0  0
  -23.7214  -37.6501   23.6669 H   0  0  0  0  0  0
  -26.0269  -31.6110   20.5899 H   0  0  0  0  0  0
  -26.8123  -30.9046   21.9746 H   0  0  0  0  0  0
  -28.1017  -29.1478   21.1515 H   0  0  0  0  0  0
  -26.1013  -25.9815   19.0193 H   0  0  0  0  0  0
  -23.9854  -27.2780   19.0544 H   0  0  0  0  0  0
  -23.7082  -30.5916   19.4043 H   0  0  0  0  0  0
  -22.7319  -29.2340   19.8765 H   0  0  0  0  0  0
  -25.1277  -36.1988   25.0829 H   0  0  0  0  0  0
  -20.9940  -28.3231   24.1449 H   0  0  0  0  0  0
  -20.5669  -26.2274   23.3609 H   0  0  0  0  0  0
  -21.6629  -26.7445   22.1220 H   0  0  0  0  0  0
  -19.6895  -25.6301   21.1245 H   0  0  0  0  0  0
  -19.6681  -27.3206   20.6756 H   0  0  0  0  0  0
  -17.4186  -26.6716   21.4006 H   0  0  0  0  0  0
  -18.0277  -26.0060   22.8993 H   0  0  0  0  0  0
  -19.7919  -30.7270   24.2294 H   0  0  0  0  0  0
  -17.5001  -31.6271   24.5172 H   0  0  0  0  0  0
  -15.5347  -30.3009   23.7637 H   0  0  0  0  0  0
  -15.8655  -28.0841   22.7062 H   0  0  0  0  0  0
  -24.5923  -30.7033   25.7839 H   0  0  0  0  0  0
  -24.8946  -32.2832   26.4980 H   0  0  0  0  0  0
  -25.8131  -30.8839   27.0232 H   0  0  0  0  0  0
  -26.2801  -29.6805   24.1174 H   0  0  0  0  0  0
  -27.4112  -29.7287   25.4512 H   0  0  0  0  0  0
  -27.8614  -30.4375   23.9168 H   0  0  0  0  0  0
  -27.2712  -33.3627   26.2049 H   0  0  0  0  0  0
  -28.3862  -32.6842   25.0280 H   0  0  0  0  0  0
  -28.0731  -31.8428   26.5384 H   0  0  0  0  0  0
  -28.2579  -38.0123   24.7565 H   0  0  0  0  0  0
  -28.1115  -36.2662   24.6211 H   0  0  0  0  0  0
  -27.2319  -37.1370   25.8861 H   0  0  0  0  0  0
  -20.9280  -29.8763   21.6976 H   0  0  0  0  0  0
  -26.0178  -38.2872   24.1468 H   0  0  0  0  0  0
  -26.7878  -22.0152   23.3479 H   0  0  0  0  0  0
  -27.3918  -22.6070   24.9819 H   0  0  0  0  0  0
  -26.8167  -24.9368   24.3395 H   0  0  0  0  0  0
  -26.2244  -24.3361   22.7054 H   0  0  0  0  0  0
  -30.9414  -16.5370   24.5803 H   0  0  0  0  0  0
  -29.2605  -16.3473   24.0945 H   0  0  0  0  0  0
  -30.0219  -14.2057   23.4833 H   0  0  0  0  0  0
  -31.6464  -14.7821   23.1256 H   0  0  0  0  0  0
  -30.5578  -16.9995   20.4850 H   0  0  0  0  0  0
  -28.9526  -16.7777   21.1655 H   0  0  0  0  0  0
  -29.1318  -24.0474   23.8493 H   0  0  0  0  0  0
  -31.5093  -17.6290   22.5367 H   0  0  0  0  0  0
  -29.9632  -23.5915   17.2451 H   0  0  0  0  0  0
  -29.7200  -21.8608   17.4818 H   0  0  0  0  0  0
  -31.2659  -22.6035   17.9083 H   0  0  0  0  0  0
  -29.4578  -26.3370   21.7599 H   0  0  0  0  0  0
  -27.7552  -26.0032   21.8879 H   0  0  0  0  0  0
  -29.9814  -19.0784   23.8877 H   0  0  0  0  0  0
  -28.6071  -18.4832   22.9938 H   0  0  0  0  0  0
  -29.5450  -19.4580   20.8861 H   0  0  0  0  0  0
  -30.9559  -20.0238   21.7588 H   0  0  0  0  0  0
  -28.9285  -21.1942   23.1838 H   0  0  0  0  0  0
  1 25  1  0  0  0
  1 30  2  0  0  0
  1 88  1  0  0  0
  2  3  1  0  0  0
  2 25  1  0  0  0
  2 90  1  0  0  0
  2 91  1  0  0  0
  3  4  1  0  0  0
  3 92  1  0  0  0
  3 93  1  0  0  0
  4  5  1  0  0  0
  4 94  1  0  0  0
  4 95  1  0  0  0
  5  6  1  0  0  0
  5 26  1  0  0  0
  5 96  1  0  0  0
  6 25  1  0  0  0
  6 97  1  0  0  0
  6 98  1  0  0  0
  7  8  2  0  0  0
  7 26  1  0  0  0
  7 29  1  0  0  0
  8  9  1  0  0  0
  8 22  1  0  0  0
  9 10  1  0  0  0
  9 27  2  0  0  0
 10 11  2  0  0  0
 10 15  1  0  0  0
 11 12  1  0  0  0
 11 99  1  0  0  0
 12 13  2  0  0  0
 12100  1  0  0  0
 13 14  1  0  0  0
 13 31  1  0  0  0
 14 15  2  0  0  0
 14101  1  0  0  0
 15102  1  0  0  0
 16 17  2  0  0  0
 16 21  1  0  0  0
 16 31  1  0  0  0
 17 18  1  0  0  0
 17103  1  0  0  0
 18 19  2  0  0  0
 18104  1  0  0  0
 19 20  1  0  0  0
 19 24  1  0  0  0
 20 21  2  0  0  0
 20105  1  0  0  0
 21 23  1  0  0  0
 22 28  1  0  0  0
 22 32  2  0  0  0
 26 27  1  0  0  0
 28106  1  0  0  0
 28107  1  0  0  0
 29108  1  0  0  0
 29109  1  0  0  0
 33 34  1  0  0  0
 33 66  1  0  0  0
 33 70  2  0  0  0
 34 36  1  0  0  0
 34 59  1  0  0  0
 34110  1  0  0  0
 35 44  2  0  0  0
 35 45  1  0  0  0
 35 68  1  0  0  0
 36 56  1  0  0  0
 36111  1  0  0  0
 37 39  1  0  0  0
 37 47  1  0  0  0
 37 66  1  0  0  0
 37112  1  0  0  0
 38 43  2  0  0  0
 38 46  1  0  0  0
 38 47  1  0  0  0
 39 64  1  0  0  0
 39 67  2  0  0  0
 40 52  1  0  0  0
 40 53  2  0  0  0
 40 58  1  0  0  0
 41113  1  0  0  0
 41114  1  0  0  0
 41115  1  0  0  0
 41 48  1  0  0  0
 42 43  1  0  0  0
 42 66  1  0  0  0
 42116  1  0  0  0
 42117  1  0  0  0
 43 44  1  0  0  0
 44118  1  0  0  0
 45 46  2  0  0  0
 45119  1  0  0  0
 46120  1  0  0  0
 47121  1  0  0  0
 47122  1  0  0  0
 48 56  1  0  0  0
 48 65  1  0  0  0
 48123  1  0  0  0
 49 50  1  0  0  0
 49 53  1  0  0  0
 49 64  1  0  0  0
 49124  1  0  0  0
 50 51  1  0  0  0
 50125  1  0  0  0
 50126  1  0  0  0
 51 52  1  0  0  0
 51127  1  0  0  0
 51128  1  0  0  0
 52129  1  0  0  0
 52130  1  0  0  0
 53 54  1  0  0  0
 54 55  2  0  0  0
 54131  1  0  0  0
 55 57  1  0  0  0
 55132  1  0  0  0
 56 69  2  0  0  0
 57 58  2  0  0  0
 57133  1  0  0  0
 58134  1  0  0  0
 59 60  1  0  0  0
 59 61  1  0  0  0
 59 62  1  0  0  0
 60135  1  0  0  0
 60136  1  0  0  0
 60137  1  0  0  0
 61138  1  0  0  0
 61139  1  0  0  0
 61140  1  0  0  0
 62141  1  0  0  0
 62142  1  0  0  0
 62143  1  0  0  0
 63 65  1  0  0  0
 63144  1  0  0  0
 63145  1  0  0  0
 63146  1  0  0  0
 64147  1  0  0  0
 65148  1  0  0  0
 68 83  1  0  0  0
 71 72  2  0  0  0
 71 73  1  0  0  0
 71 80  1  0  0  0
 72 83  1  0  0  0
 72 86  1  0  0  0
 73 87  2  0  0  0
 73 89  1  0  0  0
 74 82  1  0  0  0
 74 86  2  0  0  0
 74 87  1  0  0  0
 75 76  1  0  0  0
 75 80  1  0  0  0
 75149  1  0  0  0
 75150  1  0  0  0
 76 80  1  0  0  0
 76151  1  0  0  0
 76152  1  0  0  0
 77 78  1  0  0  0
 77 81  1  0  0  0
 77153  1  0  0  0
 77154  1  0  0  0
 78 88  1  0  0  0
 78155  1  0  0  0
 78156  1  0  0  0
 79 81  1  0  0  0
 79 88  1  0  0  0
 79157  1  0  0  0
 79158  1  0  0  0
 80159  1  0  0  0
 81 84  1  0  0  0
 81160  1  0  0  0
 82161  1  0  0  0
 82162  1  0  0  0
 82163  1  0  0  0
 83164  1  0  0  0
 83165  1  0  0  0
 84 85  1  0  0  0
 84166  1  0  0  0
 84167  1  0  0  0
 85 89  1  0  0  0
 85168  1  0  0  0
 85169  1  0  0  0
 89170  1  0  0  0
M  ISO  4   1 100  68 101  83 101  88 100
M  END
> <chiral flag>
0

> <version>
0

> <s_m_source_file>
/data/baiqing/PycharmProjects/Reinvent-master-3.2/result/LINK_invent/BTK/process_docking_weight1_custom_sum_contain_oxygen_bond_distance_aromatic_linkinvent_7_9_3/rearranged_h_0193.sdf

> <i_m_source_file_index>
28

> <r_mmod_Potential_Energy-OPLS-2005>
-253.324127197266

> <r_mmod_Stretch_Energy-OPLS-2005>
33.8566665649414

> <r_mmod_Bend_Energy-OPLS-2005>
118.870216369629

> <r_mmod_Torsional_Energy-OPLS-2005>
380.908111572266

> <r_mmod_Improper_Torsional_Energy-OPLS-2005>
5.81798028945923

> <r_mmod_Van_der_Waal_Energy-OPLS-2005>
157.835418701172

> <r_mmod_Electrostatic_Energy-OPLS-2005>
-736.239135742188

> <r_mmod_Solvation_Energy-OPLS-2005>
-220.733322143555

> <b_mmod_Minimization_Converged-OPLS-2005>
0

> <r_mmod_RMS_Derivative-OPLS-2005>
1.03888738155365

$$$$
28
                    3D
 Structure written by MMmdl.
163172  0  0  1  0            999 V2000
  -30.6169  -14.8358   20.4407 C   0  0  0  0  0  0
  -30.4215  -12.5156   19.4896 C   0  0  0  0  0  0
  -29.5107  -12.5139   18.2439 C   0  0  0  0  0  0
  -28.0408  -12.3230   18.6591 C   0  0  0  0  0  0
  -27.6308  -13.2464   19.8388 C   0  0  2  0  0  0
  -28.6734  -13.2529   20.9765 C   0  0  0  0  0  0
  -25.2478  -13.8228   20.5721 C   0  0  0  0  0  0
  -24.1777  -13.0454   20.9213 C   0  0  0  0  0  0
  -24.6381  -11.6937   20.8733 C   0  0  0  0  0  0
  -23.9066  -10.4305   21.0385 C   0  0  0  0  0  0
  -24.3615   -9.4225   21.9171 C   0  0  0  0  0  0
  -23.6300   -8.2253   22.0741 C   0  0  0  0  0  0
  -22.4282   -8.0279   21.3532 C   0  0  0  0  0  0
  -21.9914   -9.0252   20.4642 C   0  0  0  0  0  0
  -22.7230  -10.2134   20.3046 C   0  0  0  0  0  0
  -21.6861   -6.0726   22.5271 C   0  0  0  0  0  0
  -21.4020   -6.5627   23.8205 C   0  0  0  0  0  0
  -21.3664   -5.6781   24.9170 C   0  0  0  0  0  0
  -21.6055   -4.3046   24.7224 C   0  0  0  0  0  0
  -21.8817   -3.8132   23.4345 C   0  0  0  0  0  0
  -21.9196   -4.6947   22.3396 C   0  0  0  0  0  0
  -22.7797  -13.5233   21.1870 C   0  0  0  0  0  0
  -22.1661   -4.2130   21.0975 F   0  0  0  0  0  0
  -21.5635   -3.4530   25.7738 F   0  0  0  0  0  0
  -29.9587  -13.6179   20.3748 N   0  0  0  0  0  0
  -26.2887  -12.9456   20.3247 N   0  0  0  0  0  0
  -25.9317  -11.6585   20.5731 N   0  0  0  0  0  0
  -22.0440  -12.8237   22.0430 N   0  0  0  0  0  0
  -25.4187  -15.1961   20.4198 N   0  0  0  0  0  0
  -31.8188  -14.8448   20.1542 O   0  0  0  0  0  0
  -21.6648   -6.8873   21.4237 O   0  0  0  0  0  0
  -22.3484  -14.5535   20.6705 O   0  0  0  0  0  0
  -24.6362  -31.8512   23.1947 C   0  0  0  0  0  0
  -25.9168  -32.4727   23.8312 C   0  0  1  0  0  0
  -27.2100  -27.2048   20.1373 C   0  0  0  0  0  0
  -25.5951  -33.8532   24.2234 N   0  0  0  0  0  0
  -23.4351  -30.4753   21.5378 C   0  0  2  0  0  0
  -24.8819  -28.9157   20.1066 C   0  0  0  0  0  0
  -22.7520  -29.4599   22.4876 C   0  0  0  0  0  0
  -18.0301  -28.1377   22.8479 C   0  0  0  0  0  0
  -24.1495  -36.7272   23.2640 C   0  0  0  0  0  0
  -25.9865  -30.7465   21.3839 C   0  0  0  0  0  0
  -26.0573  -29.3660   20.7217 C   0  0  0  0  0  0
  -27.2244  -28.5256   20.7212 C   0  0  0  0  0  0
  -26.0136  -26.8445   19.4782 C   0  0  0  0  0  0
  -24.8695  -27.6667   19.4705 C   0  0  0  0  0  0
  -23.6560  -29.8099   20.1544 C   0  0  0  0  0  0
  -25.4124  -36.3055   24.0323 C   0  0  1  0  0  0
  -20.5905  -28.3717   23.1238 C   0  0  2  0  0  0
  -20.6784  -26.9432   22.5394 C   0  0  0  0  0  0
  -19.5761  -26.6377   21.5201 C   0  0  0  0  0  0
  -18.1942  -26.7921   22.1617 C   0  0  0  0  0  0
  -19.1551  -28.8866   23.2852 C   0  0  0  0  0  0
  -18.9476  -30.1452   23.8886 C   0  0  0  0  0  0
  -17.6474  -30.6587   24.0557 C   0  0  0  0  0  0
  -25.9070  -34.9430   23.5087 C   0  0  0  0  0  0
  -16.5369  -29.9081   23.6323 C   0  0  0  0  0  0
  -16.7284  -28.6491   23.0367 C   0  0  0  0  0  0
  -26.4520  -31.6563   25.0721 C   0  0  0  0  0  0
  -25.3733  -31.3725   26.1437 C   0  0  0  0  0  0
  -27.0362  -30.2961   24.6249 C   0  0  0  0  0  0
  -27.6064  -32.4315   25.7500 C   0  0  0  0  0  0
  -27.5582  -37.1794   24.8465 C   0  0  0  0  0  0
  -21.4228  -29.3057   22.3616 N   0  0  0  0  0  0
  -26.4292  -37.3761   23.9411 N   0  0  0  0  0  0
  -24.7051  -31.0439   22.0942 N   0  0  0  0  0  0
  -23.4202  -28.8143   23.2995 O   0  0  0  0  0  0
  -28.2733  -26.2549   20.2200 O   0  0  0  0  0  0
  -26.5647  -34.8910   22.4658 O   0  0  0  0  0  0
  -23.5499  -32.1364   23.7212 O   0  0  0  0  0  0
  -31.2981  -20.8103   22.9574 C   0  0  0  0  0  0
  -31.0814  -22.2512   22.5746 C   0  0  0  0  0  0
  -29.5977  -18.5738   19.3693 C   0  0  0  0  0  0
  -29.1420  -18.3228   21.7297 C   0  0  0  0  0  0
  -30.1670  -17.0644   19.3350 C   0  0  0  0  0  0
  -29.7173  -16.8240   21.7393 C   0  0  0  0  0  0
  -29.9723  -21.2387   22.3468 C   0  0  0  0  0  0
  -29.8172  -19.3120   20.7187 C   0  0  0  0  0  0
  -28.9874  -23.5421   20.5343 C   0  0  0  0  0  0
  -28.7299  -21.9053   20.2980 C   0  0  0  0  0  0
  -28.0002  -24.7601   20.0253 C   0  0  0  0  0  0
  -29.9118  -16.0700   20.4541 N   0  0  0  0  0  0
  -29.7428  -20.8864   20.9157 N   0  3  1  0  0  0
  -31.4655  -12.6280   19.1891 H   0  0  0  0  0  0
  -30.3644  -11.5585   20.0093 H   0  0  0  0  0  0
  -29.8148  -11.7252   17.5542 H   0  0  0  0  0  0
  -29.6213  -13.4548   17.7023 H   0  0  0  0  0  0
  -27.9191  -11.2797   18.9505 H   0  0  0  0  0  0
  -27.3804  -12.4780   17.8050 H   0  0  0  0  0  0
  -27.6062  -14.2552   19.4267 H   0  0  0  0  0  0
  -28.7342  -12.2805   21.4672 H   0  0  0  0  0  0
  -28.3922  -13.9734   21.7454 H   0  0  0  0  0  0
  -25.2755   -9.5712   22.4748 H   0  0  0  0  0  0
  -24.0007   -7.4654   22.7462 H   0  0  0  0  0  0
  -21.0842   -8.8772   19.8960 H   0  0  0  0  0  0
  -22.3679  -10.9669   19.6157 H   0  0  0  0  0  0
  -21.2009   -7.6135   23.9706 H   0  0  0  0  0  0
  -21.1494   -6.0509   25.9075 H   0  0  0  0  0  0
  -22.0596   -2.7594   23.2845 H   0  0  0  0  0  0
  -22.4054  -11.9913   22.4852 H   0  0  0  0  0  0
  -21.1038  -13.1245   22.2586 H   0  0  0  0  0  0
  -24.6597  -15.8554   20.5505 H   0  0  0  0  0  0
  -26.2844  -15.6381   20.1364 H   0  0  0  0  0  0
  -26.7235  -32.5353   23.1046 H   0  0  0  0  0  0
  -25.0090  -33.9661   25.0377 H   0  0  0  0  0  0
  -22.7346  -31.3000   21.3902 H   0  0  0  0  0  0
  -23.3765  -35.9594   23.3284 H   0  0  0  0  0  0
  -24.3590  -36.8916   22.2059 H   0  0  0  0  0  0
  -23.7238  -37.6462   23.6680 H   0  0  0  0  0  0
  -26.1390  -31.5078   20.6173 H   0  0  0  0  0  0
  -26.8577  -30.7891   22.0258 H   0  0  0  0  0  0
  -28.1217  -28.8652   21.2198 H   0  0  0  0  0  0
  -25.9267  -25.8924   18.9773 H   0  0  0  0  0  0
  -23.9724  -27.3196   18.9764 H   0  0  0  0  0  0
  -23.7868  -30.5866   19.3996 H   0  0  0  0  0  0
  -22.7715  -29.2500   19.8459 H   0  0  0  0  0  0
  -25.1305  -36.1900   25.0815 H   0  0  0  0  0  0
  -21.0003  -28.3308   24.1355 H   0  0  0  0  0  0
  -20.5667  -26.2349   23.3613 H   0  0  0  0  0  0
  -21.6656  -26.7437   22.1206 H   0  0  0  0  0  0
  -19.6929  -25.6279   21.1252 H   0  0  0  0  0  0
  -19.6684  -27.3166   20.6710 H   0  0  0  0  0  0
  -17.4214  -26.6668   21.4016 H   0  0  0  0  0  0
  -18.0347  -26.0049   22.9002 H   0  0  0  0  0  0
  -19.7957  -30.7255   24.2266 H   0  0  0  0  0  0
  -17.5040  -31.6267   24.5156 H   0  0  0  0  0  0
  -15.5368  -30.2993   23.7635 H   0  0  0  0  0  0
  -15.8687  -28.0791   22.7113 H   0  0  0  0  0  0
  -24.5910  -30.7072   25.7764 H   0  0  0  0  0  0
  -24.8928  -32.2896   26.4851 H   0  0  0  0  0  0
  -25.8044  -30.8909   27.0223 H   0  0  0  0  0  0
  -26.2946  -29.6699   24.1273 H   0  0  0  0  0  0
  -27.4008  -29.7237   25.4790 H   0  0  0  0  0  0
  -27.8852  -30.4197   23.9521 H   0  0  0  0  0  0
  -27.2666  -33.3632   26.2033 H   0  0  0  0  0  0
  -28.3898  -32.6845   25.0344 H   0  0  0  0  0  0
  -28.0707  -31.8471   26.5454 H   0  0  0  0  0  0
  -28.2591  -38.0099   24.7523 H   0  0  0  0  0  0
  -28.1087  -36.2633   24.6277 H   0  0  0  0  0  0
  -27.2306  -37.1425   25.8867 H   0  0  0  0  0  0
  -20.9427  -29.8790   21.6821 H   0  0  0  0  0  0
  -26.0168  -38.2834   24.1401 H   0  0  0  0  0  0
  -31.3078  -20.5840   24.0219 H   0  0  0  0  0  0
  -32.0270  -20.2562   22.3709 H   0  0  0  0  0  0
  -31.6416  -22.6257   21.7183 H   0  0  0  0  0  0
  -30.9510  -22.9652   23.3852 H   0  0  0  0  0  0
  -28.5327  -18.5699   19.1302 H   0  0  0  0  0  0
  -30.0755  -19.1417   18.5698 H   0  0  0  0  0  0
  -29.2217  -18.7107   22.7447 H   0  0  0  0  0  0
  -28.0715  -18.2915   21.5217 H   0  0  0  0  0  0
  -31.2490  -17.1474   19.2191 H   0  0  0  0  0  0
  -29.8236  -16.5961   18.4107 H   0  0  0  0  0  0
  -29.0834  -16.2196   22.3894 H   0  0  0  0  0  0
  -30.6899  -16.8557   22.2335 H   0  0  0  0  0  0
  -29.0808  -21.2471   22.9728 H   0  0  0  0  0  0
  -30.8824  -19.1536   20.8790 H   0  0  0  0  0  0
  -29.9796  -23.7640   20.1440 H   0  0  0  0  0  0
  -29.0657  -23.6996   21.6088 H   0  0  0  0  0  0
  -28.6785  -21.7130   19.2261 H   0  0  0  0  0  0
  -27.7455  -21.6520   20.6898 H   0  0  0  0  0  0
  -27.0345  -24.5573   20.4894 H   0  0  0  0  0  0
  -27.8494  -24.6170   18.9549 H   0  0  0  0  0  0
  -30.5926  -21.1673   20.4511 H   0  0  0  0  0  0
  1 25  1  0  0  0
  1 30  2  0  0  0
  1 82  1  0  0  0
  2  3  1  0  0  0
  2 25  1  0  0  0
  2 84  1  0  0  0
  2 85  1  0  0  0
  3  4  1  0  0  0
  3 86  1  0  0  0
  3 87  1  0  0  0
  4  5  1  0  0  0
  4 88  1  0  0  0
  4 89  1  0  0  0
  5  6  1  0  0  0
  5 26  1  0  0  0
  5 90  1  0  0  0
  6 25  1  0  0  0
  6 91  1  0  0  0
  6 92  1  0  0  0
  7  8  2  0  0  0
  7 26  1  0  0  0
  7 29  1  0  0  0
  8  9  1  0  0  0
  8 22  1  0  0  0
  9 10  1  0  0  0
  9 27  2  0  0  0
 10 11  2  0  0  0
 10 15  1  0  0  0
 11 12  1  0  0  0
 11 93  1  0  0  0
 12 13  2  0  0  0
 12 94  1  0  0  0
 13 14  1  0  0  0
 13 31  1  0  0  0
 14 15  2  0  0  0
 14 95  1  0  0  0
 15 96  1  0  0  0
 16 17  2  0  0  0
 16 21  1  0  0  0
 16 31  1  0  0  0
 17 18  1  0  0  0
 17 97  1  0  0  0
 18 19  2  0  0  0
 18 98  1  0  0  0
 19 20  1  0  0  0
 19 24  1  0  0  0
 20 21  2  0  0  0
 20 99  1  0  0  0
 21 23  1  0  0  0
 22 28  1  0  0  0
 22 32  2  0  0  0
 26 27  1  0  0  0
 28100  1  0  0  0
 28101  1  0  0  0
 29102  1  0  0  0
 29103  1  0  0  0
 33 34  1  0  0  0
 33 66  1  0  0  0
 33 70  2  0  0  0
 34 36  1  0  0  0
 34 59  1  0  0  0
 34104  1  0  0  0
 35 44  2  0  0  0
 35 45  1  0  0  0
 35 68  1  0  0  0
 36 56  1  0  0  0
 36105  1  0  0  0
 37 39  1  0  0  0
 37 47  1  0  0  0
 37 66  1  0  0  0
 37106  1  0  0  0
 38 43  2  0  0  0
 38 46  1  0  0  0
 38 47  1  0  0  0
 39 64  1  0  0  0
 39 67  2  0  0  0
 40 52  1  0  0  0
 40 53  2  0  0  0
 40 58  1  0  0  0
 41107  1  0  0  0
 41108  1  0  0  0
 41109  1  0  0  0
 41 48  1  0  0  0
 42 43  1  0  0  0
 42 66  1  0  0  0
 42110  1  0  0  0
 42111  1  0  0  0
 43 44  1  0  0  0
 44112  1  0  0  0
 45 46  2  0  0  0
 45113  1  0  0  0
 46114  1  0  0  0
 47115  1  0  0  0
 47116  1  0  0  0
 48 56  1  0  0  0
 48 65  1  0  0  0
 48117  1  0  0  0
 49 50  1  0  0  0
 49 53  1  0  0  0
 49 64  1  0  0  0
 49118  1  0  0  0
 50 51  1  0  0  0
 50119  1  0  0  0
 50120  1  0  0  0
 51 52  1  0  0  0
 51121  1  0  0  0
 51122  1  0  0  0
 52123  1  0  0  0
 52124  1  0  0  0
 53 54  1  0  0  0
 54 55  2  0  0  0
 54125  1  0  0  0
 55 57  1  0  0  0
 55126  1  0  0  0
 56 69  2  0  0  0
 57 58  2  0  0  0
 57127  1  0  0  0
 58128  1  0  0  0
 59 60  1  0  0  0
 59 61  1  0  0  0
 59 62  1  0  0  0
 60129  1  0  0  0
 60130  1  0  0  0
 60131  1  0  0  0
 61132  1  0  0  0
 61133  1  0  0  0
 61134  1  0  0  0
 62135  1  0  0  0
 62136  1  0  0  0
 62137  1  0  0  0
 63 65  1  0  0  0
 63138  1  0  0  0
 63139  1  0  0  0
 63140  1  0  0  0
 64141  1  0  0  0
 65142  1  0  0  0
 68 81  1  0  0  0
 71 72  1  0  0  0
 71143  1  0  0  0
 71144  1  0  0  0
 71 77  1  0  0  0
 72 77  1  0  0  0
 72145  1  0  0  0
 72146  1  0  0  0
 73 75  1  0  0  0
 73147  1  0  0  0
 73148  1  0  0  0
 73 78  1  0  0  0
 74 76  1  0  0  0
 74 78  1  0  0  0
 74149  1  0  0  0
 74150  1  0  0  0
 75 82  1  0  0  0
 75151  1  0  0  0
 75152  1  0  0  0
 76 82  1  0  0  0
 76153  1  0  0  0
 76154  1  0  0  0
 77 83  1  0  0  0
 77155  1  0  0  0
 78 83  1  0  0  0
 78156  1  0  0  0
 79 80  1  0  0  0
 79 81  1  0  0  0
 79157  1  0  0  0
 79158  1  0  0  0
 80159  1  0  0  0
 80160  1  0  0  0
 80 83  1  0  0  0
 81161  1  0  0  0
 81162  1  0  0  0
 83163  1  0  0  0
M  CHG  1  83   1
M  ISO  4   1 100  68 101  81 101  82 100
M  END
> <chiral flag>
0

> <version>
0

> <s_m_source_file>
/data/baiqing/PycharmProjects/Reinvent-master-3.2/result/LINK_invent/BTK/process_docking_weight1_custom_sum_contain_oxygen_bond_distance_aromatic_linkinvent_7_9_3/rearranged_h_0193.sdf

> <i_m_source_file_index>
29

> <r_mmod_Potential_Energy-OPLS-2005>
551.1552734375

> <r_mmod_Stretch_Energy-OPLS-2005>
188.586685180664

> <r_mmod_Bend_Energy-OPLS-2005>
281.000549316406

> <r_mmod_Torsional_Energy-OPLS-2005>
379.940856933594

> <r_mmod_Improper_Torsional_Energy-OPLS-2005>
13.3224983215332

> <r_mmod_Van_der_Waal_Energy-OPLS-2005>
122.911773681641

> <r_mmod_Electrostatic_Energy-OPLS-2005>
-132.671234130859

> <r_mmod_Solvation_Energy-OPLS-2005>
-432.643981933594

> <b_mmod_Minimization_Converged-OPLS-2005>
0

> <r_mmod_RMS_Derivative-OPLS-2005>
1.83185970783234

$$$$
29
                    3D
 Structure written by MMmdl.
162171  0  0  1  0            999 V2000
  -30.6873  -14.5063   20.5981 C   0  0  0  0  0  0
  -30.4273  -12.3367   19.4314 C   0  0  0  0  0  0
  -29.4995  -12.5151   18.2110 C   0  0  0  0  0  0
  -28.0190  -12.3652   18.6156 C   0  0  0  0  0  0
  -27.6579  -13.2045   19.8687 C   0  0  2  0  0  0
  -28.6941  -12.9808   20.9895 C   0  0  0  0  0  0
  -25.2597  -13.8159   20.5692 C   0  0  0  0  0  0
  -24.1843  -13.0447   20.9183 C   0  0  0  0  0  0
  -24.6377  -11.6905   20.8724 C   0  0  0  0  0  0
  -23.9051  -10.4291   21.0406 C   0  0  0  0  0  0
  -24.3613   -9.4208   21.9182 C   0  0  0  0  0  0
  -23.6287   -8.2242   22.0756 C   0  0  0  0  0  0
  -22.4268   -8.0277   21.3547 C   0  0  0  0  0  0
  -21.9900   -9.0252   20.4655 C   0  0  0  0  0  0
  -22.7220  -10.2131   20.3057 C   0  0  0  0  0  0
  -21.6851   -6.0729   22.5287 C   0  0  0  0  0  0
  -21.4009   -6.5637   23.8218 C   0  0  0  0  0  0
  -21.3660   -5.6794   24.9184 C   0  0  0  0  0  0
  -21.6044   -4.3054   24.7235 C   0  0  0  0  0  0
  -21.8816   -3.8142   23.4358 C   0  0  0  0  0  0
  -21.9191   -4.6958   22.3411 C   0  0  0  0  0  0
  -22.7869  -13.5259   21.1854 C   0  0  0  0  0  0
  -22.1655   -4.2142   21.0987 F   0  0  0  0  0  0
  -21.5629   -3.4544   25.7752 F   0  0  0  0  0  0
  -30.0233  -13.3204   20.4534 N   0  0  0  0  0  0
  -26.2995  -12.9306   20.3303 N   0  0  0  0  0  0
  -25.9292  -11.6475   20.5712 N   0  0  0  0  0  0
  -22.0485  -12.8255   22.0392 N   0  0  0  0  0  0
  -25.4400  -15.1875   20.4167 N   0  0  0  0  0  0
  -31.7923  -14.6963   20.0768 O   0  0  0  0  0  0
  -21.6633   -6.8875   21.4248 O   0  0  0  0  0  0
  -22.3583  -14.5581   20.6715 O   0  0  0  0  0  0
  -24.6161  -31.8663   23.2076 C   0  0  0  0  0  0
  -25.9043  -32.4817   23.8384 C   0  0  1  0  0  0
  -27.2327  -27.4143   20.1071 C   0  0  0  0  0  0
  -25.5894  -33.8615   24.2316 N   0  0  0  0  0  0
  -23.4054  -30.4874   21.5490 C   0  0  2  0  0  0
  -24.8530  -28.9474   20.1173 C   0  0  0  0  0  0
  -22.7416  -29.4644   22.4991 C   0  0  0  0  0  0
  -18.0273  -28.1372   22.8490 C   0  0  0  0  0  0
  -24.1487  -36.7315   23.2640 C   0  0  0  0  0  0
  -25.9354  -30.8274   21.3615 C   0  0  0  0  0  0
  -26.0140  -29.4587   20.7111 C   0  0  0  0  0  0
  -27.2103  -28.7014   20.6970 C   0  0  0  0  0  0
  -26.0557  -26.9174   19.5117 C   0  0  0  0  0  0
  -24.8689  -27.6773   19.5134 C   0  0  0  0  0  0
  -23.6153  -29.8161   20.1653 C   0  0  0  0  0  0
  -25.4108  -36.3108   24.0336 C   0  0  1  0  0  0
  -20.5864  -28.3659   23.1319 C   0  0  2  0  0  0
  -20.6759  -26.9396   22.5419 C   0  0  0  0  0  0
  -19.5743  -26.6383   21.5212 C   0  0  0  0  0  0
  -18.1921  -26.7921   22.1618 C   0  0  0  0  0  0
  -19.1523  -28.8832   23.2900 C   0  0  0  0  0  0
  -18.9449  -30.1439   23.8912 C   0  0  0  0  0  0
  -17.6451  -30.6581   24.0558 C   0  0  0  0  0  0
  -25.9035  -34.9474   23.5127 C   0  0  0  0  0  0
  -16.5342  -29.9083   23.6322 C   0  0  0  0  0  0
  -16.7262  -28.6494   23.0347 C   0  0  0  0  0  0
  -26.4467  -31.6597   25.0716 C   0  0  0  0  0  0
  -25.3733  -31.3706   26.1466 C   0  0  0  0  0  0
  -27.0299  -30.3041   24.6090 C   0  0  0  0  0  0
  -27.6047  -32.4316   25.7480 C   0  0  0  0  0  0
  -27.5579  -37.1813   24.8465 C   0  0  0  0  0  0
  -21.4142  -29.3025   22.3727 N   0  0  0  0  0  0
  -26.4294  -37.3791   23.9406 N   0  0  0  0  0  0
  -24.6709  -31.0748   22.0981 N   0  0  0  0  0  0
  -23.4181  -28.8196   23.3046 O   0  0  0  0  0  0
  -28.3868  -26.6571   20.0904 O   0  0  0  0  0  0
  -26.5601  -34.8926   22.4692 O   0  0  0  0  0  0
  -23.5348  -32.1416   23.7462 O   0  0  0  0  0  0
  -28.3721  -20.2172   18.4691 C   0  0  0  0  0  0
  -29.1146  -20.4909   21.0263 C   0  0  0  0  0  0
  -29.0381  -19.2062   20.4130 C   0  0  0  0  0  0
  -28.7495  -21.6044   20.2307 C   0  0  0  0  0  0
  -28.3728  -17.7521   22.2355 C   0  0  0  0  0  0
  -29.8007  -15.6849   22.5527 C   0  0  0  0  0  0
  -29.8399  -16.8261   20.3253 C   0  0  0  0  0  0
  -28.4279  -16.3238   22.8213 C   0  0  1  0  0  0
  -28.5070  -24.1272   19.9522 C   0  0  0  0  0  0
  -28.3401  -25.4111   20.8177 C   0  0  0  0  0  0
  -28.6725  -19.0981   19.1245 N   0  0  0  0  0  0
  -28.3791  -21.4574   18.9505 N   0  0  0  0  0  0
  -29.2762  -17.9737   21.0963 N   0  0  0  0  0  0
  -29.9701  -15.5548   21.1015 N   0  0  0  0  0  0
  -28.7421  -22.9142   20.7597 N   0  0  0  0  0  0
  -28.0855  -16.3248   24.2552 N   0  3  0  0  0  0
  -29.6717  -20.7364   22.6503 Cl  0  0  0  0  0  0
  -31.4713  -12.4458   19.1314 H   0  0  0  0  0  0
  -30.3426  -11.3249   19.8308 H   0  0  0  0  0  0
  -29.7522  -11.7866   17.4397 H   0  0  0  0  0  0
  -29.6615  -13.4990   17.7672 H   0  0  0  0  0  0
  -27.8360  -11.3080   18.8140 H   0  0  0  0  0  0
  -27.3709  -12.6337   17.7805 H   0  0  0  0  0  0
  -27.7015  -14.2534   19.5745 H   0  0  0  0  0  0
  -28.4216  -13.5480   21.8741 H   0  0  0  0  0  0
  -28.6836  -11.9374   21.3087 H   0  0  0  0  0  0
  -25.2760   -9.5687   22.4761 H   0  0  0  0  0  0
  -23.9998   -7.4638   22.7475 H   0  0  0  0  0  0
  -21.0826   -8.8774   19.8966 H   0  0  0  0  0  0
  -22.3672  -10.9680   19.6176 H   0  0  0  0  0  0
  -21.1990   -7.6143   23.9723 H   0  0  0  0  0  0
  -21.1488   -6.0523   25.9091 H   0  0  0  0  0  0
  -22.0590   -2.7607   23.2864 H   0  0  0  0  0  0
  -22.4040  -11.9880   22.4758 H   0  0  0  0  0  0
  -21.1123  -13.1335   22.2610 H   0  0  0  0  0  0
  -24.6628  -15.8355   20.4861 H   0  0  0  0  0  0
  -26.2662  -15.6026   20.0060 H   0  0  0  0  0  0
  -26.7116  -32.5523   23.1150 H   0  0  0  0  0  0
  -25.0038  -33.9771   25.0454 H   0  0  0  0  0  0
  -22.6946  -31.3041   21.4075 H   0  0  0  0  0  0
  -23.3743  -35.9654   23.3314 H   0  0  0  0  0  0
  -24.3578  -36.8917   22.2051 H   0  0  0  0  0  0
  -23.7248  -37.6528   23.6646 H   0  0  0  0  0  0
  -26.0465  -31.5908   20.5907 H   0  0  0  0  0  0
  -26.8240  -30.8839   21.9787 H   0  0  0  0  0  0
  -28.1102  -29.0931   21.1509 H   0  0  0  0  0  0
  -26.0568  -25.9428   19.0445 H   0  0  0  0  0  0
  -23.9756  -27.2773   19.0538 H   0  0  0  0  0  0
  -23.7240  -30.5894   19.4041 H   0  0  0  0  0  0
  -22.7391  -29.2354   19.8710 H   0  0  0  0  0  0
  -25.1286  -36.1974   25.0829 H   0  0  0  0  0  0
  -20.9947  -28.3220   24.1441 H   0  0  0  0  0  0
  -20.5656  -26.2269   23.3601 H   0  0  0  0  0  0
  -21.6628  -26.7436   22.1213 H   0  0  0  0  0  0
  -19.6904  -25.6299   21.1232 H   0  0  0  0  0  0
  -19.6680  -27.3201   20.6751 H   0  0  0  0  0  0
  -17.4195  -26.6671   21.4015 H   0  0  0  0  0  0
  -18.0313  -26.0061   22.9013 H   0  0  0  0  0  0
  -19.7926  -30.7249   24.2289 H   0  0  0  0  0  0
  -17.5007  -31.6264   24.5155 H   0  0  0  0  0  0
  -15.5342  -30.2986   23.7637 H   0  0  0  0  0  0
  -15.8662  -28.0816   22.7058 H   0  0  0  0  0  0
  -24.5896  -30.7066   25.7798 H   0  0  0  0  0  0
  -24.8936  -32.2863   26.4931 H   0  0  0  0  0  0
  -25.8082  -30.8856   27.0214 H   0  0  0  0  0  0
  -26.2840  -29.6811   24.1138 H   0  0  0  0  0  0
  -27.4067  -29.7269   25.4544 H   0  0  0  0  0  0
  -27.8676  -30.4369   23.9240 H   0  0  0  0  0  0
  -27.2665  -33.3600   26.2096 H   0  0  0  0  0  0
  -28.3836  -32.6900   25.0294 H   0  0  0  0  0  0
  -28.0739  -31.8416   26.5363 H   0  0  0  0  0  0
  -28.2608  -38.0099   24.7501 H   0  0  0  0  0  0
  -28.1064  -36.2631   24.6304 H   0  0  0  0  0  0
  -27.2296  -37.1481   25.8868 H   0  0  0  0  0  0
  -20.9302  -29.8744   21.6945 H   0  0  0  0  0  0
  -26.0185  -38.2872   24.1398 H   0  0  0  0  0  0
  -28.0783  -20.1046   17.4363 H   0  0  0  0  0  0
  -28.6406  -18.4503   23.0244 H   0  0  0  0  0  0
  -27.3473  -17.9955   21.9517 H   0  0  0  0  0  0
  -29.8941  -14.7210   23.0547 H   0  0  0  0  0  0
  -30.6013  -16.3113   22.9507 H   0  0  0  0  0  0
  -30.8137  -17.1254   19.9296 H   0  0  0  0  0  0
  -29.2094  -16.6092   19.4606 H   0  0  0  0  0  0
  -27.6660  -15.7258   22.3177 H   0  0  0  0  0  0
  -29.3506  -24.2540   19.2731 H   0  0  0  0  0  0
  -27.6222  -23.9908   19.3287 H   0  0  0  0  0  0
  -29.1616  -25.4565   21.5339 H   0  0  0  0  0  0
  -27.4328  -25.3346   21.4213 H   0  0  0  0  0  0
  -29.0614  -23.0135   21.7178 H   0  0  0  0  0  0
  -28.7512  -16.8536   24.7912 H   0  0  0  0  0  0
  -28.0671  -15.3875   24.6167 H   0  0  0  0  0  0
  -27.1744  -16.7231   24.4006 H   0  0  0  0  0  0
  1 25  1  0  0  0
  1 30  2  0  0  0
  1 84  1  0  0  0
  2  3  1  0  0  0
  2 25  1  0  0  0
  2 88  1  0  0  0
  2 89  1  0  0  0
  3  4  1  0  0  0
  3 90  1  0  0  0
  3 91  1  0  0  0
  4  5  1  0  0  0
  4 92  1  0  0  0
  4 93  1  0  0  0
  5  6  1  0  0  0
  5 26  1  0  0  0
  5 94  1  0  0  0
  6 25  1  0  0  0
  6 95  1  0  0  0
  6 96  1  0  0  0
  7  8  2  0  0  0
  7 26  1  0  0  0
  7 29  1  0  0  0
  8  9  1  0  0  0
  8 22  1  0  0  0
  9 10  1  0  0  0
  9 27  2  0  0  0
 10 11  2  0  0  0
 10 15  1  0  0  0
 11 12  1  0  0  0
 11 97  1  0  0  0
 12 13  2  0  0  0
 12 98  1  0  0  0
 13 14  1  0  0  0
 13 31  1  0  0  0
 14 15  2  0  0  0
 14 99  1  0  0  0
 15100  1  0  0  0
 16 17  2  0  0  0
 16 21  1  0  0  0
 16 31  1  0  0  0
 17 18  1  0  0  0
 17101  1  0  0  0
 18 19  2  0  0  0
 18102  1  0  0  0
 19 20  1  0  0  0
 19 24  1  0  0  0
 20 21  2  0  0  0
 20103  1  0  0  0
 21 23  1  0  0  0
 22 28  1  0  0  0
 22 32  2  0  0  0
 26 27  1  0  0  0
 28104  1  0  0  0
 28105  1  0  0  0
 29106  1  0  0  0
 29107  1  0  0  0
 33 34  1  0  0  0
 33 66  1  0  0  0
 33 70  2  0  0  0
 34 36  1  0  0  0
 34 59  1  0  0  0
 34108  1  0  0  0
 35 44  2  0  0  0
 35 45  1  0  0  0
 35 68  1  0  0  0
 36 56  1  0  0  0
 36109  1  0  0  0
 37 39  1  0  0  0
 37 47  1  0  0  0
 37 66  1  0  0  0
 37110  1  0  0  0
 38 43  2  0  0  0
 38 46  1  0  0  0
 38 47  1  0  0  0
 39 64  1  0  0  0
 39 67  2  0  0  0
 40 52  1  0  0  0
 40 53  2  0  0  0
 40 58  1  0  0  0
 41111  1  0  0  0
 41112  1  0  0  0
 41113  1  0  0  0
 41 48  1  0  0  0
 42 43  1  0  0  0
 42 66  1  0  0  0
 42114  1  0  0  0
 42115  1  0  0  0
 43 44  1  0  0  0
 44116  1  0  0  0
 45 46  2  0  0  0
 45117  1  0  0  0
 46118  1  0  0  0
 47119  1  0  0  0
 47120  1  0  0  0
 48 56  1  0  0  0
 48 65  1  0  0  0
 48121  1  0  0  0
 49 50  1  0  0  0
 49 53  1  0  0  0
 49 64  1  0  0  0
 49122  1  0  0  0
 50 51  1  0  0  0
 50123  1  0  0  0
 50124  1  0  0  0
 51 52  1  0  0  0
 51125  1  0  0  0
 51126  1  0  0  0
 52127  1  0  0  0
 52128  1  0  0  0
 53 54  1  0  0  0
 54 55  2  0  0  0
 54129  1  0  0  0
 55 57  1  0  0  0
 55130  1  0  0  0
 56 69  2  0  0  0
 57 58  2  0  0  0
 57131  1  0  0  0
 58132  1  0  0  0
 59 60  1  0  0  0
 59 61  1  0  0  0
 59 62  1  0  0  0
 60133  1  0  0  0
 60134  1  0  0  0
 60135  1  0  0  0
 61136  1  0  0  0
 61137  1  0  0  0
 61138  1  0  0  0
 62139  1  0  0  0
 62140  1  0  0  0
 62141  1  0  0  0
 63 65  1  0  0  0
 63142  1  0  0  0
 63143  1  0  0  0
 63144  1  0  0  0
 64145  1  0  0  0
 65146  1  0  0  0
 68 80  1  0  0  0
 71 81  2  0  0  0
 71 82  1  0  0  0
 71147  1  0  0  0
 72 73  2  0  0  0
 72 74  1  0  0  0
 72 87  1  0  0  0
 73 81  1  0  0  0
 73 83  1  0  0  0
 74 82  2  0  0  0
 74 85  1  0  0  0
 75 78  1  0  0  0
 75 83  1  0  0  0
 75148  1  0  0  0
 75149  1  0  0  0
 76 78  1  0  0  0
 76 84  1  0  0  0
 76150  1  0  0  0
 76151  1  0  0  0
 77 83  1  0  0  0
 77 84  1  0  0  0
 77152  1  0  0  0
 77153  1  0  0  0
 78 86  1  0  0  0
 78154  1  0  0  0
 79 80  1  0  0  0
 79 85  1  0  0  0
 79155  1  0  0  0
 79156  1  0  0  0
 80157  1  0  0  0
 80158  1  0  0  0
 85159  1  0  0  0
 86160  1  0  0  0
 86161  1  0  0  0
 86162  1  0  0  0
M  CHG  1  86   1
M  ISO  4   1 100  68 101  80 101  84 100
M  END
> <chiral flag>
0

> <version>
0

> <s_m_source_file>
/data/baiqing/PycharmProjects/Reinvent-master-3.2/result/LINK_invent/BTK/process_docking_weight1_custom_sum_contain_oxygen_bond_distance_aromatic_linkinvent_7_9_3/rearranged_h_0193.sdf

> <i_m_source_file_index>
30

> <r_mmod_Potential_Energy-OPLS-2005>
-533.328186035156

> <r_mmod_Stretch_Energy-OPLS-2005>
50.4645385742188

> <r_mmod_Bend_Energy-OPLS-2005>
125.417015075684

> <r_mmod_Torsional_Energy-OPLS-2005>
331.915679931641

> <r_mmod_Improper_Torsional_Energy-OPLS-2005>
10.5740308761597

> <r_mmod_Van_der_Waal_Energy-OPLS-2005>
169.017990112305

> <r_mmod_Electrostatic_Energy-OPLS-2005>
-712.576843261719

> <r_mmod_Solvation_Energy-OPLS-2005>
-523.211303710938

> <b_mmod_Minimization_Converged-OPLS-2005>
0

> <r_mmod_RMS_Derivative-OPLS-2005>
1.22301721572876

$$$$
30
                    3D
 Structure written by MMmdl.
158167  0  0  1  0            999 V2000
  -30.6507  -14.6610   20.3878 C   0  0  0  0  0  0
  -30.4435  -12.3765   19.4640 C   0  0  0  0  0  0
  -29.5088  -12.3570   18.2357 C   0  0  0  0  0  0
  -28.0241  -12.2702   18.6529 C   0  0  0  0  0  0
  -27.6384  -13.1894   19.8452 C   0  0  2  0  0  0
  -28.6964  -13.1548   20.9687 C   0  0  0  0  0  0
  -25.2580  -13.8107   20.5767 C   0  0  0  0  0  0
  -24.1807  -13.0422   20.9224 C   0  0  0  0  0  0
  -24.6331  -11.6881   20.8791 C   0  0  0  0  0  0
  -23.9001  -10.4287   21.0441 C   0  0  0  0  0  0
  -24.3577   -9.4202   21.9203 C   0  0  0  0  0  0
  -23.6271   -8.2238   22.0768 C   0  0  0  0  0  0
  -22.4255   -8.0267   21.3551 C   0  0  0  0  0  0
  -21.9879   -9.0239   20.4652 C   0  0  0  0  0  0
  -22.7196  -10.2127   20.3074 C   0  0  0  0  0  0
  -21.6845   -6.0727   22.5271 C   0  0  0  0  0  0
  -21.3999   -6.5635   23.8200 C   0  0  0  0  0  0
  -21.3659   -5.6791   24.9166 C   0  0  0  0  0  0
  -21.6052   -4.3053   24.7217 C   0  0  0  0  0  0
  -21.8824   -3.8144   23.4341 C   0  0  0  0  0  0
  -21.9193   -4.6962   22.3393 C   0  0  0  0  0  0
  -22.7837  -13.5257   21.1857 C   0  0  0  0  0  0
  -22.1667   -4.2151   21.0970 F   0  0  0  0  0  0
  -21.5638   -3.4536   25.7733 F   0  0  0  0  0  0
  -29.9961  -13.4593   20.3583 N   0  0  0  0  0  0
  -26.2935  -12.9208   20.3355 N   0  0  0  0  0  0
  -25.9248  -11.6410   20.5855 N   0  0  0  0  0  0
  -22.0441  -12.8259   22.0383 N   0  0  0  0  0  0
  -25.4399  -15.1831   20.4269 N   0  0  0  0  0  0
  -31.8764  -14.7145   20.2676 O   0  0  0  0  0  0
  -21.6635   -6.8860   21.4228 O   0  0  0  0  0  0
  -22.3566  -14.5579   20.6703 O   0  0  0  0  0  0
  -24.6198  -31.8635   23.2081 C   0  0  0  0  0  0
  -25.9083  -32.4789   23.8387 C   0  0  1  0  0  0
  -27.2395  -27.3983   20.1157 C   0  0  0  0  0  0
  -25.5924  -33.8587   24.2325 N   0  0  0  0  0  0
  -23.4112  -30.4863   21.5457 C   0  0  2  0  0  0
  -24.8650  -28.9494   20.1109 C   0  0  0  0  0  0
  -22.7432  -29.4643   22.4946 C   0  0  0  0  0  0
  -18.0267  -28.1405   22.8495 C   0  0  0  0  0  0
  -24.1490  -36.7293   23.2647 C   0  0  0  0  0  0
  -25.9428  -30.8223   21.3651 C   0  0  0  0  0  0
  -26.0258  -29.4527   20.7139 C   0  0  0  0  0  0
  -27.2203  -28.6858   20.7128 C   0  0  0  0  0  0
  -26.0679  -26.9238   19.4934 C   0  0  0  0  0  0
  -24.8839  -27.6864   19.4931 C   0  0  0  0  0  0
  -23.6259  -29.8184   20.1604 C   0  0  0  0  0  0
  -25.4114  -36.3087   24.0341 C   0  0  1  0  0  0
  -20.5863  -28.3705   23.1300 C   0  0  2  0  0  0
  -20.6769  -26.9436   22.5416 C   0  0  0  0  0  0
  -19.5745  -26.6409   21.5220 C   0  0  0  0  0  0
  -18.1912  -26.7950   22.1615 C   0  0  0  0  0  0
  -19.1520  -28.8869   23.2890 C   0  0  0  0  0  0
  -18.9448  -30.1461   23.8922 C   0  0  0  0  0  0
  -17.6456  -30.6609   24.0581 C   0  0  0  0  0  0
  -25.9033  -34.9446   23.5123 C   0  0  0  0  0  0
  -16.5341  -29.9115   23.6344 C   0  0  0  0  0  0
  -16.7260  -28.6527   23.0369 C   0  0  0  0  0  0
  -26.4522  -31.6564   25.0715 C   0  0  0  0  0  0
  -25.3800  -31.3681   26.1472 C   0  0  0  0  0  0
  -27.0350  -30.2999   24.6111 C   0  0  0  0  0  0
  -27.6131  -32.4257   25.7446 C   0  0  0  0  0  0
  -27.5558  -37.1825   24.8488 C   0  0  0  0  0  0
  -21.4151  -29.3053   22.3687 N   0  0  0  0  0  0
  -26.4309  -37.3758   23.9381 N   0  0  0  0  0  0
  -24.6758  -31.0712   22.0988 N   0  0  0  0  0  0
  -23.4174  -28.8184   23.3011 O   0  0  0  0  0  0
  -28.3487  -26.5698   20.1435 O   0  0  0  0  0  0
  -26.5576  -34.8902   22.4671 O   0  0  0  0  0  0
  -23.5383  -32.1404   23.7455 O   0  0  0  0  0  0
  -28.8858  -22.1478   20.8515 C   0  0  0  0  0  0
  -30.0123  -17.1088   18.1524 C   0  0  0  0  0  0
  -31.0102  -17.6389   19.1658 C   0  0  0  0  0  0
  -29.2616  -16.0037   18.9081 C   0  0  0  0  0  0
  -30.4097  -17.2032   20.5104 C   0  0  1  0  0  0
  -28.5767  -20.6719   21.1239 C   0  0  0  0  0  0
  -29.2977  -18.2367   20.9782 C   0  0  0  0  0  0
  -28.3396  -25.6165   21.2054 C   0  0  0  0  0  0
  -29.8904  -22.6193   20.0473 N   0  0  0  0  0  0
  -28.1268  -23.1311   21.3411 N   0  0  0  0  0  0
  -29.7861  -23.9232   20.0344 N   0  0  0  0  0  0
  -28.7067  -24.2373   20.7934 N   0  0  0  0  0  0
  -29.8949  -15.8135   20.2344 N   0  0  0  0  0  0
  -29.7028  -19.6906   20.9963 N   0  3  0  0  0  0
  -31.4759  -12.5146   19.1356 H   0  0  0  0  0  0
  -30.4226  -11.4226   19.9925 H   0  0  0  0  0  0
  -29.7549  -11.4917   17.6182 H   0  0  0  0  0  0
  -29.6901  -13.2128   17.5905 H   0  0  0  0  0  0
  -27.8360  -11.2302   18.9244 H   0  0  0  0  0  0
  -27.3818  -12.4730   17.7957 H   0  0  0  0  0  0
  -27.5963  -14.1922   19.4436 H   0  0  0  0  0  0
  -28.7233  -12.1797   21.4575 H   0  0  0  0  0  0
  -28.4555  -13.8860   21.7422 H   0  0  0  0  0  0
  -25.2726   -9.5696   22.4766 H   0  0  0  0  0  0
  -23.9989   -7.4639   22.7491 H   0  0  0  0  0  0
  -21.0815   -8.8762   19.8946 H   0  0  0  0  0  0
  -22.3667  -10.9672   19.6188 H   0  0  0  0  0  0
  -21.1975   -7.6140   23.9700 H   0  0  0  0  0  0
  -21.1477   -6.0520   25.9068 H   0  0  0  0  0  0
  -22.0599   -2.7606   23.2840 H   0  0  0  0  0  0
  -22.4038  -11.9912   22.4777 H   0  0  0  0  0  0
  -21.1053  -13.1299   22.2552 H   0  0  0  0  0  0
  -24.6917  -15.8496   20.5805 H   0  0  0  0  0  0
  -26.3171  -15.6186   20.1747 H   0  0  0  0  0  0
  -26.7151  -32.5518   23.1147 H   0  0  0  0  0  0
  -25.0151  -33.9747   25.0527 H   0  0  0  0  0  0
  -22.7021  -31.3039   21.4012 H   0  0  0  0  0  0
  -23.3747  -35.9627   23.3314 H   0  0  0  0  0  0
  -24.3575  -36.8912   22.2056 H   0  0  0  0  0  0
  -23.7256  -37.6501   23.6670 H   0  0  0  0  0  0
  -26.0544  -31.5870   20.5950 H   0  0  0  0  0  0
  -26.8289  -30.8796   21.9853 H   0  0  0  0  0  0
  -28.1148  -29.0692   21.1841 H   0  0  0  0  0  0
  -26.0722  -25.9518   19.0203 H   0  0  0  0  0  0
  -23.9951  -27.2943   19.0179 H   0  0  0  0  0  0
  -23.7388  -30.5943   19.4020 H   0  0  0  0  0  0
  -22.7509  -29.2391   19.8622 H   0  0  0  0  0  0
  -25.1306  -36.1952   25.0840 H   0  0  0  0  0  0
  -20.9953  -28.3293   24.1419 H   0  0  0  0  0  0
  -20.5702  -26.2311   23.3612 H   0  0  0  0  0  0
  -21.6633  -26.7496   22.1191 H   0  0  0  0  0  0
  -19.6911  -25.6320   21.1247 H   0  0  0  0  0  0
  -19.6696  -27.3227   20.6751 H   0  0  0  0  0  0
  -17.4196  -26.6729   21.4000 H   0  0  0  0  0  0
  -18.0281  -26.0083   22.8997 H   0  0  0  0  0  0
  -19.7926  -30.7262   24.2323 H   0  0  0  0  0  0
  -17.5018  -31.6296   24.5165 H   0  0  0  0  0  0
  -15.5352  -30.3039   23.7665 H   0  0  0  0  0  0
  -15.8643  -28.0863   22.7097 H   0  0  0  0  0  0
  -24.5909  -30.7117   25.7784 H   0  0  0  0  0  0
  -24.9089  -32.2850   26.5014 H   0  0  0  0  0  0
  -25.8148  -30.8738   27.0168 H   0  0  0  0  0  0
  -26.2882  -29.6691   24.1277 H   0  0  0  0  0  0
  -27.4223  -29.7305   25.4568 H   0  0  0  0  0  0
  -27.8674  -30.4283   23.9193 H   0  0  0  0  0  0
  -27.2840  -33.3617   26.1953 H   0  0  0  0  0  0
  -28.3981  -32.6676   25.0273 H   0  0  0  0  0  0
  -28.0738  -31.8391   26.5404 H   0  0  0  0  0  0
  -28.2671  -38.0019   24.7383 H   0  0  0  0  0  0
  -28.0955  -36.2544   24.6524 H   0  0  0  0  0  0
  -27.2240  -37.1741   25.8886 H   0  0  0  0  0  0
  -20.9310  -29.8765   21.6898 H   0  0  0  0  0  0
  -26.0196  -38.2855   24.1291 H   0  0  0  0  0  0
  -30.5196  -16.7253   17.2660 H   0  0  0  0  0  0
  -29.3235  -17.8879   17.8195 H   0  0  0  0  0  0
  -31.1944  -18.7083   19.0649 H   0  0  0  0  0  0
  -31.9717  -17.1449   19.0203 H   0  0  0  0  0  0
  -29.2464  -15.1162   18.2866 H   0  0  0  0  0  0
  -28.2187  -16.2937   19.0415 H   0  0  0  0  0  0
  -31.1914  -17.1673   21.2717 H   0  0  0  0  0  0
  -27.7814  -20.3869   20.4359 H   0  0  0  0  0  0
  -28.1519  -20.5840   22.1240 H   0  0  0  0  0  0
  -28.9329  -17.9608   21.9688 H   0  0  0  0  0  0
  -28.4331  -18.1579   20.3194 H   0  0  0  0  0  0
  -29.0591  -25.9328   21.9601 H   0  0  0  0  0  0
  -27.3624  -25.5648   21.6909 H   0  0  0  0  0  0
  -30.3504  -19.8599   21.7484 H   0  0  0  0  0  0
  -30.1725  -19.9140   20.1348 H   0  0  0  0  0  0
  1 25  1  0  0  0
  1 30  2  0  0  0
  1 83  1  0  0  0
  2  3  1  0  0  0
  2 25  1  0  0  0
  2 85  1  0  0  0
  2 86  1  0  0  0
  3  4  1  0  0  0
  3 87  1  0  0  0
  3 88  1  0  0  0
  4  5  1  0  0  0
  4 89  1  0  0  0
  4 90  1  0  0  0
  5  6  1  0  0  0
  5 26  1  0  0  0
  5 91  1  0  0  0
  6 25  1  0  0  0
  6 92  1  0  0  0
  6 93  1  0  0  0
  7  8  2  0  0  0
  7 26  1  0  0  0
  7 29  1  0  0  0
  8  9  1  0  0  0
  8 22  1  0  0  0
  9 10  1  0  0  0
  9 27  2  0  0  0
 10 11  2  0  0  0
 10 15  1  0  0  0
 11 12  1  0  0  0
 11 94  1  0  0  0
 12 13  2  0  0  0
 12 95  1  0  0  0
 13 14  1  0  0  0
 13 31  1  0  0  0
 14 15  2  0  0  0
 14 96  1  0  0  0
 15 97  1  0  0  0
 16 17  2  0  0  0
 16 21  1  0  0  0
 16 31  1  0  0  0
 17 18  1  0  0  0
 17 98  1  0  0  0
 18 19  2  0  0  0
 18 99  1  0  0  0
 19 20  1  0  0  0
 19 24  1  0  0  0
 20 21  2  0  0  0
 20100  1  0  0  0
 21 23  1  0  0  0
 22 28  1  0  0  0
 22 32  2  0  0  0
 26 27  1  0  0  0
 28101  1  0  0  0
 28102  1  0  0  0
 29103  1  0  0  0
 29104  1  0  0  0
 33 34  1  0  0  0
 33 66  1  0  0  0
 33 70  2  0  0  0
 34 36  1  0  0  0
 34 59  1  0  0  0
 34105  1  0  0  0
 35 44  2  0  0  0
 35 45  1  0  0  0
 35 68  1  0  0  0
 36 56  1  0  0  0
 36106  1  0  0  0
 37 39  1  0  0  0
 37 47  1  0  0  0
 37 66  1  0  0  0
 37107  1  0  0  0
 38 43  2  0  0  0
 38 46  1  0  0  0
 38 47  1  0  0  0
 39 64  1  0  0  0
 39 67  2  0  0  0
 40 52  1  0  0  0
 40 53  2  0  0  0
 40 58  1  0  0  0
 41108  1  0  0  0
 41109  1  0  0  0
 41110  1  0  0  0
 41 48  1  0  0  0
 42 43  1  0  0  0
 42 66  1  0  0  0
 42111  1  0  0  0
 42112  1  0  0  0
 43 44  1  0  0  0
 44113  1  0  0  0
 45 46  2  0  0  0
 45114  1  0  0  0
 46115  1  0  0  0
 47116  1  0  0  0
 47117  1  0  0  0
 48 56  1  0  0  0
 48 65  1  0  0  0
 48118  1  0  0  0
 49 50  1  0  0  0
 49 53  1  0  0  0
 49 64  1  0  0  0
 49119  1  0  0  0
 50 51  1  0  0  0
 50120  1  0  0  0
 50121  1  0  0  0
 51 52  1  0  0  0
 51122  1  0  0  0
 51123  1  0  0  0
 52124  1  0  0  0
 52125  1  0  0  0
 53 54  1  0  0  0
 54 55  2  0  0  0
 54126  1  0  0  0
 55 57  1  0  0  0
 55127  1  0  0  0
 56 69  2  0  0  0
 57 58  2  0  0  0
 57128  1  0  0  0
 58129  1  0  0  0
 59 60  1  0  0  0
 59 61  1  0  0  0
 59 62  1  0  0  0
 60130  1  0  0  0
 60131  1  0  0  0
 60132  1  0  0  0
 61133  1  0  0  0
 61134  1  0  0  0
 61135  1  0  0  0
 62136  1  0  0  0
 62137  1  0  0  0
 62138  1  0  0  0
 63 65  1  0  0  0
 63139  1  0  0  0
 63140  1  0  0  0
 63141  1  0  0  0
 64142  1  0  0  0
 65143  1  0  0  0
 68 78  1  0  0  0
 71 76  1  0  0  0
 71 79  1  0  0  0
 71 80  2  0  0  0
 72 73  1  0  0  0
 72 74  1  0  0  0
 72144  1  0  0  0
 72145  1  0  0  0
 73 75  1  0  0  0
 73146  1  0  0  0
 73147  1  0  0  0
 74 83  1  0  0  0
 74148  1  0  0  0
 74149  1  0  0  0
 75 77  1  0  0  0
 75 83  1  0  0  0
 75150  1  0  0  0
 76 84  1  0  0  0
 76151  1  0  0  0
 76152  1  0  0  0
 77 84  1  0  0  0
 77153  1  0  0  0
 77154  1  0  0  0
 78 82  1  0  0  0
 78155  1  0  0  0
 78156  1  0  0  0
 79 81  2  0  0  0
 80 82  1  0  0  0
 81 82  1  0  0  0
 84157  1  0  0  0
 84158  1  0  0  0
M  CHG  1  84   1
M  ISO  4   1 100  68 101  78 101  83 100
M  END
> <chiral flag>
0

> <version>
0

> <s_m_source_file>
/data/baiqing/PycharmProjects/Reinvent-master-3.2/result/LINK_invent/BTK/process_docking_weight1_custom_sum_contain_oxygen_bond_distance_aromatic_linkinvent_7_9_3/rearranged_h_0193.sdf

> <i_m_source_file_index>
31

> <r_mmod_Potential_Energy-OPLS-2005>
23.7258682250977

> <r_mmod_Stretch_Energy-OPLS-2005>
60.9102210998535

> <r_mmod_Bend_Energy-OPLS-2005>
149.389770507812

> <r_mmod_Torsional_Energy-OPLS-2005>
399.900909423828

> <r_mmod_Improper_Torsional_Energy-OPLS-2005>
14.0956773757935

> <r_mmod_Van_der_Waal_Energy-OPLS-2005>
125.7001953125

> <r_mmod_Electrostatic_Energy-OPLS-2005>
-290.251007080078

> <r_mmod_Solvation_Energy-OPLS-2005>
-492.554412841797

> <b_mmod_Minimization_Converged-OPLS-2005>
0

> <r_mmod_RMS_Derivative-OPLS-2005>
1.96690797805786

$$$$
31
                    3D
 Structure written by MMmdl.
154163  0  0  1  0            999 V2000
  -30.6522  -14.6470   20.4991 C   0  0  0  0  0  0
  -30.4285  -12.4030   19.4492 C   0  0  0  0  0  0
  -29.5001  -12.5023   18.2203 C   0  0  0  0  0  0
  -28.0261  -12.3332   18.6371 C   0  0  0  0  0  0
  -27.6449  -13.2145   19.8555 C   0  0  2  0  0  0
  -28.6930  -13.1102   20.9853 C   0  0  0  0  0  0
  -25.2525  -13.8147   20.5691 C   0  0  0  0  0  0
  -24.1803  -13.0417   20.9211 C   0  0  0  0  0  0
  -24.6376  -11.6890   20.8757 C   0  0  0  0  0  0
  -23.9047  -10.4280   21.0416 C   0  0  0  0  0  0
  -24.3605   -9.4197   21.9190 C   0  0  0  0  0  0
  -23.6283   -8.2232   22.0754 C   0  0  0  0  0  0
  -22.4267   -8.0272   21.3543 C   0  0  0  0  0  0
  -21.9899   -9.0243   20.4648 C   0  0  0  0  0  0
  -22.7224  -10.2122   20.3063 C   0  0  0  0  0  0
  -21.6851   -6.0729   22.5278 C   0  0  0  0  0  0
  -21.4011   -6.5634   23.8212 C   0  0  0  0  0  0
  -21.3659   -5.6789   24.9175 C   0  0  0  0  0  0
  -21.6047   -4.3051   24.7228 C   0  0  0  0  0  0
  -21.8819   -3.8142   23.4349 C   0  0  0  0  0  0
  -21.9192   -4.6957   22.3404 C   0  0  0  0  0  0
  -22.7830  -13.5218   21.1867 C   0  0  0  0  0  0
  -22.1662   -4.2144   21.0981 F   0  0  0  0  0  0
  -21.5631   -3.4536   25.7742 F   0  0  0  0  0  0
  -30.0035  -13.4419   20.4086 N   0  0  0  0  0  0
  -26.2947  -12.9325   20.3309 N   0  0  0  0  0  0
  -25.9303  -11.6485   20.5775 N   0  0  0  0  0  0
  -22.0470  -12.8217   22.0423 N   0  0  0  0  0  0
  -25.4206  -15.1863   20.4068 N   0  0  0  0  0  0
  -31.8286  -14.7642   20.1472 O   0  0  0  0  0  0
  -21.6634   -6.8869   21.4239 O   0  0  0  0  0  0
  -22.3527  -14.5529   20.6712 O   0  0  0  0  0  0
  -24.6247  -31.8601   23.2020 C   0  0  0  0  0  0
  -25.9097  -32.4781   23.8350 C   0  0  1  0  0  0
  -27.2284  -27.3354   20.1216 C   0  0  0  0  0  0
  -25.5917  -33.8581   24.2282 N   0  0  0  0  0  0
  -23.4191  -30.4818   21.5439 C   0  0  2  0  0  0
  -24.8689  -28.9359   20.1115 C   0  0  0  0  0  0
  -22.7470  -29.4624   22.4939 C   0  0  0  0  0  0
  -18.0288  -28.1381   22.8489 C   0  0  0  0  0  0
  -24.1491  -36.7297   23.2641 C   0  0  0  0  0  0
  -25.9579  -30.7961   21.3707 C   0  0  0  0  0  0
  -26.0360  -29.4237   20.7152 C   0  0  0  0  0  0
  -27.2233  -28.6349   20.7102 C   0  0  0  0  0  0
  -26.0448  -26.8914   19.4978 C   0  0  0  0  0  0
  -24.8738  -27.6741   19.4934 C   0  0  0  0  0  0
  -23.6343  -29.8134   20.1601 C   0  0  0  0  0  0
  -25.4116  -36.3087   24.0332 C   0  0  1  0  0  0
  -20.5885  -28.3686   23.1287 C   0  0  2  0  0  0
  -20.6776  -26.9410   22.5413 C   0  0  0  0  0  0
  -19.5753  -26.6382   21.5213 C   0  0  0  0  0  0
  -18.1932  -26.7925   22.1625 C   0  0  0  0  0  0
  -19.1538  -28.8850   23.2883 C   0  0  0  0  0  0
  -18.9461  -30.1453   23.8898 C   0  0  0  0  0  0
  -17.6462  -30.6585   24.0561 C   0  0  0  0  0  0
  -25.9048  -34.9454   23.5108 C   0  0  0  0  0  0
  -16.5354  -29.9082   23.6329 C   0  0  0  0  0  0
  -16.7276  -28.6499   23.0352 C   0  0  0  0  0  0
  -26.4488  -31.6584   25.0712 C   0  0  0  0  0  0
  -25.3727  -31.3715   26.1442 C   0  0  0  0  0  0
  -27.0329  -30.3012   24.6150 C   0  0  0  0  0  0
  -27.6052  -32.4314   25.7480 C   0  0  0  0  0  0
  -27.5579  -37.1808   24.8468 C   0  0  0  0  0  0
  -21.4185  -29.3037   22.3680 N   0  0  0  0  0  0
  -26.4299  -37.3775   23.9401 N   0  0  0  0  0  0
  -24.6858  -31.0622   22.0962 N   0  0  0  0  0  0
  -23.4197  -28.8168   23.3021 O   0  0  0  0  0  0
  -28.3223  -26.4666   20.1448 O   0  0  0  0  0  0
  -26.5617  -34.8920   22.4674 O   0  0  0  0  0  0
  -23.5413  -32.1393   23.7356 O   0  0  0  0  0  0
  -28.7225  -22.3569   19.0015 C   0  0  0  0  0  0
  -29.1996  -22.8841   21.0457 C   0  0  0  0  0  0
  -29.3109  -21.8027   20.1833 C   0  0  0  0  0  0
  -30.4246  -17.0261   21.5169 C   0  0  0  0  0  0
  -28.9424  -16.5374   20.1485 C   0  0  0  0  0  0
  -29.8477  -17.7806   20.2997 C   0  0  0  0  0  0
  -30.0108  -20.4002   20.3606 C   0  0  0  0  0  0
  -28.1593  -25.2993   20.9830 C   0  0  0  0  0  0
  -28.2893  -23.6178   19.1364 N   0  0  0  0  0  0
  -28.5987  -23.9818   20.4028 N   0  0  0  0  0  0
  -29.9351  -15.7447   20.9222 N   0  0  0  0  0  0
  -29.1716  -19.1447   20.4638 N   0  3  0  0  0  0
  -31.4698  -12.5191   19.1440 H   0  0  0  0  0  0
  -30.3596  -11.4150   19.9068 H   0  0  0  0  0  0
  -29.7675  -11.7453   17.4821 H   0  0  0  0  0  0
  -29.6357  -13.4684   17.7313 H   0  0  0  0  0  0
  -27.8712  -11.2813   18.8798 H   0  0  0  0  0  0
  -27.3675  -12.5495   17.7951 H   0  0  0  0  0  0
  -27.6454  -14.2389   19.4912 H   0  0  0  0  0  0
  -28.7101  -12.1038   21.4062 H   0  0  0  0  0  0
  -28.4389  -13.7794   21.8090 H   0  0  0  0  0  0
  -25.2748   -9.5676   22.4763 H   0  0  0  0  0  0
  -23.9996   -7.4622   22.7468 H   0  0  0  0  0  0
  -21.0832   -8.8755   19.8952 H   0  0  0  0  0  0
  -22.3680  -10.9659   19.6174 H   0  0  0  0  0  0
  -21.2000   -7.6143   23.9714 H   0  0  0  0  0  0
  -21.1483   -6.0520   25.9077 H   0  0  0  0  0  0
  -22.0600   -2.7605   23.2852 H   0  0  0  0  0  0
  -22.4077  -11.9873   22.4810 H   0  0  0  0  0  0
  -21.1091  -13.1252   22.2630 H   0  0  0  0  0  0
  -24.6488  -15.8373   20.5039 H   0  0  0  0  0  0
  -26.2617  -15.6164   20.0485 H   0  0  0  0  0  0
  -26.7165  -32.5461   23.1101 H   0  0  0  0  0  0
  -25.0060  -33.9727   25.0423 H   0  0  0  0  0  0
  -22.7123  -31.3015   21.3993 H   0  0  0  0  0  0
  -23.3745  -35.9639   23.3323 H   0  0  0  0  0  0
  -24.3580  -36.8894   22.2051 H   0  0  0  0  0  0
  -23.7257  -37.6512   23.6648 H   0  0  0  0  0  0
  -26.0861  -31.5594   20.6021 H   0  0  0  0  0  0
  -26.8394  -30.8470   21.9986 H   0  0  0  0  0  0
  -28.1203  -29.0031   21.1877 H   0  0  0  0  0  0
  -26.0252  -25.9168   19.0294 H   0  0  0  0  0  0
  -23.9797  -27.2938   19.0189 H   0  0  0  0  0  0
  -23.7504  -30.5883   19.4014 H   0  0  0  0  0  0
  -22.7557  -29.2396   19.8599 H   0  0  0  0  0  0
  -25.1299  -36.1946   25.0826 H   0  0  0  0  0  0
  -20.9981  -28.3259   24.1407 H   0  0  0  0  0  0
  -20.5682  -26.2292   23.3610 H   0  0  0  0  0  0
  -21.6645  -26.7440   22.1201 H   0  0  0  0  0  0
  -19.6913  -25.6294   21.1241 H   0  0  0  0  0  0
  -19.6690  -27.3194   20.6745 H   0  0  0  0  0  0
  -17.4202  -26.6674   21.4027 H   0  0  0  0  0  0
  -18.0330  -26.0065   22.9021 H   0  0  0  0  0  0
  -19.7937  -30.7270   24.2266 H   0  0  0  0  0  0
  -17.5016  -31.6265   24.5159 H   0  0  0  0  0  0
  -15.5353  -30.2983   23.7652 H   0  0  0  0  0  0
  -15.8675  -28.0819   22.7065 H   0  0  0  0  0  0
  -24.5899  -30.7071   25.7765 H   0  0  0  0  0  0
  -24.8923  -32.2879   26.4878 H   0  0  0  0  0  0
  -25.8053  -30.8879   27.0209 H   0  0  0  0  0  0
  -26.2894  -29.6762   24.1188 H   0  0  0  0  0  0
  -27.4051  -29.7266   25.4642 H   0  0  0  0  0  0
  -27.8753  -30.4306   23.9351 H   0  0  0  0  0  0
  -27.2667  -33.3613   26.2062 H   0  0  0  0  0  0
  -28.3857  -32.6876   25.0303 H   0  0  0  0  0  0
  -28.0725  -31.8435   26.5391 H   0  0  0  0  0  0
  -28.2612  -38.0089   24.7492 H   0  0  0  0  0  0
  -28.1061  -36.2619   24.6328 H   0  0  0  0  0  0
  -27.2292  -37.1496   25.8872 H   0  0  0  0  0  0
  -20.9363  -29.8754   21.6886 H   0  0  0  0  0  0
  -26.0185  -38.2858   24.1378 H   0  0  0  0  0  0
  -28.6079  -21.8820   18.0367 H   0  0  0  0  0  0
  -29.5086  -22.9680   22.0789 H   0  0  0  0  0  0
  -29.9413  -17.2712   22.4645 H   0  0  0  0  0  0
  -31.5094  -17.1104   21.6033 H   0  0  0  0  0  0
  -28.8144  -16.2300   19.1091 H   0  0  0  0  0  0
  -27.9788  -16.6249   20.6531 H   0  0  0  0  0  0
  -30.5705  -17.8113   19.4815 H   0  0  0  0  0  0
  -30.6584  -20.4153   21.2378 H   0  0  0  0  0  0
  -30.6932  -20.2469   19.5239 H   0  0  0  0  0  0
  -28.7481  -25.4699   21.8851 H   0  0  0  0  0  0
  -27.1240  -25.1760   21.3075 H   0  0  0  0  0  0
  -28.6600  -19.1737   21.3300 H   0  0  0  0  0  0
  -28.4895  -19.2150   19.7278 H   0  0  0  0  0  0
  1 25  1  0  0  0
  1 30  2  0  0  0
  1 81  1  0  0  0
  2  3  1  0  0  0
  2 25  1  0  0  0
  2 83  1  0  0  0
  2 84  1  0  0  0
  3  4  1  0  0  0
  3 85  1  0  0  0
  3 86  1  0  0  0
  4  5  1  0  0  0
  4 87  1  0  0  0
  4 88  1  0  0  0
  5  6  1  0  0  0
  5 26  1  0  0  0
  5 89  1  0  0  0
  6 25  1  0  0  0
  6 90  1  0  0  0
  6 91  1  0  0  0
  7  8  2  0  0  0
  7 26  1  0  0  0
  7 29  1  0  0  0
  8  9  1  0  0  0
  8 22  1  0  0  0
  9 10  1  0  0  0
  9 27  2  0  0  0
 10 11  2  0  0  0
 10 15  1  0  0  0
 11 12  1  0  0  0
 11 92  1  0  0  0
 12 13  2  0  0  0
 12 93  1  0  0  0
 13 14  1  0  0  0
 13 31  1  0  0  0
 14 15  2  0  0  0
 14 94  1  0  0  0
 15 95  1  0  0  0
 16 17  2  0  0  0
 16 21  1  0  0  0
 16 31  1  0  0  0
 17 18  1  0  0  0
 17 96  1  0  0  0
 18 19  2  0  0  0
 18 97  1  0  0  0
 19 20  1  0  0  0
 19 24  1  0  0  0
 20 21  2  0  0  0
 20 98  1  0  0  0
 21 23  1  0  0  0
 22 28  1  0  0  0
 22 32  2  0  0  0
 26 27  1  0  0  0
 28 99  1  0  0  0
 28100  1  0  0  0
 29101  1  0  0  0
 29102  1  0  0  0
 33 34  1  0  0  0
 33 66  1  0  0  0
 33 70  2  0  0  0
 34 36  1  0  0  0
 34 59  1  0  0  0
 34103  1  0  0  0
 35 44  2  0  0  0
 35 45  1  0  0  0
 35 68  1  0  0  0
 36 56  1  0  0  0
 36104  1  0  0  0
 37 39  1  0  0  0
 37 47  1  0  0  0
 37 66  1  0  0  0
 37105  1  0  0  0
 38 43  2  0  0  0
 38 46  1  0  0  0
 38 47  1  0  0  0
 39 64  1  0  0  0
 39 67  2  0  0  0
 40 52  1  0  0  0
 40 53  2  0  0  0
 40 58  1  0  0  0
 41106  1  0  0  0
 41107  1  0  0  0
 41108  1  0  0  0
 41 48  1  0  0  0
 42 43  1  0  0  0
 42 66  1  0  0  0
 42109  1  0  0  0
 42110  1  0  0  0
 43 44  1  0  0  0
 44111  1  0  0  0
 45 46  2  0  0  0
 45112  1  0  0  0
 46113  1  0  0  0
 47114  1  0  0  0
 47115  1  0  0  0
 48 56  1  0  0  0
 48 65  1  0  0  0
 48116  1  0  0  0
 49 50  1  0  0  0
 49 53  1  0  0  0
 49 64  1  0  0  0
 49117  1  0  0  0
 50 51  1  0  0  0
 50118  1  0  0  0
 50119  1  0  0  0
 51 52  1  0  0  0
 51120  1  0  0  0
 51121  1  0  0  0
 52122  1  0  0  0
 52123  1  0  0  0
 53 54  1  0  0  0
 54 55  2  0  0  0
 54124  1  0  0  0
 55 57  1  0  0  0
 55125  1  0  0  0
 56 69  2  0  0  0
 57 58  2  0  0  0
 57126  1  0  0  0
 58127  1  0  0  0
 59 60  1  0  0  0
 59 61  1  0  0  0
 59 62  1  0  0  0
 60128  1  0  0  0
 60129  1  0  0  0
 60130  1  0  0  0
 61131  1  0  0  0
 61132  1  0  0  0
 61133  1  0  0  0
 62134  1  0  0  0
 62135  1  0  0  0
 62136  1  0  0  0
 63 65  1  0  0  0
 63137  1  0  0  0
 63138  1  0  0  0
 63139  1  0  0  0
 64140  1  0  0  0
 65141  1  0  0  0
 68 78  1  0  0  0
 71 73  1  0  0  0
 71 79  2  0  0  0
 71142  1  0  0  0
 72 73  2  0  0  0
 72 80  1  0  0  0
 72143  1  0  0  0
 73 77  1  0  0  0
 74 76  1  0  0  0
 74 81  1  0  0  0
 74144  1  0  0  0
 74145  1  0  0  0
 75 76  1  0  0  0
 75 81  1  0  0  0
 75146  1  0  0  0
 75147  1  0  0  0
 76 82  1  0  0  0
 76148  1  0  0  0
 77 82  1  0  0  0
 77149  1  0  0  0
 77150  1  0  0  0
 78 80  1  0  0  0
 78151  1  0  0  0
 78152  1  0  0  0
 79 80  1  0  0  0
 82153  1  0  0  0
 82154  1  0  0  0
M  CHG  1  82   1
M  ISO  4   1 100  68 101  78 101  81 100
M  END
> <chiral flag>
0

> <version>
0

> <s_m_source_file>
/data/baiqing/PycharmProjects/Reinvent-master-3.2/result/LINK_invent/BTK/process_docking_weight1_custom_sum_contain_oxygen_bond_distance_aromatic_linkinvent_7_9_3/rearranged_h_0193.sdf

> <i_m_source_file_index>
32

> <r_mmod_Potential_Energy-OPLS-2005>
-84.5370941162109

> <r_mmod_Stretch_Energy-OPLS-2005>
74.5477523803711

> <r_mmod_Bend_Energy-OPLS-2005>
146.809036254883

> <r_mmod_Torsional_Energy-OPLS-2005>
314.881713867188

> <r_mmod_Improper_Torsional_Energy-OPLS-2005>
8.79840183258057

> <r_mmod_Van_der_Waal_Energy-OPLS-2005>
112.30347442627

> <r_mmod_Electrostatic_Energy-OPLS-2005>
-252.62890625

> <r_mmod_Solvation_Energy-OPLS-2005>
-538.660766601562

> <b_mmod_Minimization_Converged-OPLS-2005>
0

> <r_mmod_RMS_Derivative-OPLS-2005>
0.509734451770782

$$$$
32
                    3D
 Structure written by MMmdl.
163172  0  0  1  0            999 V2000
  -30.6971  -14.4759   20.4769 C   0  0  0  0  0  0
  -30.4143  -12.2811   19.4235 C   0  0  0  0  0  0
  -29.4890  -12.4702   18.2036 C   0  0  0  0  0  0
  -28.0085  -12.3427   18.6195 C   0  0  0  0  0  0
  -27.6513  -13.1926   19.8695 C   0  0  2  0  0  0
  -28.7038  -13.0279   20.9892 C   0  0  0  0  0  0
  -25.2580  -13.8113   20.5716 C   0  0  0  0  0  0
  -24.1820  -13.0410   20.9196 C   0  0  0  0  0  0
  -24.6361  -11.6874   20.8751 C   0  0  0  0  0  0
  -23.9033  -10.4275   21.0410 C   0  0  0  0  0  0
  -24.3605   -9.4195   21.9187 C   0  0  0  0  0  0
  -23.6294   -8.2223   22.0754 C   0  0  0  0  0  0
  -22.4278   -8.0263   21.3542 C   0  0  0  0  0  0
  -21.9902   -9.0231   20.4647 C   0  0  0  0  0  0
  -22.7212  -10.2119   20.3057 C   0  0  0  0  0  0
  -21.6851   -6.0733   22.5281 C   0  0  0  0  0  0
  -21.4010   -6.5640   23.8213 C   0  0  0  0  0  0
  -21.3656   -5.6793   24.9178 C   0  0  0  0  0  0
  -21.6045   -4.3054   24.7227 C   0  0  0  0  0  0
  -21.8823   -3.8147   23.4350 C   0  0  0  0  0  0
  -21.9196   -4.6964   22.3407 C   0  0  0  0  0  0
  -22.7848  -13.5228   21.1858 C   0  0  0  0  0  0
  -22.1662   -4.2143   21.0982 F   0  0  0  0  0  0
  -21.5636   -3.4543   25.7743 F   0  0  0  0  0  0
  -30.0282  -13.2959   20.4097 N   0  0  0  0  0  0
  -26.2983  -12.9243   20.3403 N   0  0  0  0  0  0
  -25.9282  -11.6427   20.5800 N   0  0  0  0  0  0
  -22.0493  -12.8221   22.0419 N   0  0  0  0  0  0
  -25.4317  -15.1834   20.4146 N   0  0  0  0  0  0
  -31.8981  -14.5919   20.2137 O   0  0  0  0  0  0
  -21.6642   -6.8864   21.4236 O   0  0  0  0  0  0
  -22.3541  -14.5543   20.6715 O   0  0  0  0  0  0
  -24.6117  -31.8693   23.2112 C   0  0  0  0  0  0
  -25.9015  -32.4828   23.8404 C   0  0  1  0  0  0
  -27.2384  -27.4626   20.1020 C   0  0  0  0  0  0
  -25.5885  -33.8630   24.2345 N   0  0  0  0  0  0
  -23.4001  -30.4919   21.5494 C   0  0  2  0  0  0
  -24.8484  -28.9557   20.1201 C   0  0  0  0  0  0
  -22.7394  -29.4679   22.5003 C   0  0  0  0  0  0
  -18.0265  -28.1395   22.8487 C   0  0  0  0  0  0
  -24.1483  -36.7322   23.2640 C   0  0  0  0  0  0
  -25.9241  -30.8440   21.3598 C   0  0  0  0  0  0
  -26.0051  -29.4775   20.7142 C   0  0  0  0  0  0
  -27.2058  -28.7379   20.7026 C   0  0  0  0  0  0
  -26.0706  -26.9445   19.5052 C   0  0  0  0  0  0
  -24.8742  -27.6858   19.5142 C   0  0  0  0  0  0
  -23.6088  -29.8186   20.1652 C   0  0  0  0  0  0
  -25.4102  -36.3122   24.0346 C   0  0  1  0  0  0
  -20.5852  -28.3685   23.1322 C   0  0  2  0  0  0
  -20.6769  -26.9421   22.5434 C   0  0  0  0  0  0
  -19.5755  -26.6404   21.5217 C   0  0  0  0  0  0
  -18.1921  -26.7946   22.1606 C   0  0  0  0  0  0
  -19.1510  -28.8849   23.2910 C   0  0  0  0  0  0
  -18.9445  -30.1453   23.8934 C   0  0  0  0  0  0
  -17.6450  -30.6600   24.0575 C   0  0  0  0  0  0
  -25.9027  -34.9481   23.5144 C   0  0  0  0  0  0
  -16.5339  -29.9106   23.6330 C   0  0  0  0  0  0
  -16.7258  -28.6524   23.0347 C   0  0  0  0  0  0
  -26.4453  -31.6595   25.0715 C   0  0  0  0  0  0
  -25.3732  -31.3669   26.1470 C   0  0  0  0  0  0
  -27.0281  -30.3045   24.6064 C   0  0  0  0  0  0
  -27.6047  -32.4306   25.7472 C   0  0  0  0  0  0
  -27.5582  -37.1813   24.8462 C   0  0  0  0  0  0
  -21.4126  -29.3048   22.3730 N   0  0  0  0  0  0
  -26.4291  -37.3801   23.9412 N   0  0  0  0  0  0
  -24.6632  -31.0811   22.1000 N   0  0  0  0  0  0
  -23.4176  -28.8227   23.3042 O   0  0  0  0  0  0
  -28.4064  -26.7457   20.0592 O   0  0  0  0  0  0
  -26.5585  -34.8926   22.4707 O   0  0  0  0  0  0
  -23.5317  -32.1430   23.7518 O   0  0  0  0  0  0
  -29.3134  -20.1024   21.0406 C   0  0  0  0  0  0
  -31.3173  -19.8530   21.8430 C   0  0  0  0  0  0
  -29.6981  -21.2599   21.6784 C   0  0  0  0  0  0
  -29.6923  -17.6827   19.2569 C   0  0  0  0  0  0
  -29.6623  -16.1655   19.1182 C   0  0  0  0  0  0
  -30.1582  -16.6965   21.3806 C   0  0  0  0  0  0
  -30.5359  -17.8973   20.5017 C   0  0  2  0  0  0
  -28.3785  -22.8014   23.1703 C   0  0  0  0  0  0
  -29.5420  -24.6517   20.4351 C   0  0  0  0  0  0
  -28.4402  -25.6111   20.9242 C   0  0  0  0  0  0
  -28.9770  -22.5794   21.7733 C   0  0  1  0  0  0
  -30.9843  -21.0925   22.1972 N   0  0  0  0  0  0
  -30.3908  -19.2174   21.1105 N   0  0  0  0  0  0
  -29.9074  -15.5756   20.4544 N   0  0  0  0  0  0
  -29.9516  -23.6353   21.4390 N   0  3  0  0  0  0
  -31.4611  -12.3639   19.1259 H   0  0  0  0  0  0
  -30.2967  -11.2803   19.8436 H   0  0  0  0  0  0
  -29.7224  -11.7301   17.4374 H   0  0  0  0  0  0
  -29.6650  -13.4453   17.7473 H   0  0  0  0  0  0
  -27.8154  -11.2891   18.8243 H   0  0  0  0  0  0
  -27.3588  -12.6095   17.7859 H   0  0  0  0  0  0
  -27.6613  -14.2276   19.5513 H   0  0  0  0  0  0
  -28.6747  -12.0170   21.3977 H   0  0  0  0  0  0
  -28.4913  -13.7019   21.8214 H   0  0  0  0  0  0
  -25.2747   -9.5693   22.4766 H   0  0  0  0  0  0
  -24.0013   -7.4620   22.7473 H   0  0  0  0  0  0
  -21.0833   -8.8742   19.8954 H   0  0  0  0  0  0
  -22.3656  -10.9667   19.6174 H   0  0  0  0  0  0
  -21.1992   -7.6144   23.9723 H   0  0  0  0  0  0
  -21.1472   -6.0518   25.9082 H   0  0  0  0  0  0
  -22.0606   -2.7611   23.2855 H   0  0  0  0  0  0
  -22.4106  -11.9855   22.4772 H   0  0  0  0  0  0
  -21.1111  -13.1236   22.2637 H   0  0  0  0  0  0
  -24.6701  -15.8409   20.5411 H   0  0  0  0  0  0
  -26.3004  -15.6283   20.1465 H   0  0  0  0  0  0
  -26.7093  -32.5548   23.1185 H   0  0  0  0  0  0
  -25.0040  -33.9804   25.0493 H   0  0  0  0  0  0
  -22.6883  -31.3077   21.4074 H   0  0  0  0  0  0
  -23.3743  -35.9658   23.3301 H   0  0  0  0  0  0
  -24.3577  -36.8932   22.2055 H   0  0  0  0  0  0
  -23.7227  -37.6529   23.6644 H   0  0  0  0  0  0
  -26.0275  -31.6068   20.5868 H   0  0  0  0  0  0
  -26.8159  -30.9051   21.9719 H   0  0  0  0  0  0
  -28.1025  -29.1410   21.1532 H   0  0  0  0  0  0
  -26.0887  -25.9751   19.0264 H   0  0  0  0  0  0
  -23.9856  -27.2786   19.0517 H   0  0  0  0  0  0
  -23.7167  -30.5909   19.4029 H   0  0  0  0  0  0
  -22.7352  -29.2350   19.8694 H   0  0  0  0  0  0
  -25.1278  -36.1996   25.0839 H   0  0  0  0  0  0
  -20.9937  -28.3255   24.1441 H   0  0  0  0  0  0
  -20.5672  -26.2294   23.3625 H   0  0  0  0  0  0
  -21.6645  -26.7473   22.1218 H   0  0  0  0  0  0
  -19.6922  -25.6319   21.1234 H   0  0  0  0  0  0
  -19.6703  -27.3231   20.6766 H   0  0  0  0  0  0
  -17.4206  -26.6720   21.3987 H   0  0  0  0  0  0
  -18.0294  -26.0079   22.8983 H   0  0  0  0  0  0
  -19.7929  -30.7255   24.2326 H   0  0  0  0  0  0
  -17.5010  -31.6282   24.5181 H   0  0  0  0  0  0
  -15.5346  -30.3025   23.7645 H   0  0  0  0  0  0
  -15.8653  -28.0862   22.7045 H   0  0  0  0  0  0
  -24.6014  -30.6868   25.7840 H   0  0  0  0  0  0
  -24.8782  -32.2788   26.4821 H   0  0  0  0  0  0
  -25.8132  -30.8973   27.0278 H   0  0  0  0  0  0
  -26.2815  -29.6815   24.1125 H   0  0  0  0  0  0
  -27.4070  -29.7263   25.4501 H   0  0  0  0  0  0
  -27.8636  -30.4377   23.9189 H   0  0  0  0  0  0
  -27.2689  -33.3605   26.2073 H   0  0  0  0  0  0
  -28.3846  -32.6863   25.0286 H   0  0  0  0  0  0
  -28.0726  -31.8402   26.5362 H   0  0  0  0  0  0
  -28.2606  -38.0107   24.7511 H   0  0  0  0  0  0
  -28.1078  -36.2639   24.6289 H   0  0  0  0  0  0
  -27.2301  -37.1465   25.8866 H   0  0  0  0  0  0
  -20.9295  -29.8751   21.6933 H   0  0  0  0  0  0
  -26.0186  -38.2883   24.1413 H   0  0  0  0  0  0
  -28.3949  -19.8792   20.5147 H   0  0  0  0  0  0
  -32.2785  -19.4157   22.0770 H   0  0  0  0  0  0
  -28.6696  -18.0338   19.3942 H   0  0  0  0  0  0
  -30.1061  -18.1841   18.3808 H   0  0  0  0  0  0
  -30.4285  -15.8606   18.4006 H   0  0  0  0  0  0
  -28.7100  -15.8530   18.6945 H   0  0  0  0  0  0
  -29.2398  -16.8959   21.9334 H   0  0  0  0  0  0
  -30.9389  -16.4797   22.1125 H   0  0  0  0  0  0
  -31.5848  -17.7875   20.2165 H   0  0  0  0  0  0
  -27.6492  -22.0251   23.4022 H   0  0  0  0  0  0
  -27.8696  -23.7618   23.2440 H   0  0  0  0  0  0
  -29.1465  -22.7710   23.9437 H   0  0  0  0  0  0
  -30.4301  -25.2362   20.1884 H   0  0  0  0  0  0
  -29.2320  -24.1641   19.5104 H   0  0  0  0  0  0
  -28.6545  -25.9602   21.9352 H   0  0  0  0  0  0
  -27.4810  -25.0912   20.9596 H   0  0  0  0  0  0
  -28.1684  -22.5914   21.0407 H   0  0  0  0  0  0
  -30.2854  -24.0612   22.2879 H   0  0  0  0  0  0
  -30.7343  -23.1140   21.0702 H   0  0  0  0  0  0
  1 25  1  0  0  0
  1 30  2  0  0  0
  1 84  1  0  0  0
  2  3  1  0  0  0
  2 25  1  0  0  0
  2 86  1  0  0  0
  2 87  1  0  0  0
  3  4  1  0  0  0
  3 88  1  0  0  0
  3 89  1  0  0  0
  4  5  1  0  0  0
  4 90  1  0  0  0
  4 91  1  0  0  0
  5  6  1  0  0  0
  5 26  1  0  0  0
  5 92  1  0  0  0
  6 25  1  0  0  0
  6 93  1  0  0  0
  6 94  1  0  0  0
  7  8  2  0  0  0
  7 26  1  0  0  0
  7 29  1  0  0  0
  8  9  1  0  0  0
  8 22  1  0  0  0
  9 10  1  0  0  0
  9 27  2  0  0  0
 10 11  2  0  0  0
 10 15  1  0  0  0
 11 12  1  0  0  0
 11 95  1  0  0  0
 12 13  2  0  0  0
 12 96  1  0  0  0
 13 14  1  0  0  0
 13 31  1  0  0  0
 14 15  2  0  0  0
 14 97  1  0  0  0
 15 98  1  0  0  0
 16 17  2  0  0  0
 16 21  1  0  0  0
 16 31  1  0  0  0
 17 18  1  0  0  0
 17 99  1  0  0  0
 18 19  2  0  0  0
 18100  1  0  0  0
 19 20  1  0  0  0
 19 24  1  0  0  0
 20 21  2  0  0  0
 20101  1  0  0  0
 21 23  1  0  0  0
 22 28  1  0  0  0
 22 32  2  0  0  0
 26 27  1  0  0  0
 28102  1  0  0  0
 28103  1  0  0  0
 29104  1  0  0  0
 29105  1  0  0  0
 33 34  1  0  0  0
 33 66  1  0  0  0
 33 70  2  0  0  0
 34 36  1  0  0  0
 34 59  1  0  0  0
 34106  1  0  0  0
 35 44  2  0  0  0
 35 45  1  0  0  0
 35 68  1  0  0  0
 36 56  1  0  0  0
 36107  1  0  0  0
 37 39  1  0  0  0
 37 47  1  0  0  0
 37 66  1  0  0  0
 37108  1  0  0  0
 38 43  2  0  0  0
 38 46  1  0  0  0
 38 47  1  0  0  0
 39 64  1  0  0  0
 39 67  2  0  0  0
 40 52  1  0  0  0
 40 53  2  0  0  0
 40 58  1  0  0  0
 41109  1  0  0  0
 41110  1  0  0  0
 41111  1  0  0  0
 41 48  1  0  0  0
 42 43  1  0  0  0
 42 66  1  0  0  0
 42112  1  0  0  0
 42113  1  0  0  0
 43 44  1  0  0  0
 44114  1  0  0  0
 45 46  2  0  0  0
 45115  1  0  0  0
 46116  1  0  0  0
 47117  1  0  0  0
 47118  1  0  0  0
 48 56  1  0  0  0
 48 65  1  0  0  0
 48119  1  0  0  0
 49 50  1  0  0  0
 49 53  1  0  0  0
 49 64  1  0  0  0
 49120  1  0  0  0
 50 51  1  0  0  0
 50121  1  0  0  0
 50122  1  0  0  0
 51 52  1  0  0  0
 51123  1  0  0  0
 51124  1  0  0  0
 52125  1  0  0  0
 52126  1  0  0  0
 53 54  1  0  0  0
 54 55  2  0  0  0
 54127  1  0  0  0
 55 57  1  0  0  0
 55128  1  0  0  0
 56 69  2  0  0  0
 57 58  2  0  0  0
 57129  1  0  0  0
 58130  1  0  0  0
 59 60  1  0  0  0
 59 61  1  0  0  0
 59 62  1  0  0  0
 60131  1  0  0  0
 60132  1  0  0  0
 60133  1  0  0  0
 61134  1  0  0  0
 61135  1  0  0  0
 61136  1  0  0  0
 62137  1  0  0  0
 62138  1  0  0  0
 62139  1  0  0  0
 63 65  1  0  0  0
 63140  1  0  0  0
 63141  1  0  0  0
 63142  1  0  0  0
 64143  1  0  0  0
 65144  1  0  0  0
 68 80  1  0  0  0
 71 73  2  0  0  0
 71 83  1  0  0  0
 71145  1  0  0  0
 72 82  2  0  0  0
 72 83  1  0  0  0
 72146  1  0  0  0
 73 81  1  0  0  0
 73 82  1  0  0  0
 74 75  1  0  0  0
 74 77  1  0  0  0
 74147  1  0  0  0
 74148  1  0  0  0
 75 84  1  0  0  0
 75149  1  0  0  0
 75150  1  0  0  0
 76 77  1  0  0  0
 76 84  1  0  0  0
 76151  1  0  0  0
 76152  1  0  0  0
 77 83  1  0  0  0
 77153  1  0  0  0
 78154  1  0  0  0
 78155  1  0  0  0
 78156  1  0  0  0
 78 81  1  0  0  0
 79 80  1  0  0  0
 79 85  1  0  0  0
 79157  1  0  0  0
 79158  1  0  0  0
 80159  1  0  0  0
 80160  1  0  0  0
 81 85  1  0  0  0
 81161  1  0  0  0
 85162  1  0  0  0
 85163  1  0  0  0
M  CHG  1  85   1
M  ISO  4   1 100  68 101  80 101  84 100
M  END
> <chiral flag>
0

> <version>
0

> <s_m_source_file>
/data/baiqing/PycharmProjects/Reinvent-master-3.2/result/LINK_invent/BTK/process_docking_weight1_custom_sum_contain_oxygen_bond_distance_aromatic_linkinvent_7_9_3/rearranged_h_0193.sdf

> <i_m_source_file_index>
33

> <r_mmod_Potential_Energy-OPLS-2005>
-8.46016693115234

> <r_mmod_Stretch_Energy-OPLS-2005>
33.3219413757324

> <r_mmod_Bend_Energy-OPLS-2005>
129.487915039062

> <r_mmod_Torsional_Energy-OPLS-2005>
386.780944824219

> <r_mmod_Improper_Torsional_Energy-OPLS-2005>
15.4813642501831

> <r_mmod_Van_der_Waal_Energy-OPLS-2005>
122.078002929688

> <r_mmod_Electrostatic_Energy-OPLS-2005>
-293.606536865234

> <r_mmod_Solvation_Energy-OPLS-2005>
-420.502655029297

> <b_mmod_Minimization_Converged-OPLS-2005>
0

> <r_mmod_RMS_Derivative-OPLS-2005>
1.78663980960846

$$$$
33
                    3D
 Structure written by MMmdl.
151159  0  0  1  0            999 V2000
  -30.6143  -14.8165   20.4409 C   0  0  0  0  0  0
  -30.4222  -12.5052   19.4771 C   0  0  0  0  0  0
  -29.5059  -12.5100   18.2355 C   0  0  0  0  0  0
  -28.0347  -12.3255   18.6531 C   0  0  0  0  0  0
  -27.6307  -13.2441   19.8390 C   0  0  2  0  0  0
  -28.6766  -13.2366   20.9725 C   0  0  0  0  0  0
  -25.2474  -13.8214   20.5713 C   0  0  0  0  0  0
  -24.1780  -13.0444   20.9228 C   0  0  0  0  0  0
  -24.6391  -11.6932   20.8763 C   0  0  0  0  0  0
  -23.9076  -10.4301   21.0410 C   0  0  0  0  0  0
  -24.3632   -9.4211   21.9184 C   0  0  0  0  0  0
  -23.6307   -8.2244   22.0751 C   0  0  0  0  0  0
  -22.4288   -8.0285   21.3544 C   0  0  0  0  0  0
  -21.9924   -9.0257   20.4645 C   0  0  0  0  0  0
  -22.7250  -10.2139   20.3054 C   0  0  0  0  0  0
  -21.6853   -6.0747   22.5285 C   0  0  0  0  0  0
  -21.4010   -6.5647   23.8218 C   0  0  0  0  0  0
  -21.3664   -5.6796   24.9179 C   0  0  0  0  0  0
  -21.6052   -4.3060   24.7225 C   0  0  0  0  0  0
  -21.8818   -3.8151   23.4344 C   0  0  0  0  0  0
  -21.9191   -4.6972   22.3404 C   0  0  0  0  0  0
  -22.7806  -13.5226   21.1890 C   0  0  0  0  0  0
  -22.1659   -4.2155   21.0980 F   0  0  0  0  0  0
  -21.5633   -3.4547   25.7735 F   0  0  0  0  0  0
  -29.9581  -13.6023   20.3638 N   0  0  0  0  0  0
  -26.2894  -12.9441   20.3260 N   0  0  0  0  0  0
  -25.9324  -11.6575   20.5758 N   0  0  0  0  0  0
  -22.0447  -12.8216   22.0442 N   0  0  0  0  0  0
  -25.4171  -15.1937   20.4152 N   0  0  0  0  0  0
  -31.8255  -14.8306   20.1988 O   0  0  0  0  0  0
  -21.6645   -6.8889   21.4246 O   0  0  0  0  0  0
  -22.3495  -14.5530   20.6732 O   0  0  0  0  0  0
  -24.6374  -31.8508   23.1946 C   0  0  0  0  0  0
  -25.9179  -32.4723   23.8317 C   0  0  1  0  0  0
  -27.2093  -27.2062   20.1464 C   0  0  0  0  0  0
  -25.5958  -33.8527   24.2243 N   0  0  0  0  0  0
  -23.4378  -30.4713   21.5378 C   0  0  2  0  0  0
  -24.8854  -28.9088   20.1112 C   0  0  0  0  0  0
  -22.7539  -29.4574   22.4874 C   0  0  0  0  0  0
  -18.0303  -28.1386   22.8476 C   0  0  0  0  0  0
  -24.1494  -36.7268   23.2642 C   0  0  0  0  0  0
  -25.9878  -30.7464   21.3825 C   0  0  0  0  0  0
  -26.0598  -29.3635   20.7268 C   0  0  0  0  0  0
  -27.2292  -28.5266   20.7285 C   0  0  0  0  0  0
  -26.0168  -26.8346   19.4940 C   0  0  0  0  0  0
  -24.8721  -27.6558   19.4798 C   0  0  0  0  0  0
  -23.6608  -29.8053   20.1547 C   0  0  0  0  0  0
  -25.4124  -36.3052   24.0323 C   0  0  1  0  0  0
  -20.5913  -28.3708   23.1250 C   0  0  2  0  0  0
  -20.6784  -26.9417   22.5403 C   0  0  0  0  0  0
  -19.5755  -26.6381   21.5209 C   0  0  0  0  0  0
  -18.1941  -26.7926   22.1622 C   0  0  0  0  0  0
  -19.1557  -28.8860   23.2860 C   0  0  0  0  0  0
  -18.9469  -30.1461   23.8879 C   0  0  0  0  0  0
  -17.6466  -30.6585   24.0558 C   0  0  0  0  0  0
  -25.9068  -34.9424   23.5090 C   0  0  0  0  0  0
  -16.5360  -29.9079   23.6327 C   0  0  0  0  0  0
  -16.7287  -28.6498   23.0350 C   0  0  0  0  0  0
  -26.4525  -31.6559   25.0726 C   0  0  0  0  0  0
  -25.3734  -31.3718   26.1434 C   0  0  0  0  0  0
  -27.0382  -30.2970   24.6254 C   0  0  0  0  0  0
  -27.6081  -32.4299   25.7492 C   0  0  0  0  0  0
  -27.5576  -37.1798   24.8469 C   0  0  0  0  0  0
  -21.4234  -29.3051   22.3628 N   0  0  0  0  0  0
  -26.4292  -37.3757   23.9408 N   0  0  0  0  0  0
  -24.7072  -31.0425   22.0939 N   0  0  0  0  0  0
  -23.4216  -28.8117   23.2999 O   0  0  0  0  0  0
  -28.2655  -26.2525   20.1609 O   0  0  0  0  0  0
  -26.5633  -34.8903   22.4654 O   0  0  0  0  0  0
  -23.5509  -32.1342   23.7211 O   0  0  0  0  0  0
  -28.9160  -20.7359   20.0299 C   0  0  0  0  0  0
  -30.4838  -17.3363   19.8150 C   0  0  0  0  0  0
  -29.0388  -16.8623   21.1832 C   0  0  0  0  0  0
  -29.1454  -18.0604   20.1572 C   0  0  0  0  0  0
  -28.6743  -22.1492   20.7887 C   0  0  0  0  0  0
  -27.9922  -24.9132   20.7759 C   0  0  0  0  0  0
  -29.9110  -16.0282   20.2932 N   0  0  0  0  0  0
  -29.1657  -19.5211   20.6864 N   0  0  0  0  0  0
  -28.6525  -23.5067   20.0190 N   0  3  0  0  0  0
  -28.8253  -20.7446   18.8009 O   0  0  0  0  0  0
  -31.4622  -12.6275   19.1703 H   0  0  0  0  0  0
  -30.3742  -11.5449   19.9929 H   0  0  0  0  0  0
  -29.8041  -11.7218   17.5437 H   0  0  0  0  0  0
  -29.6208  -13.4520   17.6965 H   0  0  0  0  0  0
  -27.9058  -11.2810   18.9358 H   0  0  0  0  0  0
  -27.3741  -12.4926   17.8015 H   0  0  0  0  0  0
  -27.6081  -14.2563   19.4355 H   0  0  0  0  0  0
  -28.7365  -12.2582   21.4518 H   0  0  0  0  0  0
  -28.4048  -13.9509   21.7506 H   0  0  0  0  0  0
  -25.2773   -9.5693   22.4773 H   0  0  0  0  0  0
  -24.0020   -7.4636   22.7471 H   0  0  0  0  0  0
  -21.0854   -8.8774   19.8954 H   0  0  0  0  0  0
  -22.3696  -10.9685   19.6174 H   0  0  0  0  0  0
  -21.1991   -7.6153   23.9729 H   0  0  0  0  0  0
  -21.1495   -6.0521   25.9088 H   0  0  0  0  0  0
  -22.0591   -2.7613   23.2837 H   0  0  0  0  0  0
  -22.4050  -11.9872   22.4834 H   0  0  0  0  0  0
  -21.1059  -13.1235   22.2635 H   0  0  0  0  0  0
  -24.6568  -15.8523   20.5426 H   0  0  0  0  0  0
  -26.2723  -15.6298   20.0964 H   0  0  0  0  0  0
  -26.7248  -32.5362   23.1050 H   0  0  0  0  0  0
  -25.0111  -33.9646   25.0394 H   0  0  0  0  0  0
  -22.7378  -31.2959   21.3880 H   0  0  0  0  0  0
  -23.3752  -35.9605   23.3300 H   0  0  0  0  0  0
  -24.3584  -36.8895   22.2058 H   0  0  0  0  0  0
  -23.7247  -37.6470   23.6667 H   0  0  0  0  0  0
  -26.1348  -31.5034   20.6121 H   0  0  0  0  0  0
  -26.8612  -30.7969   22.0204 H   0  0  0  0  0  0
  -28.1285  -28.8683   21.2211 H   0  0  0  0  0  0
  -25.9570  -25.8741   19.0025 H   0  0  0  0  0  0
  -23.9765  -27.3074   18.9846 H   0  0  0  0  0  0
  -23.7966  -30.5816   19.4010 H   0  0  0  0  0  0
  -22.7770  -29.2465   19.8436 H   0  0  0  0  0  0
  -25.1306  -36.1895   25.0815 H   0  0  0  0  0  0
  -21.0003  -28.3287   24.1371 H   0  0  0  0  0  0
  -20.5677  -26.2319   23.3614 H   0  0  0  0  0  0
  -21.6651  -26.7427   22.1202 H   0  0  0  0  0  0
  -19.6920  -25.6291   21.1243 H   0  0  0  0  0  0
  -19.6696  -27.3183   20.6729 H   0  0  0  0  0  0
  -17.4216  -26.6672   21.4029 H   0  0  0  0  0  0
  -18.0342  -26.0076   22.9022 H   0  0  0  0  0  0
  -19.7945  -30.7284   24.2245 H   0  0  0  0  0  0
  -17.5018  -31.6260   24.5162 H   0  0  0  0  0  0
  -15.5359  -30.2973   23.7654 H   0  0  0  0  0  0
  -15.8689  -28.0810   22.7064 H   0  0  0  0  0  0
  -24.5916  -30.7058   25.7755 H   0  0  0  0  0  0
  -24.8910  -32.2883   26.4847 H   0  0  0  0  0  0
  -25.8030  -30.8903   27.0227 H   0  0  0  0  0  0
  -26.2980  -29.6695   24.1275 H   0  0  0  0  0  0
  -27.4036  -29.7258   25.4799 H   0  0  0  0  0  0
  -27.8871  -30.4223   23.9529 H   0  0  0  0  0  0
  -27.2707  -33.3616   26.2047 H   0  0  0  0  0  0
  -28.3901  -32.6831   25.0318 H   0  0  0  0  0  0
  -28.0748  -31.8443   26.5424 H   0  0  0  0  0  0
  -28.2597  -38.0096   24.7507 H   0  0  0  0  0  0
  -28.1072  -36.2620   24.6305 H   0  0  0  0  0  0
  -27.2293  -37.1456   25.8875 H   0  0  0  0  0  0
  -20.9430  -29.8780   21.6828 H   0  0  0  0  0  0
  -26.0163  -38.2831   24.1400 H   0  0  0  0  0  0
  -31.3353  -17.6852   20.4034 H   0  0  0  0  0  0
  -30.7218  -17.3613   18.7507 H   0  0  0  0  0  0
  -28.0228  -16.4843   21.2979 H   0  0  0  0  0  0
  -29.4824  -17.0672   22.1611 H   0  0  0  0  0  0
  -28.4253  -17.9279   19.3464 H   0  0  0  0  0  0
  -29.4096  -22.2339   21.5874 H   0  0  0  0  0  0
  -27.7073  -22.0581   21.2835 H   0  0  0  0  0  0
  -28.4120  -24.9474   21.7807 H   0  0  0  0  0  0
  -26.9217  -24.7411   20.8907 H   0  0  0  0  0  0
  -29.2570  -19.6005   21.6914 H   0  0  0  0  0  0
  -28.1542  -23.3337   19.1625 H   0  0  0  0  0  0
  -29.6006  -23.6919   19.7428 H   0  0  0  0  0  0
  1 25  1  0  0  0
  1 30  2  0  0  0
  1 77  1  0  0  0
  2  3  1  0  0  0
  2 25  1  0  0  0
  2 81  1  0  0  0
  2 82  1  0  0  0
  3  4  1  0  0  0
  3 83  1  0  0  0
  3 84  1  0  0  0
  4  5  1  0  0  0
  4 85  1  0  0  0
  4 86  1  0  0  0
  5  6  1  0  0  0
  5 26  1  0  0  0
  5 87  1  0  0  0
  6 25  1  0  0  0
  6 88  1  0  0  0
  6 89  1  0  0  0
  7  8  2  0  0  0
  7 26  1  0  0  0
  7 29  1  0  0  0
  8  9  1  0  0  0
  8 22  1  0  0  0
  9 10  1  0  0  0
  9 27  2  0  0  0
 10 11  2  0  0  0
 10 15  1  0  0  0
 11 12  1  0  0  0
 11 90  1  0  0  0
 12 13  2  0  0  0
 12 91  1  0  0  0
 13 14  1  0  0  0
 13 31  1  0  0  0
 14 15  2  0  0  0
 14 92  1  0  0  0
 15 93  1  0  0  0
 16 17  2  0  0  0
 16 21  1  0  0  0
 16 31  1  0  0  0
 17 18  1  0  0  0
 17 94  1  0  0  0
 18 19  2  0  0  0
 18 95  1  0  0  0
 19 20  1  0  0  0
 19 24  1  0  0  0
 20 21  2  0  0  0
 20 96  1  0  0  0
 21 23  1  0  0  0
 22 28  1  0  0  0
 22 32  2  0  0  0
 26 27  1  0  0  0
 28 97  1  0  0  0
 28 98  1  0  0  0
 29 99  1  0  0  0
 29100  1  0  0  0
 33 34  1  0  0  0
 33 66  1  0  0  0
 33 70  2  0  0  0
 34 36  1  0  0  0
 34 59  1  0  0  0
 34101  1  0  0  0
 35 44  2  0  0  0
 35 45  1  0  0  0
 35 68  1  0  0  0
 36 56  1  0  0  0
 36102  1  0  0  0
 37 39  1  0  0  0
 37 47  1  0  0  0
 37 66  1  0  0  0
 37103  1  0  0  0
 38 43  2  0  0  0
 38 46  1  0  0  0
 38 47  1  0  0  0
 39 64  1  0  0  0
 39 67  2  0  0  0
 40 52  1  0  0  0
 40 53  2  0  0  0
 40 58  1  0  0  0
 41104  1  0  0  0
 41105  1  0  0  0
 41106  1  0  0  0
 41 48  1  0  0  0
 42 43  1  0  0  0
 42 66  1  0  0  0
 42107  1  0  0  0
 42108  1  0  0  0
 43 44  1  0  0  0
 44109  1  0  0  0
 45 46  2  0  0  0
 45110  1  0  0  0
 46111  1  0  0  0
 47112  1  0  0  0
 47113  1  0  0  0
 48 56  1  0  0  0
 48 65  1  0  0  0
 48114  1  0  0  0
 49 50  1  0  0  0
 49 53  1  0  0  0
 49 64  1  0  0  0
 49115  1  0  0  0
 50 51  1  0  0  0
 50116  1  0  0  0
 50117  1  0  0  0
 51 52  1  0  0  0
 51118  1  0  0  0
 51119  1  0  0  0
 52120  1  0  0  0
 52121  1  0  0  0
 53 54  1  0  0  0
 54 55  2  0  0  0
 54122  1  0  0  0
 55 57  1  0  0  0
 55123  1  0  0  0
 56 69  2  0  0  0
 57 58  2  0  0  0
 57124  1  0  0  0
 58125  1  0  0  0
 59 60  1  0  0  0
 59 61  1  0  0  0
 59 62  1  0  0  0
 60126  1  0  0  0
 60127  1  0  0  0
 60128  1  0  0  0
 61129  1  0  0  0
 61130  1  0  0  0
 61131  1  0  0  0
 62132  1  0  0  0
 62133  1  0  0  0
 62134  1  0  0  0
 63 65  1  0  0  0
 63135  1  0  0  0
 63136  1  0  0  0
 63137  1  0  0  0
 64138  1  0  0  0
 65139  1  0  0  0
 68 76  1  0  0  0
 71 75  1  0  0  0
 71 78  1  0  0  0
 71 80  2  0  0  0
 72 74  1  0  0  0
 72 77  1  0  0  0
 72140  1  0  0  0
 72141  1  0  0  0
 73 74  1  0  0  0
 73 77  1  0  0  0
 73142  1  0  0  0
 73143  1  0  0  0
 74 78  1  0  0  0
 74144  1  0  0  0
 75 79  1  0  0  0
 75145  1  0  0  0
 75146  1  0  0  0
 76 79  1  0  0  0
 76147  1  0  0  0
 76148  1  0  0  0
 78149  1  0  0  0
 79150  1  0  0  0
 79151  1  0  0  0
M  CHG  1  79   1
M  ISO  4   1 100  68 101  76 101  77 100
M  END
> <chiral flag>
0

> <version>
0

> <s_m_source_file>
/data/baiqing/PycharmProjects/Reinvent-master-3.2/result/LINK_invent/BTK/process_docking_weight1_custom_sum_contain_oxygen_bond_distance_aromatic_linkinvent_7_9_3/rearranged_h_0193.sdf

> <i_m_source_file_index>
34

> <r_mmod_Potential_Energy-OPLS-2005>
-60.0521926879883

> <r_mmod_Stretch_Energy-OPLS-2005>
161.633316040039

> <r_mmod_Bend_Energy-OPLS-2005>
212.092147827148

> <r_mmod_Torsional_Energy-OPLS-2005>
273.037200927734

> <r_mmod_Improper_Torsional_Energy-OPLS-2005>
20.886209487915

> <r_mmod_Van_der_Waal_Energy-OPLS-2005>
111.554290771484

> <r_mmod_Electrostatic_Energy-OPLS-2005>
-439.388732910156

> <r_mmod_Solvation_Energy-OPLS-2005>
-525.066467285156

> <b_mmod_Minimization_Converged-OPLS-2005>
0

> <r_mmod_RMS_Derivative-OPLS-2005>
1.57859921455383

$$$$
34
                    3D
 Structure written by MMmdl.
164173  0  0  1  0            999 V2000
  -30.7138  -14.4269   20.6096 C   0  0  0  0  0  0
  -30.4207  -12.2894   19.4168 C   0  0  0  0  0  0
  -29.4949  -12.5117   18.2026 C   0  0  0  0  0  0
  -28.0136  -12.3766   18.6098 C   0  0  0  0  0  0
  -27.6633  -13.2014   19.8773 C   0  0  2  0  0  0
  -28.6999  -12.9493   20.9928 C   0  0  0  0  0  0
  -25.2601  -13.8154   20.5683 C   0  0  0  0  0  0
  -24.1840  -13.0441   20.9164 C   0  0  0  0  0  0
  -24.6381  -11.6903   20.8722 C   0  0  0  0  0  0
  -23.9043  -10.4296   21.0398 C   0  0  0  0  0  0
  -24.3600   -9.4216   21.9178 C   0  0  0  0  0  0
  -23.6284   -8.2245   22.0751 C   0  0  0  0  0  0
  -22.4268   -8.0274   21.3543 C   0  0  0  0  0  0
  -21.9896   -9.0246   20.4649 C   0  0  0  0  0  0
  -22.7215  -10.2130   20.3054 C   0  0  0  0  0  0
  -21.6855   -6.0731   22.5283 C   0  0  0  0  0  0
  -21.4017   -6.5638   23.8218 C   0  0  0  0  0  0
  -21.3661   -5.6790   24.9179 C   0  0  0  0  0  0
  -21.6046   -4.3053   24.7225 C   0  0  0  0  0  0
  -21.8817   -3.8142   23.4346 C   0  0  0  0  0  0
  -21.9194   -4.6960   22.3403 C   0  0  0  0  0  0
  -22.7866  -13.5251   21.1830 C   0  0  0  0  0  0
  -22.1662   -4.2147   21.0980 F   0  0  0  0  0  0
  -21.5627   -3.4537   25.7738 F   0  0  0  0  0  0
  -30.0339  -13.2589   20.4528 N   0  0  0  0  0  0
  -26.3026  -12.9309   20.3363 N   0  0  0  0  0  0
  -25.9305  -11.6471   20.5750 N   0  0  0  0  0  0
  -22.0500  -12.8257   22.0392 N   0  0  0  0  0  0
  -25.4345  -15.1868   20.4118 N   0  0  0  0  0  0
  -31.8285  -14.6193   20.1089 O   0  0  0  0  0  0
  -21.6636   -6.8868   21.4242 O   0  0  0  0  0  0
  -22.3556  -14.5558   20.6680 O   0  0  0  0  0  0
  -24.6125  -31.8702   23.2117 C   0  0  0  0  0  0
  -25.9028  -32.4832   23.8405 C   0  0  1  0  0  0
  -27.2327  -27.4459   20.0929 C   0  0  0  0  0  0
  -25.5895  -33.8628   24.2338 N   0  0  0  0  0  0
  -23.3984  -30.4945   21.5525 C   0  0  2  0  0  0
  -24.8419  -28.9579   20.1214 C   0  0  0  0  0  0
  -22.7393  -29.4671   22.5005 C   0  0  0  0  0  0
  -18.0268  -28.1375   22.8494 C   0  0  0  0  0  0
  -24.1486  -36.7312   23.2639 C   0  0  0  0  0  0
  -25.9260  -30.8377   21.3636 C   0  0  0  0  0  0
  -26.0008  -29.4719   20.7142 C   0  0  0  0  0  0
  -27.1970  -28.7234   20.6951 C   0  0  0  0  0  0
  -26.0535  -26.9431   19.4950 C   0  0  0  0  0  0
  -24.8620  -27.6921   19.5120 C   0  0  0  0  0  0
  -23.6058  -29.8260   20.1673 C   0  0  0  0  0  0
  -25.4108  -36.3117   24.0342 C   0  0  1  0  0  0
  -20.5856  -28.3657   23.1326 C   0  0  2  0  0  0
  -20.6760  -26.9399   22.5418 C   0  0  0  0  0  0
  -19.5739  -26.6388   21.5211 C   0  0  0  0  0  0
  -18.1917  -26.7923   22.1624 C   0  0  0  0  0  0
  -19.1517  -28.8832   23.2909 C   0  0  0  0  0  0
  -18.9448  -30.1441   23.8917 C   0  0  0  0  0  0
  -17.6451  -30.6585   24.0565 C   0  0  0  0  0  0
  -25.9033  -34.9481   23.5136 C   0  0  0  0  0  0
  -16.5341  -29.9090   23.6323 C   0  0  0  0  0  0
  -16.7258  -28.6505   23.0346 C   0  0  0  0  0  0
  -26.4466  -31.6602   25.0723 C   0  0  0  0  0  0
  -25.3740  -31.3694   26.1477 C   0  0  0  0  0  0
  -27.0297  -30.3051   24.6079 C   0  0  0  0  0  0
  -27.6057  -32.4313   25.7472 C   0  0  0  0  0  0
  -27.5580  -37.1813   24.8470 C   0  0  0  0  0  0
  -21.4126  -29.3031   22.3737 N   0  0  0  0  0  0
  -26.4296  -37.3799   23.9407 N   0  0  0  0  0  0
  -24.6638  -31.0819   22.1010 N   0  0  0  0  0  0
  -23.4176  -28.8212   23.3037 O   0  0  0  0  0  0
  -28.4378  -26.7799   20.0549 O   0  0  0  0  0  0
  -26.5596  -34.8929   22.4698 O   0  0  0  0  0  0
  -23.5325  -32.1447   23.7525 O   0  0  0  0  0  0
  -31.8679  -23.8427   18.0584 C   0  0  0  0  0  0
  -31.3909  -25.1553   17.8695 C   0  0  0  0  0  0
  -30.1843  -23.4434   19.6028 C   0  0  0  0  0  0
  -29.7069  -24.7770   19.4181 C   0  0  0  0  0  0
  -29.6678  -17.2945   22.6181 C   0  0  0  0  0  0
  -29.9214  -15.7846   22.5118 C   0  0  0  0  0  0
  -29.9493  -16.7365   20.3340 C   0  0  0  0  0  0
  -30.2864  -17.8395   21.3392 C   0  0  1  0  0  0
  -29.5580  -22.4217   20.5558 C   0  0  0  0  0  0
  -28.4744  -25.3463   20.1238 C   0  0  0  0  0  0
  -29.8501  -19.2526   20.8940 C   0  0  0  0  0  0
  -30.2610  -20.3752   21.8767 C   0  0  0  0  0  0
  -31.2704  -22.9860   18.9211 N   0  0  0  0  0  0
  -30.3158  -25.6220   18.5441 N   0  0  0  0  0  0
  -29.9823  -15.4680   21.0759 N   0  0  0  0  0  0
  -30.6319  -21.6449   21.2100 N   0  3  0  0  0  0
  -31.4671  -12.3846   19.1209 H   0  0  0  0  0  0
  -30.3131  -11.2725   19.7981 H   0  0  0  0  0  0
  -29.7315  -11.7981   17.4120 H   0  0  0  0  0  0
  -29.6707  -13.5034   17.7825 H   0  0  0  0  0  0
  -27.8140  -11.3197   18.7896 H   0  0  0  0  0  0
  -27.3674  -12.6687   17.7809 H   0  0  0  0  0  0
  -27.7173  -14.2549   19.6013 H   0  0  0  0  0  0
  -28.6680  -11.9057   21.3094 H   0  0  0  0  0  0
  -28.4528  -13.5245   21.8816 H   0  0  0  0  0  0
  -25.2749   -9.5703   22.4746 H   0  0  0  0  0  0
  -24.0005   -7.4644   22.7472 H   0  0  0  0  0  0
  -21.0825   -8.8756   19.8961 H   0  0  0  0  0  0
  -22.3662  -10.9663   19.6161 H   0  0  0  0  0  0
  -21.2010   -7.6147   23.9719 H   0  0  0  0  0  0
  -21.1490   -6.0521   25.9083 H   0  0  0  0  0  0
  -22.0592   -2.7604   23.2849 H   0  0  0  0  0  0
  -22.4101  -11.9923   22.4805 H   0  0  0  0  0  0
  -21.1123  -13.1298   22.2586 H   0  0  0  0  0  0
  -24.6735  -15.8472   20.5283 H   0  0  0  0  0  0
  -26.3019  -15.6264   20.1298 H   0  0  0  0  0  0
  -26.7095  -32.5548   23.1168 H   0  0  0  0  0  0
  -25.0053  -33.9799   25.0489 H   0  0  0  0  0  0
  -22.6864  -31.3107   21.4142 H   0  0  0  0  0  0
  -23.3747  -35.9646   23.3324 H   0  0  0  0  0  0
  -24.3575  -36.8901   22.2048 H   0  0  0  0  0  0
  -23.7240  -37.6525   23.6636 H   0  0  0  0  0  0
  -26.0379  -31.6028   20.5940 H   0  0  0  0  0  0
  -26.8143  -30.8908   21.9809 H   0  0  0  0  0  0
  -28.0969  -29.1237   21.1412 H   0  0  0  0  0  0
  -26.0333  -25.9961   18.9782 H   0  0  0  0  0  0
  -23.9723  -27.2953   19.0426 H   0  0  0  0  0  0
  -23.7169  -30.6002   19.4076 H   0  0  0  0  0  0
  -22.7294  -29.2479   19.8700 H   0  0  0  0  0  0
  -25.1284  -36.1988   25.0836 H   0  0  0  0  0  0
  -20.9950  -28.3218   24.1446 H   0  0  0  0  0  0
  -20.5662  -26.2265   23.3599 H   0  0  0  0  0  0
  -21.6631  -26.7447   22.1208 H   0  0  0  0  0  0
  -19.6902  -25.6304   21.1226 H   0  0  0  0  0  0
  -19.6680  -27.3212   20.6751 H   0  0  0  0  0  0
  -17.4189  -26.6672   21.4025 H   0  0  0  0  0  0
  -18.0322  -26.0060   22.9015 H   0  0  0  0  0  0
  -19.7925  -30.7249   24.2297 H   0  0  0  0  0  0
  -17.5009  -31.6268   24.5163 H   0  0  0  0  0  0
  -15.5345  -30.3001   23.7635 H   0  0  0  0  0  0
  -15.8656  -28.0832   22.7052 H   0  0  0  0  0  0
  -24.5915  -30.7041   25.7805 H   0  0  0  0  0  0
  -24.8930  -32.2847   26.4942 H   0  0  0  0  0  0
  -25.8102  -30.8848   27.0223 H   0  0  0  0  0  0
  -26.2832  -29.6812   24.1151 H   0  0  0  0  0  0
  -27.4100  -29.7285   25.4521 H   0  0  0  0  0  0
  -27.8652  -30.4382   23.9202 H   0  0  0  0  0  0
  -27.2694  -33.3604   26.2085 H   0  0  0  0  0  0
  -28.3842  -32.6886   25.0275 H   0  0  0  0  0  0
  -28.0755  -31.8414   26.5354 H   0  0  0  0  0  0
  -28.2618  -38.0090   24.7504 H   0  0  0  0  0  0
  -28.1055  -36.2625   24.6316 H   0  0  0  0  0  0
  -27.2296  -37.1485   25.8874 H   0  0  0  0  0  0
  -20.9280  -29.8754   21.6963 H   0  0  0  0  0  0
  -26.0192  -38.2880   24.1402 H   0  0  0  0  0  0
  -32.7289  -23.4818   17.5153 H   0  0  0  0  0  0
  -31.8719  -25.8285   17.1739 H   0  0  0  0  0  0
  -30.0974  -17.7283   23.5229 H   0  0  0  0  0  0
  -28.5938  -17.4888   22.6315 H   0  0  0  0  0  0
  -29.1438  -15.2268   23.0319 H   0  0  0  0  0  0
  -30.8725  -15.5338   22.9863 H   0  0  0  0  0  0
  -28.9387  -16.8661   19.9433 H   0  0  0  0  0  0
  -30.6247  -16.7648   19.4762 H   0  0  0  0  0  0
  -31.3714  -17.8429   21.4664 H   0  0  0  0  0  0
  -28.9182  -21.7637   19.9667 H   0  0  0  0  0  0
  -28.9321  -22.8867   21.3157 H   0  0  0  0  0  0
  -28.5017  -25.0806   21.1802 H   0  0  0  0  0  0
  -27.6054  -24.8505   19.6979 H   0  0  0  0  0  0
  -28.7720  -19.2842   20.7304 H   0  0  0  0  0  0
  -30.3047  -19.4382   19.9198 H   0  0  0  0  0  0
  -31.1402  -20.0544   22.4372 H   0  0  0  0  0  0
  -29.4786  -20.5472   22.6180 H   0  0  0  0  0  0
  -31.0756  -22.2484   21.8826 H   0  0  0  0  0  0
  -31.3143  -21.4724   20.4872 H   0  0  0  0  0  0
  1 25  1  0  0  0
  1 30  2  0  0  0
  1 85  1  0  0  0
  2  3  1  0  0  0
  2 25  1  0  0  0
  2 87  1  0  0  0
  2 88  1  0  0  0
  3  4  1  0  0  0
  3 89  1  0  0  0
  3 90  1  0  0  0
  4  5  1  0  0  0
  4 91  1  0  0  0
  4 92  1  0  0  0
  5  6  1  0  0  0
  5 26  1  0  0  0
  5 93  1  0  0  0
  6 25  1  0  0  0
  6 94  1  0  0  0
  6 95  1  0  0  0
  7  8  2  0  0  0
  7 26  1  0  0  0
  7 29  1  0  0  0
  8  9  1  0  0  0
  8 22  1  0  0  0
  9 10  1  0  0  0
  9 27  2  0  0  0
 10 11  2  0  0  0
 10 15  1  0  0  0
 11 12  1  0  0  0
 11 96  1  0  0  0
 12 13  2  0  0  0
 12 97  1  0  0  0
 13 14  1  0  0  0
 13 31  1  0  0  0
 14 15  2  0  0  0
 14 98  1  0  0  0
 15 99  1  0  0  0
 16 17  2  0  0  0
 16 21  1  0  0  0
 16 31  1  0  0  0
 17 18  1  0  0  0
 17100  1  0  0  0
 18 19  2  0  0  0
 18101  1  0  0  0
 19 20  1  0  0  0
 19 24  1  0  0  0
 20 21  2  0  0  0
 20102  1  0  0  0
 21 23  1  0  0  0
 22 28  1  0  0  0
 22 32  2  0  0  0
 26 27  1  0  0  0
 28103  1  0  0  0
 28104  1  0  0  0
 29105  1  0  0  0
 29106  1  0  0  0
 33 34  1  0  0  0
 33 66  1  0  0  0
 33 70  2  0  0  0
 34 36  1  0  0  0
 34 59  1  0  0  0
 34107  1  0  0  0
 35 44  2  0  0  0
 35 45  1  0  0  0
 35 68  1  0  0  0
 36 56  1  0  0  0
 36108  1  0  0  0
 37 39  1  0  0  0
 37 47  1  0  0  0
 37 66  1  0  0  0
 37109  1  0  0  0
 38 43  2  0  0  0
 38 46  1  0  0  0
 38 47  1  0  0  0
 39 64  1  0  0  0
 39 67  2  0  0  0
 40 52  1  0  0  0
 40 53  2  0  0  0
 40 58  1  0  0  0
 41110  1  0  0  0
 41111  1  0  0  0
 41112  1  0  0  0
 41 48  1  0  0  0
 42 43  1  0  0  0
 42 66  1  0  0  0
 42113  1  0  0  0
 42114  1  0  0  0
 43 44  1  0  0  0
 44115  1  0  0  0
 45 46  2  0  0  0
 45116  1  0  0  0
 46117  1  0  0  0
 47118  1  0  0  0
 47119  1  0  0  0
 48 56  1  0  0  0
 48 65  1  0  0  0
 48120  1  0  0  0
 49 50  1  0  0  0
 49 53  1  0  0  0
 49 64  1  0  0  0
 49121  1  0  0  0
 50 51  1  0  0  0
 50122  1  0  0  0
 50123  1  0  0  0
 51 52  1  0  0  0
 51124  1  0  0  0
 51125  1  0  0  0
 52126  1  0  0  0
 52127  1  0  0  0
 53 54  1  0  0  0
 54 55  2  0  0  0
 54128  1  0  0  0
 55 57  1  0  0  0
 55129  1  0  0  0
 56 69  2  0  0  0
 57 58  2  0  0  0
 57130  1  0  0  0
 58131  1  0  0  0
 59 60  1  0  0  0
 59 61  1  0  0  0
 59 62  1  0  0  0
 60132  1  0  0  0
 60133  1  0  0  0
 60134  1  0  0  0
 61135  1  0  0  0
 61136  1  0  0  0
 61137  1  0  0  0
 62138  1  0  0  0
 62139  1  0  0  0
 62140  1  0  0  0
 63 65  1  0  0  0
 63141  1  0  0  0
 63142  1  0  0  0
 63143  1  0  0  0
 64144  1  0  0  0
 65145  1  0  0  0
 68 80  1  0  0  0
 71 72  2  0  0  0
 71 83  1  0  0  0
 71146  1  0  0  0
 72 84  1  0  0  0
 72147  1  0  0  0
 73 74  1  0  0  0
 73 79  1  0  0  0
 73 83  2  0  0  0
 74 80  1  0  0  0
 74 84  2  0  0  0
 75 76  1  0  0  0
 75 78  1  0  0  0
 75148  1  0  0  0
 75149  1  0  0  0
 76 85  1  0  0  0
 76150  1  0  0  0
 76151  1  0  0  0
 77 78  1  0  0  0
 77 85  1  0  0  0
 77152  1  0  0  0
 77153  1  0  0  0
 78 81  1  0  0  0
 78154  1  0  0  0
 79 86  1  0  0  0
 79155  1  0  0  0
 79156  1  0  0  0
 80157  1  0  0  0
 80158  1  0  0  0
 81 82  1  0  0  0
 81159  1  0  0  0
 81160  1  0  0  0
 82 86  1  0  0  0
 82161  1  0  0  0
 82162  1  0  0  0
 86163  1  0  0  0
 86164  1  0  0  0
M  CHG  1  86   1
M  ISO  4   1 100  68 101  80 101  85 100
M  END
> <chiral flag>
0

> <version>
0

> <s_m_source_file>
/data/baiqing/PycharmProjects/Reinvent-master-3.2/result/LINK_invent/BTK/process_docking_weight1_custom_sum_contain_oxygen_bond_distance_aromatic_linkinvent_7_9_3/rearranged_h_0193.sdf

> <i_m_source_file_index>
35

> <r_mmod_Potential_Energy-OPLS-2005>
46.7202796936035

> <r_mmod_Stretch_Energy-OPLS-2005>
38.8352737426758

> <r_mmod_Bend_Energy-OPLS-2005>
132.109924316406

> <r_mmod_Torsional_Energy-OPLS-2005>
335.726593017578

> <r_mmod_Improper_Torsional_Energy-OPLS-2005>
10.7350692749023

> <r_mmod_Van_der_Waal_Energy-OPLS-2005>
161.472732543945

> <r_mmod_Electrostatic_Energy-OPLS-2005>
-167.122573852539

> <r_mmod_Solvation_Energy-OPLS-2005>
-474.603576660156

> <b_mmod_Minimization_Converged-OPLS-2005>
0

> <r_mmod_RMS_Derivative-OPLS-2005>
0.928419828414917

$$$$
35
                    3D
 Structure written by MMmdl.
163172  0  0  1  0            999 V2000
  -30.6679  -14.6511   20.5015 C   0  0  0  0  0  0
  -30.4241  -12.4069   19.4527 C   0  0  0  0  0  0
  -29.4981  -12.4964   18.2218 C   0  0  0  0  0  0
  -28.0246  -12.3349   18.6410 C   0  0  0  0  0  0
  -27.6449  -13.2262   19.8539 C   0  0  2  0  0  0
  -28.6920  -13.1296   20.9847 C   0  0  0  0  0  0
  -25.2527  -13.8191   20.5702 C   0  0  0  0  0  0
  -24.1806  -13.0443   20.9202 C   0  0  0  0  0  0
  -24.6388  -11.6916   20.8754 C   0  0  0  0  0  0
  -23.9065  -10.4295   21.0413 C   0  0  0  0  0  0
  -24.3614   -9.4211   21.9188 C   0  0  0  0  0  0
  -23.6295   -8.2243   22.0753 C   0  0  0  0  0  0
  -22.4279   -8.0279   21.3541 C   0  0  0  0  0  0
  -21.9914   -9.0253   20.4646 C   0  0  0  0  0  0
  -22.7240  -10.2136   20.3062 C   0  0  0  0  0  0
  -21.6854   -6.0738   22.5282 C   0  0  0  0  0  0
  -21.4010   -6.5644   23.8214 C   0  0  0  0  0  0
  -21.3655   -5.6795   24.9176 C   0  0  0  0  0  0
  -21.6044   -4.3058   24.7227 C   0  0  0  0  0  0
  -21.8819   -3.8152   23.4349 C   0  0  0  0  0  0
  -21.9193   -4.6966   22.3405 C   0  0  0  0  0  0
  -22.7831  -13.5231   21.1865 C   0  0  0  0  0  0
  -22.1665   -4.2150   21.0982 F   0  0  0  0  0  0
  -21.5625   -3.4544   25.7741 F   0  0  0  0  0  0
  -29.9990  -13.4582   20.4016 N   0  0  0  0  0  0
  -26.2955  -12.9390   20.3317 N   0  0  0  0  0  0
  -25.9320  -11.6537   20.5771 N   0  0  0  0  0  0
  -22.0480  -12.8215   22.0421 N   0  0  0  0  0  0
  -25.4225  -15.1912   20.4113 N   0  0  0  0  0  0
  -31.8487  -14.7343   20.1577 O   0  0  0  0  0  0
  -21.6642   -6.8878   21.4242 O   0  0  0  0  0  0
  -22.3516  -14.5539   20.6717 O   0  0  0  0  0  0
  -24.6284  -31.8579   23.2027 C   0  0  0  0  0  0
  -25.9128  -32.4762   23.8354 C   0  0  1  0  0  0
  -27.2138  -27.2986   20.1142 C   0  0  0  0  0  0
  -25.5936  -33.8567   24.2277 N   0  0  0  0  0  0
  -23.4218  -30.4851   21.5451 C   0  0  2  0  0  0
  -24.8672  -28.9450   20.1066 C   0  0  0  0  0  0
  -22.7487  -29.4610   22.4910 C   0  0  0  0  0  0
  -18.0290  -28.1381   22.8484 C   0  0  0  0  0  0
  -24.1483  -36.7280   23.2641 C   0  0  0  0  0  0
  -25.9669  -30.7815   21.3802 C   0  0  0  0  0  0
  -26.0380  -29.4095   20.7186 C   0  0  0  0  0  0
  -27.2137  -28.5972   20.7169 C   0  0  0  0  0  0
  -26.0226  -26.9068   19.4566 C   0  0  0  0  0  0
  -24.8631  -27.7001   19.4646 C   0  0  0  0  0  0
  -23.6367  -29.8263   20.1582 C   0  0  0  0  0  0
  -25.4108  -36.3066   24.0325 C   0  0  1  0  0  0
  -20.5892  -28.3684   23.1272 C   0  0  2  0  0  0
  -20.6774  -26.9403   22.5405 C   0  0  0  0  0  0
  -19.5752  -26.6377   21.5206 C   0  0  0  0  0  0
  -18.1930  -26.7920   22.1625 C   0  0  0  0  0  0
  -19.1548  -28.8852   23.2873 C   0  0  0  0  0  0
  -18.9470  -30.1462   23.8880 C   0  0  0  0  0  0
  -17.6466  -30.6584   24.0569 C   0  0  0  0  0  0
  -25.9052  -34.9441   23.5096 C   0  0  0  0  0  0
  -16.5363  -29.9078   23.6343 C   0  0  0  0  0  0
  -16.7277  -28.6504   23.0345 C   0  0  0  0  0  0
  -26.4505  -31.6581   25.0733 C   0  0  0  0  0  0
  -25.3738  -31.3725   26.1462 C   0  0  0  0  0  0
  -27.0364  -30.2999   24.6214 C   0  0  0  0  0  0
  -27.6050  -32.4334   25.7505 C   0  0  0  0  0  0
  -27.5575  -37.1789   24.8467 C   0  0  0  0  0  0
  -21.4198  -29.3037   22.3666 N   0  0  0  0  0  0
  -26.4279  -37.3766   23.9422 N   0  0  0  0  0  0
  -24.6908  -31.0580   22.0985 N   0  0  0  0  0  0
  -23.4209  -28.8140   23.2987 O   0  0  0  0  0  0
  -28.3087  -26.4128   20.1916 O   0  0  0  0  0  0
  -26.5619  -34.8911   22.4662 O   0  0  0  0  0  0
  -23.5445  -32.1384   23.7344 O   0  0  0  0  0  0
  -29.1556  -21.1416   20.1948 C   0  0  0  0  0  0
  -28.3847  -20.1879   20.9301 C   0  0  0  0  0  0
  -30.3691  -20.5815   19.7040 C   0  0  0  0  0  0
  -29.9577  -18.4869   20.6542 C   0  0  0  0  0  0
  -25.8369  -19.6209   21.2553 C   0  0  0  0  0  0
  -25.8947  -20.9887   20.6319 C   0  0  0  0  0  0
  -27.0366  -20.5150   21.5104 C   0  0  0  0  0  0
  -31.2099  -21.0397   17.3499 C   0  0  0  0  0  0
  -31.3380  -21.3769   18.8410 C   0  0  0  0  0  0
  -30.5791  -17.1235   21.1324 C   0  0  0  0  0  0
  -29.0046  -23.7814   20.4083 C   0  0  0  0  0  0
  -28.0627  -24.9727   19.8994 C   0  0  0  0  0  0
  -28.7972  -18.9038   21.1639 N   0  0  0  0  0  0
  -30.7422  -19.2926   19.9350 N   0  0  0  0  0  0
  -28.6620  -22.4448   19.8117 N   0  0  0  0  0  0
  -29.9681  -15.7802   20.8337 N   0  0  0  0  0  0
  -31.4657  -12.5164   19.1448 H   0  0  0  0  0  0
  -30.3529  -11.4230   19.9195 H   0  0  0  0  0  0
  -29.7638  -11.7294   17.4933 H   0  0  0  0  0  0
  -29.6365  -13.4558   17.7216 H   0  0  0  0  0  0
  -27.8707  -11.2852   18.8935 H   0  0  0  0  0  0
  -27.3652  -12.5430   17.7976 H   0  0  0  0  0  0
  -27.6502  -14.2536   19.4895 H   0  0  0  0  0  0
  -28.7093  -12.1261   21.4115 H   0  0  0  0  0  0
  -28.4401  -13.8037   21.8052 H   0  0  0  0  0  0
  -25.2756   -9.5689   22.4764 H   0  0  0  0  0  0
  -24.0006   -7.4636   22.7470 H   0  0  0  0  0  0
  -21.0847   -8.8770   19.8952 H   0  0  0  0  0  0
  -22.3695  -10.9673   19.6173 H   0  0  0  0  0  0
  -21.2000   -7.6150   23.9715 H   0  0  0  0  0  0
  -21.1474   -6.0528   25.9075 H   0  0  0  0  0  0
  -22.0600   -2.7616   23.2852 H   0  0  0  0  0  0
  -22.4098  -11.9881   22.4809 H   0  0  0  0  0  0
  -21.1097  -13.1232   22.2628 H   0  0  0  0  0  0
  -24.6545  -15.8445   20.5207 H   0  0  0  0  0  0
  -26.2725  -15.6325   20.0844 H   0  0  0  0  0  0
  -26.7189  -32.5422   23.1090 H   0  0  0  0  0  0
  -25.0088  -33.9713   25.0427 H   0  0  0  0  0  0
  -22.7172  -31.3075   21.4043 H   0  0  0  0  0  0
  -23.3742  -35.9613   23.3289 H   0  0  0  0  0  0
  -24.3574  -36.8917   22.2060 H   0  0  0  0  0  0
  -23.7242  -37.6480   23.6672 H   0  0  0  0  0  0
  -26.1062  -31.5451   20.6134 H   0  0  0  0  0  0
  -26.8447  -30.8251   22.0133 H   0  0  0  0  0  0
  -28.1081  -28.9440   21.2158 H   0  0  0  0  0  0
  -25.9466  -25.9646   18.9349 H   0  0  0  0  0  0
  -23.9700  -27.3437   18.9702 H   0  0  0  0  0  0
  -23.7572  -30.6063   19.4054 H   0  0  0  0  0  0
  -22.7564  -29.2585   19.8527 H   0  0  0  0  0  0
  -25.1280  -36.1901   25.0812 H   0  0  0  0  0  0
  -21.0000  -28.3252   24.1386 H   0  0  0  0  0  0
  -20.5676  -26.2289   23.3599 H   0  0  0  0  0  0
  -21.6640  -26.7411   22.1200 H   0  0  0  0  0  0
  -19.6908  -25.6287   21.1240 H   0  0  0  0  0  0
  -19.6692  -27.3192   20.6741 H   0  0  0  0  0  0
  -17.4197  -26.6678   21.4029 H   0  0  0  0  0  0
  -18.0329  -26.0059   22.9016 H   0  0  0  0  0  0
  -19.7949  -30.7296   24.2221 H   0  0  0  0  0  0
  -17.5022  -31.6260   24.5179 H   0  0  0  0  0  0
  -15.5367  -30.2979   23.7672 H   0  0  0  0  0  0
  -15.8674  -28.0836   22.7037 H   0  0  0  0  0  0
  -24.5914  -30.7061   25.7806 H   0  0  0  0  0  0
  -24.8928  -32.2898   26.4878 H   0  0  0  0  0  0
  -25.8068  -30.8925   27.0248 H   0  0  0  0  0  0
  -26.2955  -29.6739   24.1233 H   0  0  0  0  0  0
  -27.4051  -29.7263   25.4729 H   0  0  0  0  0  0
  -27.8816  -30.4273   23.9446 H   0  0  0  0  0  0
  -27.2637  -33.3639   26.2055 H   0  0  0  0  0  0
  -28.3870  -32.6901   25.0344 H   0  0  0  0  0  0
  -28.0703  -31.8490   26.5454 H   0  0  0  0  0  0
  -28.2567  -38.0111   24.7526 H   0  0  0  0  0  0
  -28.1091  -36.2639   24.6252 H   0  0  0  0  0  0
  -27.2300  -37.1389   25.8873 H   0  0  0  0  0  0
  -20.9373  -29.8780   21.6893 H   0  0  0  0  0  0
  -26.0146  -38.2825   24.1450 H   0  0  0  0  0  0
  -25.9703  -18.7668   20.5944 H   0  0  0  0  0  0
  -25.1257  -19.4801   22.0667 H   0  0  0  0  0  0
  -25.2292  -21.7477   21.0361 H   0  0  0  0  0  0
  -26.0713  -21.0443   19.5595 H   0  0  0  0  0  0
  -27.1366  -20.9678   22.4943 H   0  0  0  0  0  0
  -31.9188  -21.6203   16.7600 H   0  0  0  0  0  0
  -30.2065  -21.2590   16.9855 H   0  0  0  0  0  0
  -31.4087  -19.9831   17.1696 H   0  0  0  0  0  0
  -32.3547  -21.1718   19.1771 H   0  0  0  0  0  0
  -31.1930  -22.4446   18.9926 H   0  0  0  0  0  0
  -30.6445  -17.1889   22.2185 H   0  0  0  0  0  0
  -31.6189  -17.1229   20.8030 H   0  0  0  0  0  0
  -28.9521  -23.7176   21.4964 H   0  0  0  0  0  0
  -30.0402  -24.0230   20.1658 H   0  0  0  0  0  0
  -27.0781  -24.7066   20.2856 H   0  0  0  0  0  0
  -28.0012  -24.8958   18.8128 H   0  0  0  0  0  0
  -28.5676  -22.5304   18.8013 H   0  0  0  0  0  0
  -28.9803  -15.6973   21.0144 H   0  0  0  0  0  0
  1 25  1  0  0  0
  1 30  2  0  0  0
  1 86  1  0  0  0
  2  3  1  0  0  0
  2 25  1  0  0  0
  2 87  1  0  0  0
  2 88  1  0  0  0
  3  4  1  0  0  0
  3 89  1  0  0  0
  3 90  1  0  0  0
  4  5  1  0  0  0
  4 91  1  0  0  0
  4 92  1  0  0  0
  5  6  1  0  0  0
  5 26  1  0  0  0
  5 93  1  0  0  0
  6 25  1  0  0  0
  6 94  1  0  0  0
  6 95  1  0  0  0
  7  8  2  0  0  0
  7 26  1  0  0  0
  7 29  1  0  0  0
  8  9  1  0  0  0
  8 22  1  0  0  0
  9 10  1  0  0  0
  9 27  2  0  0  0
 10 11  2  0  0  0
 10 15  1  0  0  0
 11 12  1  0  0  0
 11 96  1  0  0  0
 12 13  2  0  0  0
 12 97  1  0  0  0
 13 14  1  0  0  0
 13 31  1  0  0  0
 14 15  2  0  0  0
 14 98  1  0  0  0
 15 99  1  0  0  0
 16 17  2  0  0  0
 16 21  1  0  0  0
 16 31  1  0  0  0
 17 18  1  0  0  0
 17100  1  0  0  0
 18 19  2  0  0  0
 18101  1  0  0  0
 19 20  1  0  0  0
 19 24  1  0  0  0
 20 21  2  0  0  0
 20102  1  0  0  0
 21 23  1  0  0  0
 22 28  1  0  0  0
 22 32  2  0  0  0
 26 27  1  0  0  0
 28103  1  0  0  0
 28104  1  0  0  0
 29105  1  0  0  0
 29106  1  0  0  0
 33 34  1  0  0  0
 33 66  1  0  0  0
 33 70  2  0  0  0
 34 36  1  0  0  0
 34 59  1  0  0  0
 34107  1  0  0  0
 35 44  2  0  0  0
 35 45  1  0  0  0
 35 68  1  0  0  0
 36 56  1  0  0  0
 36108  1  0  0  0
 37 39  1  0  0  0
 37 47  1  0  0  0
 37 66  1  0  0  0
 37109  1  0  0  0
 38 43  2  0  0  0
 38 46  1  0  0  0
 38 47  1  0  0  0
 39 64  1  0  0  0
 39 67  2  0  0  0
 40 52  1  0  0  0
 40 53  2  0  0  0
 40 58  1  0  0  0
 41110  1  0  0  0
 41111  1  0  0  0
 41112  1  0  0  0
 41 48  1  0  0  0
 42 43  1  0  0  0
 42 66  1  0  0  0
 42113  1  0  0  0
 42114  1  0  0  0
 43 44  1  0  0  0
 44115  1  0  0  0
 45 46  2  0  0  0
 45116  1  0  0  0
 46117  1  0  0  0
 47118  1  0  0  0
 47119  1  0  0  0
 48 56  1  0  0  0
 48 65  1  0  0  0
 48120  1  0  0  0
 49 50  1  0  0  0
 49 53  1  0  0  0
 49 64  1  0  0  0
 49121  1  0  0  0
 50 51  1  0  0  0
 50122  1  0  0  0
 50123  1  0  0  0
 51 52  1  0  0  0
 51124  1  0  0  0
 51125  1  0  0  0
 52126  1  0  0  0
 52127  1  0  0  0
 53 54  1  0  0  0
 54 55  2  0  0  0
 54128  1  0  0  0
 55 57  1  0  0  0
 55129  1  0  0  0
 56 69  2  0  0  0
 57 58  2  0  0  0
 57130  1  0  0  0
 58131  1  0  0  0
 59 60  1  0  0  0
 59 61  1  0  0  0
 59 62  1  0  0  0
 60132  1  0  0  0
 60133  1  0  0  0
 60134  1  0  0  0
 61135  1  0  0  0
 61136  1  0  0  0
 61137  1  0  0  0
 62138  1  0  0  0
 62139  1  0  0  0
 62140  1  0  0  0
 63 65  1  0  0  0
 63141  1  0  0  0
 63142  1  0  0  0
 63143  1  0  0  0
 64144  1  0  0  0
 65145  1  0  0  0
 68 82  1  0  0  0
 71 72  1  0  0  0
 71 73  2  0  0  0
 71 85  1  0  0  0
 72 83  2  0  0  0
 72 77  1  0  0  0
 73 79  1  0  0  0
 73 84  1  0  0  0
 74 80  1  0  0  0
 74 83  1  0  0  0
 74 84  2  0  0  0
 75 76  1  0  0  0
 75 77  1  0  0  0
 75146  1  0  0  0
 75147  1  0  0  0
 76 77  1  0  0  0
 76148  1  0  0  0
 76149  1  0  0  0
 77150  1  0  0  0
 78 79  1  0  0  0
 78151  1  0  0  0
 78152  1  0  0  0
 78153  1  0  0  0
 79154  1  0  0  0
 79155  1  0  0  0
 80 86  1  0  0  0
 80156  1  0  0  0
 80157  1  0  0  0
 81 82  1  0  0  0
 81 85  1  0  0  0
 81158  1  0  0  0
 81159  1  0  0  0
 82160  1  0  0  0
 82161  1  0  0  0
 85162  1  0  0  0
 86163  1  0  0  0
M  ISO  4   1 100  68 101  82 101  86 100
M  END
> <chiral flag>
0

> <version>
0

> <s_m_source_file>
/data/baiqing/PycharmProjects/Reinvent-master-3.2/result/LINK_invent/BTK/process_docking_weight1_custom_sum_contain_oxygen_bond_distance_aromatic_linkinvent_7_9_3/rearranged_h_0193.sdf

> <i_m_source_file_index>
36

> <r_mmod_Potential_Energy-OPLS-2005>
-328.169403076172

> <r_mmod_Stretch_Energy-OPLS-2005>
82.8247604370117

> <r_mmod_Bend_Energy-OPLS-2005>
162.276748657227

> <r_mmod_Torsional_Energy-OPLS-2005>
243.231887817383

> <r_mmod_Improper_Torsional_Energy-OPLS-2005>
9.34013748168945

> <r_mmod_Van_der_Waal_Energy-OPLS-2005>
149.94889831543

> <r_mmod_Electrostatic_Energy-OPLS-2005>
-806.946350097656

> <r_mmod_Solvation_Energy-OPLS-2005>
-228.864242553711

> <b_mmod_Minimization_Converged-OPLS-2005>
0

> <r_mmod_RMS_Derivative-OPLS-2005>
1.12475180625916

$$$$
36
                    3D
 Structure written by MMmdl.
166175  0  0  1  0            999 V2000
  -30.6360  -14.5943   20.4991 C   0  0  0  0  0  0
  -30.4371  -12.3614   19.4446 C   0  0  0  0  0  0
  -29.5073  -12.5081   18.2187 C   0  0  0  0  0  0
  -28.0268  -12.3545   18.6245 C   0  0  0  0  0  0
  -27.6551  -13.2132   19.8624 C   0  0  2  0  0  0
  -28.7010  -13.0460   20.9862 C   0  0  0  0  0  0
  -25.2572  -13.8155   20.5677 C   0  0  0  0  0  0
  -24.1832  -13.0426   20.9177 C   0  0  0  0  0  0
  -24.6401  -11.6897   20.8733 C   0  0  0  0  0  0
  -23.9071  -10.4279   21.0404 C   0  0  0  0  0  0
  -24.3619   -9.4196   21.9185 C   0  0  0  0  0  0
  -23.6287   -8.2239   22.0759 C   0  0  0  0  0  0
  -22.4269   -8.0278   21.3546 C   0  0  0  0  0  0
  -21.9905   -9.0258   20.4653 C   0  0  0  0  0  0
  -22.7242  -10.2132   20.3057 C   0  0  0  0  0  0
  -21.6850   -6.0732   22.5278 C   0  0  0  0  0  0
  -21.4015   -6.5640   23.8212 C   0  0  0  0  0  0
  -21.3660   -5.6794   24.9176 C   0  0  0  0  0  0
  -21.6037   -4.3053   24.7227 C   0  0  0  0  0  0
  -21.8821   -3.8145   23.4346 C   0  0  0  0  0  0
  -21.9194   -4.6960   22.3401 C   0  0  0  0  0  0
  -22.7853  -13.5224   21.1836 C   0  0  0  0  0  0
  -22.1659   -4.2143   21.0976 F   0  0  0  0  0  0
  -21.5630   -3.4540   25.7743 F   0  0  0  0  0  0
  -30.0236  -13.3724   20.4350 N   0  0  0  0  0  0
  -26.3000  -12.9337   20.3314 N   0  0  0  0  0  0
  -25.9328  -11.6491   20.5743 N   0  0  0  0  0  0
  -22.0494  -12.8229   22.0402 N   0  0  0  0  0  0
  -25.4283  -15.1882   20.4104 N   0  0  0  0  0  0
  -31.8124  -14.7289   20.1526 O   0  0  0  0  0  0
  -21.6636   -6.8874   21.4238 O   0  0  0  0  0  0
  -22.3544  -14.5531   20.6683 O   0  0  0  0  0  0
  -24.6198  -31.8647   23.2059 C   0  0  0  0  0  0
  -25.9064  -32.4824   23.8370 C   0  0  1  0  0  0
  -27.2387  -27.3817   20.1112 C   0  0  0  0  0  0
  -25.5895  -33.8625   24.2315 N   0  0  0  0  0  0
  -23.4123  -30.4862   21.5455 C   0  0  2  0  0  0
  -24.8619  -28.9384   20.1217 C   0  0  0  0  0  0
  -22.7444  -29.4649   22.4951 C   0  0  0  0  0  0
  -18.0294  -28.1411   22.8502 C   0  0  0  0  0  0
  -24.1475  -36.7310   23.2633 C   0  0  0  0  0  0
  -25.9440  -30.8130   21.3674 C   0  0  0  0  0  0
  -26.0251  -29.4387   20.7234 C   0  0  0  0  0  0
  -27.2177  -28.6671   20.7162 C   0  0  0  0  0  0
  -26.0569  -26.9080   19.5056 C   0  0  0  0  0  0
  -24.8749  -27.6717   19.5110 C   0  0  0  0  0  0
  -23.6271  -29.8125   20.1637 C   0  0  0  0  0  0
  -25.4102  -36.3124   24.0334 C   0  0  1  0  0  0
  -20.5884  -28.3709   23.1301 C   0  0  2  0  0  0
  -20.6777  -26.9435   22.5423 C   0  0  0  0  0  0
  -19.5747  -26.6416   21.5221 C   0  0  0  0  0  0
  -18.1935  -26.7962   22.1639 C   0  0  0  0  0  0
  -19.1542  -28.8870   23.2906 C   0  0  0  0  0  0
  -18.9457  -30.1470   23.8942 C   0  0  0  0  0  0
  -17.6459  -30.6606   24.0572 C   0  0  0  0  0  0
  -25.9033  -34.9490   23.5124 C   0  0  0  0  0  0
  -16.5355  -29.9117   23.6326 C   0  0  0  0  0  0
  -16.7282  -28.6524   23.0367 C   0  0  0  0  0  0
  -26.4473  -31.6618   25.0717 C   0  0  0  0  0  0
  -25.3714  -31.3743   26.1448 C   0  0  0  0  0  0
  -27.0294  -30.3049   24.6129 C   0  0  0  0  0  0
  -27.6053  -32.4325   25.7482 C   0  0  0  0  0  0
  -27.5583  -37.1807   24.8464 C   0  0  0  0  0  0
  -21.4166  -29.3060   22.3696 N   0  0  0  0  0  0
  -26.4296  -37.3811   23.9412 N   0  0  0  0  0  0
  -24.6773  -31.0698   22.0982 N   0  0  0  0  0  0
  -23.4170  -28.8183   23.3018 O   0  0  0  0  0  0
  -28.3842  -26.6063   20.0249 O   0  0  0  0  0  0
  -26.5602  -34.8950   22.4691 O   0  0  0  0  0  0
  -23.5378  -32.1422   23.7420 O   0  0  0  0  0  0
  -28.4612  -25.1830   22.0947 C   0  0  0  0  0  0
  -28.6227  -23.8311   22.2479 C   0  0  0  0  0  0
  -28.4458  -25.3894   20.6930 C   0  0  0  0  0  0
  -30.7110  -19.8927   22.3255 C   0  0  0  0  0  0
  -29.7637  -18.5864   20.5387 C   0  0  0  0  0  0
  -31.5635  -18.6862   22.7681 C   0  0  0  0  0  0
  -30.5380  -17.2756   21.0088 C   0  0  2  0  0  0
  -28.6909  -23.0389   23.5105 C   0  0  0  0  0  0
  -30.4041  -21.1687   18.7934 C   0  0  0  0  0  0
  -29.7904  -15.8979   20.7600 C   0  0  0  0  0  0
  -28.7385  -21.7963   20.6560 C   0  0  0  0  0  0
  -30.1401  -21.1758   20.3080 C   0  0  1  0  0  0
  -28.6147  -24.2349   20.0248 N   0  0  0  0  0  0
  -28.6993  -23.2534   20.9848 N   0  0  0  0  0  0
  -30.5045  -19.8363   20.8761 N   0  0  0  0  0  0
  -30.8935  -17.4086   22.4455 N   0  3  0  0  0  0
  -31.4803  -12.4750   19.1437 H   0  0  0  0  0  0
  -30.3583  -11.3595   19.8703 H   0  0  0  0  0  0
  -29.7659  -11.7698   17.4589 H   0  0  0  0  0  0
  -29.6602  -13.4856   17.7573 H   0  0  0  0  0  0
  -27.8498  -11.2995   18.8390 H   0  0  0  0  0  0
  -27.3779  -12.6052   17.7846 H   0  0  0  0  0  0
  -27.6769  -14.2519   19.5354 H   0  0  0  0  0  0
  -28.6996  -12.0172   21.3507 H   0  0  0  0  0  0
  -28.4547  -13.6594   21.8525 H   0  0  0  0  0  0
  -25.2768   -9.5670   22.4754 H   0  0  0  0  0  0
  -23.9997   -7.4629   22.7478 H   0  0  0  0  0  0
  -21.0834   -8.8777   19.8961 H   0  0  0  0  0  0
  -22.3701  -10.9670   19.6164 H   0  0  0  0  0  0
  -21.2007   -7.6149   23.9711 H   0  0  0  0  0  0
  -21.1478   -6.0527   25.9078 H   0  0  0  0  0  0
  -22.0600   -2.7604   23.2853 H   0  0  0  0  0  0
  -22.4103  -11.9889   22.4791 H   0  0  0  0  0  0
  -21.1117  -13.1267   22.2606 H   0  0  0  0  0  0
  -24.6601  -15.8410   20.5197 H   0  0  0  0  0  0
  -26.2780  -15.6285   20.0827 H   0  0  0  0  0  0
  -26.7127  -32.5525   23.1127 H   0  0  0  0  0  0
  -25.0020  -33.9779   25.0442 H   0  0  0  0  0  0
  -22.7038  -31.3044   21.3991 H   0  0  0  0  0  0
  -23.3756  -35.9621   23.3315 H   0  0  0  0  0  0
  -24.3548  -36.8915   22.2039 H   0  0  0  0  0  0
  -23.7219  -37.6515   23.6639 H   0  0  0  0  0  0
  -26.0553  -31.5731   20.5930 H   0  0  0  0  0  0
  -26.8317  -30.8770   21.9856 H   0  0  0  0  0  0
  -28.1192  -29.0514   21.1729 H   0  0  0  0  0  0
  -26.0560  -25.9389   19.0269 H   0  0  0  0  0  0
  -23.9829  -27.2795   19.0430 H   0  0  0  0  0  0
  -23.7428  -30.5830   19.4005 H   0  0  0  0  0  0
  -22.7506  -29.2323   19.8675 H   0  0  0  0  0  0
  -25.1284  -36.1990   25.0828 H   0  0  0  0  0  0
  -21.0002  -28.3317   24.1409 H   0  0  0  0  0  0
  -20.5694  -26.2324   23.3632 H   0  0  0  0  0  0
  -21.6633  -26.7483   22.1187 H   0  0  0  0  0  0
  -19.6895  -25.6327   21.1244 H   0  0  0  0  0  0
  -19.6673  -27.3240   20.6760 H   0  0  0  0  0  0
  -17.4195  -26.6740   21.4055 H   0  0  0  0  0  0
  -18.0304  -26.0101   22.9024 H   0  0  0  0  0  0
  -19.7926  -30.7271   24.2345 H   0  0  0  0  0  0
  -17.5013  -31.6291   24.5165 H   0  0  0  0  0  0
  -15.5355  -30.3024   23.7632 H   0  0  0  0  0  0
  -15.8685  -28.0853   22.7078 H   0  0  0  0  0  0
  -24.5878  -30.7115   25.7772 H   0  0  0  0  0  0
  -24.8901  -32.2899   26.4886 H   0  0  0  0  0  0
  -25.8028  -30.8904   27.0218 H   0  0  0  0  0  0
  -26.2853  -29.6824   24.1145 H   0  0  0  0  0  0
  -27.4003  -29.7301   25.4622 H   0  0  0  0  0  0
  -27.8719  -30.4350   23.9334 H   0  0  0  0  0  0
  -27.2686  -33.3619   26.2092 H   0  0  0  0  0  0
  -28.3851  -32.6890   25.0297 H   0  0  0  0  0  0
  -28.0725  -31.8412   26.5372 H   0  0  0  0  0  0
  -28.2615  -38.0098   24.7527 H   0  0  0  0  0  0
  -28.1081  -36.2633   24.6279 H   0  0  0  0  0  0
  -27.2295  -37.1442   25.8869 H   0  0  0  0  0  0
  -20.9371  -29.8769   21.6884 H   0  0  0  0  0  0
  -26.0199  -38.2894   24.1440 H   0  0  0  0  0  0
  -28.3728  -25.9237   22.8752 H   0  0  0  0  0  0
  -31.2407  -20.8075   22.5981 H   0  0  0  0  0  0
  -29.7547  -19.9144   22.8519 H   0  0  0  0  0  0
  -28.7676  -18.6220   20.9830 H   0  0  0  0  0  0
  -29.6138  -18.5346   19.4597 H   0  0  0  0  0  0
  -31.7350  -18.7326   23.8442 H   0  0  0  0  0  0
  -32.5466  -18.7207   22.2960 H   0  0  0  0  0  0
  -31.4735  -17.2589   20.4471 H   0  0  0  0  0  0
  -28.6559  -23.6957   24.3808 H   0  0  0  0  0  0
  -29.6131  -22.4601   23.5624 H   0  0  0  0  0  0
  -27.8486  -22.3521   23.5838 H   0  0  0  0  0  0
  -30.2841  -22.1702   18.3760 H   0  0  0  0  0  0
  -29.7166  -20.5154   18.2567 H   0  0  0  0  0  0
  -31.4207  -20.8462   18.5650 H   0  0  0  0  0  0
  -29.1886  -16.0228   19.8605 H   0  0  0  0  0  0
  -29.0756  -15.7314   21.5638 H   0  0  0  0  0  0
  -28.3081  -21.2605   21.5000 H   0  0  0  0  0  0
  -28.0387  -21.6145   19.8395 H   0  0  0  0  0  0
  -30.8788  -21.8681   20.7173 H   0  0  0  0  0  0
  -30.0609  -17.3471   23.0072 H   0  0  0  0  0  0
  -31.5094  -16.6592   22.7152 H   0  0  0  0  0  0
  1 25  1  0  0  0
  1 30  2  0  0  0
  1 80  1  0  0  0
  2  3  1  0  0  0
  2 25  1  0  0  0
  2 87  1  0  0  0
  2 88  1  0  0  0
  3  4  1  0  0  0
  3 89  1  0  0  0
  3 90  1  0  0  0
  4  5  1  0  0  0
  4 91  1  0  0  0
  4 92  1  0  0  0
  5  6  1  0  0  0
  5 26  1  0  0  0
  5 93  1  0  0  0
  6 25  1  0  0  0
  6 94  1  0  0  0
  6 95  1  0  0  0
  7  8  2  0  0  0
  7 26  1  0  0  0
  7 29  1  0  0  0
  8  9  1  0  0  0
  8 22  1  0  0  0
  9 10  1  0  0  0
  9 27  2  0  0  0
 10 11  2  0  0  0
 10 15  1  0  0  0
 11 12  1  0  0  0
 11 96  1  0  0  0
 12 13  2  0  0  0
 12 97  1  0  0  0
 13 14  1  0  0  0
 13 31  1  0  0  0
 14 15  2  0  0  0
 14 98  1  0  0  0
 15 99  1  0  0  0
 16 17  2  0  0  0
 16 21  1  0  0  0
 16 31  1  0  0  0
 17 18  1  0  0  0
 17100  1  0  0  0
 18 19  2  0  0  0
 18101  1  0  0  0
 19 20  1  0  0  0
 19 24  1  0  0  0
 20 21  2  0  0  0
 20102  1  0  0  0
 21 23  1  0  0  0
 22 28  1  0  0  0
 22 32  2  0  0  0
 26 27  1  0  0  0
 28103  1  0  0  0
 28104  1  0  0  0
 29105  1  0  0  0
 29106  1  0  0  0
 33 34  1  0  0  0
 33 66  1  0  0  0
 33 70  2  0  0  0
 34 36  1  0  0  0
 34 59  1  0  0  0
 34107  1  0  0  0
 35 44  2  0  0  0
 35 45  1  0  0  0
 35 68  1  0  0  0
 36 56  1  0  0  0
 36108  1  0  0  0
 37 39  1  0  0  0
 37 47  1  0  0  0
 37 66  1  0  0  0
 37109  1  0  0  0
 38 43  2  0  0  0
 38 46  1  0  0  0
 38 47  1  0  0  0
 39 64  1  0  0  0
 39 67  2  0  0  0
 40 52  1  0  0  0
 40 53  2  0  0  0
 40 58  1  0  0  0
 41110  1  0  0  0
 41111  1  0  0  0
 41112  1  0  0  0
 41 48  1  0  0  0
 42 43  1  0  0  0
 42 66  1  0  0  0
 42113  1  0  0  0
 42114  1  0  0  0
 43 44  1  0  0  0
 44115  1  0  0  0
 45 46  2  0  0  0
 45116  1  0  0  0
 46117  1  0  0  0
 47118  1  0  0  0
 47119  1  0  0  0
 48 56  1  0  0  0
 48 65  1  0  0  0
 48120  1  0  0  0
 49 50  1  0  0  0
 49 53  1  0  0  0
 49 64  1  0  0  0
 49121  1  0  0  0
 50 51  1  0  0  0
 50122  1  0  0  0
 50123  1  0  0  0
 51 52  1  0  0  0
 51124  1  0  0  0
 51125  1  0  0  0
 52126  1  0  0  0
 52127  1  0  0  0
 53 54  1  0  0  0
 54 55  2  0  0  0
 54128  1  0  0  0
 55 57  1  0  0  0
 55129  1  0  0  0
 56 69  2  0  0  0
 57 58  2  0  0  0
 57130  1  0  0  0
 58131  1  0  0  0
 59 60  1  0  0  0
 59 61  1  0  0  0
 59 62  1  0  0  0
 60132  1  0  0  0
 60133  1  0  0  0
 60134  1  0  0  0
 61135  1  0  0  0
 61136  1  0  0  0
 61137  1  0  0  0
 62138  1  0  0  0
 62139  1  0  0  0
 62140  1  0  0  0
 63 65  1  0  0  0
 63141  1  0  0  0
 63142  1  0  0  0
 63143  1  0  0  0
 64144  1  0  0  0
 65145  1  0  0  0
 68 73  1  0  0  0
 71 72  2  0  0  0
 71 73  1  0  0  0
 71146  1  0  0  0
 72 78  1  0  0  0
 72 84  1  0  0  0
 73 83  2  0  0  0
 74 76  1  0  0  0
 74 85  1  0  0  0
 74147  1  0  0  0
 74148  1  0  0  0
 75 77  1  0  0  0
 75 85  1  0  0  0
 75149  1  0  0  0
 75150  1  0  0  0
 76 86  1  0  0  0
 76151  1  0  0  0
 76152  1  0  0  0
 77 80  1  0  0  0
 77 86  1  0  0  0
 77153  1  0  0  0
 78154  1  0  0  0
 78155  1  0  0  0
 78156  1  0  0  0
 79157  1  0  0  0
 79158  1  0  0  0
 79159  1  0  0  0
 79 82  1  0  0  0
 80160  1  0  0  0
 80161  1  0  0  0
 81 82  1  0  0  0
 81 84  1  0  0  0
 81162  1  0  0  0
 81163  1  0  0  0
 82 85  1  0  0  0
 82164  1  0  0  0
 83 84  1  0  0  0
 86165  1  0  0  0
 86166  1  0  0  0
M  CHG  1  86   1
M  ISO  4   1 100  68 101  73 101  80 100
M  END
> <chiral flag>
0

> <version>
0

> <s_m_source_file>
/data/baiqing/PycharmProjects/Reinvent-master-3.2/result/LINK_invent/BTK/process_docking_weight1_custom_sum_contain_oxygen_bond_distance_aromatic_linkinvent_7_9_3/rearranged_h_0193.sdf

> <i_m_source_file_index>
37

> <r_mmod_Potential_Energy-OPLS-2005>
-135.388519287109

> <r_mmod_Stretch_Energy-OPLS-2005>
62.6173439025879

> <r_mmod_Bend_Energy-OPLS-2005>
132.031433105469

> <r_mmod_Torsional_Energy-OPLS-2005>
215.029510498047

> <r_mmod_Improper_Torsional_Energy-OPLS-2005>
6.00692367553711

> <r_mmod_Van_der_Waal_Energy-OPLS-2005>
117.355567932129

> <r_mmod_Electrostatic_Energy-OPLS-2005>
-230.775314331055

> <r_mmod_Solvation_Energy-OPLS-2005>
-466.425994873047

> <b_mmod_Minimization_Converged-OPLS-2005>
0

> <r_mmod_RMS_Derivative-OPLS-2005>
2.31467938423157

$$$$
37
                    3D
 Structure written by MMmdl.
161170  0  0  1  0            999 V2000
  -30.6830  -14.5412   20.5555 C   0  0  0  0  0  0
  -30.4254  -12.3472   19.4319 C   0  0  0  0  0  0
  -29.4969  -12.5145   18.2113 C   0  0  0  0  0  0
  -28.0195  -12.3587   18.6248 C   0  0  0  0  0  0
  -27.6559  -13.2126   19.8685 C   0  0  2  0  0  0
  -28.7008  -13.0357   20.9930 C   0  0  0  0  0  0
  -25.2558  -13.8170   20.5680 C   0  0  0  0  0  0
  -24.1824  -13.0436   20.9185 C   0  0  0  0  0  0
  -24.6391  -11.6907   20.8742 C   0  0  0  0  0  0
  -23.9066  -10.4288   21.0406 C   0  0  0  0  0  0
  -24.3613   -9.4203   21.9184 C   0  0  0  0  0  0
  -23.6286   -8.2242   22.0750 C   0  0  0  0  0  0
  -22.4271   -8.0277   21.3539 C   0  0  0  0  0  0
  -21.9907   -9.0254   20.4644 C   0  0  0  0  0  0
  -22.7241  -10.2129   20.3050 C   0  0  0  0  0  0
  -21.6855   -6.0723   22.5279 C   0  0  0  0  0  0
  -21.4021   -6.5629   23.8213 C   0  0  0  0  0  0
  -21.3658   -5.6783   24.9177 C   0  0  0  0  0  0
  -21.6044   -4.3047   24.7231 C   0  0  0  0  0  0
  -21.8822   -3.8133   23.4356 C   0  0  0  0  0  0
  -21.9195   -4.6949   22.3408 C   0  0  0  0  0  0
  -22.7846  -13.5231   21.1857 C   0  0  0  0  0  0
  -22.1667   -4.2127   21.0988 F   0  0  0  0  0  0
  -21.5623   -3.4533   25.7749 F   0  0  0  0  0  0
  -30.0243  -13.3515   20.4329 N   0  0  0  0  0  0
  -26.3000  -12.9351   20.3347 N   0  0  0  0  0  0
  -25.9321  -11.6509   20.5768 N   0  0  0  0  0  0
  -22.0491  -12.8215   22.0409 N   0  0  0  0  0  0
  -25.4272  -15.1888   20.4083 N   0  0  0  0  0  0
  -31.8241  -14.7109   20.1173 O   0  0  0  0  0  0
  -21.6642   -6.8866   21.4239 O   0  0  0  0  0  0
  -22.3542  -14.5548   20.6723 O   0  0  0  0  0  0
  -24.6175  -31.8647   23.2067 C   0  0  0  0  0  0
  -25.9046  -32.4808   23.8384 C   0  0  1  0  0  0
  -27.2336  -27.3959   20.1104 C   0  0  0  0  0  0
  -25.5890  -33.8606   24.2318 N   0  0  0  0  0  0
  -23.4097  -30.4869   21.5462 C   0  0  2  0  0  0
  -24.8605  -28.9471   20.1137 C   0  0  0  0  0  0
  -22.7430  -29.4643   22.4957 C   0  0  0  0  0  0
  -18.0273  -28.1383   22.8497 C   0  0  0  0  0  0
  -24.1480  -36.7297   23.2645 C   0  0  0  0  0  0
  -25.9427  -30.8199   21.3659 C   0  0  0  0  0  0
  -26.0234  -29.4508   20.7131 C   0  0  0  0  0  0
  -27.2174  -28.6841   20.7055 C   0  0  0  0  0  0
  -26.0568  -26.9171   19.5009 C   0  0  0  0  0  0
  -24.8742  -27.6816   19.5014 C   0  0  0  0  0  0
  -23.6222  -29.8165   20.1622 C   0  0  0  0  0  0
  -25.4104  -36.3103   24.0344 C   0  0  1  0  0  0
  -20.5872  -28.3668   23.1308 C   0  0  2  0  0  0
  -20.6769  -26.9400   22.5421 C   0  0  0  0  0  0
  -19.5749  -26.6382   21.5220 C   0  0  0  0  0  0
  -18.1922  -26.7935   22.1621 C   0  0  0  0  0  0
  -19.1530  -28.8841   23.2903 C   0  0  0  0  0  0
  -18.9457  -30.1448   23.8907 C   0  0  0  0  0  0
  -17.6460  -30.6590   24.0567 C   0  0  0  0  0  0
  -25.9027  -34.9471   23.5131 C   0  0  0  0  0  0
  -16.5347  -29.9092   23.6332 C   0  0  0  0  0  0
  -16.7264  -28.6511   23.0350 C   0  0  0  0  0  0
  -26.4464  -31.6600   25.0724 C   0  0  0  0  0  0
  -25.3717  -31.3726   26.1467 C   0  0  0  0  0  0
  -27.0311  -30.3041   24.6132 C   0  0  0  0  0  0
  -27.6044  -32.4318   25.7482 C   0  0  0  0  0  0
  -27.5577  -37.1804   24.8472 C   0  0  0  0  0  0
  -21.4153  -29.3032   22.3703 N   0  0  0  0  0  0
  -26.4292  -37.3785   23.9414 N   0  0  0  0  0  0
  -24.6748  -31.0719   22.0976 N   0  0  0  0  0  0
  -23.4185  -28.8187   23.3017 O   0  0  0  0  0  0
  -28.3501  -26.5780   20.1137 O   0  0  0  0  0  0
  -26.5592  -34.8927   22.4690 O   0  0  0  0  0  0
  -23.5352  -32.1402   23.7435 O   0  0  0  0  0  0
  -28.8714  -23.1120   21.7718 C   0  0  0  0  0  0
  -28.7082  -24.0933   20.7564 C   0  0  0  0  0  0
  -29.1349  -22.4328   19.1791 C   0  0  0  0  0  0
  -29.2986  -21.4462   20.2051 C   0  0  0  0  0  0
  -30.5554  -16.6916   21.9099 C   0  0  0  0  0  0
  -29.1793  -16.5678   20.3682 C   0  0  0  0  0  0
  -30.2317  -17.6221   20.7341 C   0  0  0  0  0  0
  -27.8664  -21.9018   17.0451 C   0  0  0  0  0  0
  -29.2417  -22.0990   17.6965 C   0  0  0  0  0  0
  -29.6201  -19.9563   19.8851 C   0  0  0  0  0  0
  -28.3237  -25.5478   21.1398 C   0  0  0  0  0  0
  -29.1664  -21.8054   21.5096 N   0  0  0  0  0  0
  -28.8421  -23.7402   19.4513 N   0  0  0  0  0  0
  -29.9875  -15.5705   21.1182 N   0  0  0  0  0  0
  -29.7829  -19.0307   21.0466 N   0  3  0  0  0  0
  -31.4700  -12.4490   19.1320 H   0  0  0  0  0  0
  -30.3330  -11.3434   19.8496 H   0  0  0  0  0  0
  -29.7495  -11.7843   17.4416 H   0  0  0  0  0  0
  -29.6510  -13.4974   17.7628 H   0  0  0  0  0  0
  -27.8448  -11.3031   18.8360 H   0  0  0  0  0  0
  -27.3654  -12.6126   17.7904 H   0  0  0  0  0  0
  -27.6840  -14.2533   19.5474 H   0  0  0  0  0  0
  -28.6938  -12.0112   21.3681 H   0  0  0  0  0  0
  -28.4554  -13.6656   21.8500 H   0  0  0  0  0  0
  -25.2756   -9.5674   22.4761 H   0  0  0  0  0  0
  -23.9982   -7.4636   22.7472 H   0  0  0  0  0  0
  -21.0833   -8.8787   19.8956 H   0  0  0  0  0  0
  -22.3711  -10.9666   19.6153 H   0  0  0  0  0  0
  -21.2018   -7.6139   23.9712 H   0  0  0  0  0  0
  -21.1476   -6.0515   25.9079 H   0  0  0  0  0  0
  -22.0599   -2.7590   23.2872 H   0  0  0  0  0  0
  -22.4102  -11.9858   22.4765 H   0  0  0  0  0  0
  -21.1115  -13.1244   22.2641 H   0  0  0  0  0  0
  -24.6605  -15.8446   20.5087 H   0  0  0  0  0  0
  -26.2805  -15.6218   20.0816 H   0  0  0  0  0  0
  -26.7122  -32.5513   23.1150 H   0  0  0  0  0  0
  -25.0057  -33.9771   25.0477 H   0  0  0  0  0  0
  -22.7001  -31.3047   21.4032 H   0  0  0  0  0  0
  -23.3754  -35.9619   23.3310 H   0  0  0  0  0  0
  -24.3582  -36.8900   22.2060 H   0  0  0  0  0  0
  -23.7217  -37.6497   23.6653 H   0  0  0  0  0  0
  -26.0604  -31.5866   20.5984 H   0  0  0  0  0  0
  -26.8283  -30.8733   21.9879 H   0  0  0  0  0  0
  -28.1151  -29.0678   21.1703 H   0  0  0  0  0  0
  -26.0555  -25.9399   19.0372 H   0  0  0  0  0  0
  -23.9815  -27.2883   19.0346 H   0  0  0  0  0  0
  -23.7313  -30.5905   19.4015 H   0  0  0  0  0  0
  -22.7475  -29.2352   19.8652 H   0  0  0  0  0  0
  -25.1285  -36.1964   25.0839 H   0  0  0  0  0  0
  -20.9968  -28.3237   24.1429 H   0  0  0  0  0  0
  -20.5670  -26.2275   23.3610 H   0  0  0  0  0  0
  -21.6637  -26.7441   22.1209 H   0  0  0  0  0  0
  -19.6906  -25.6294   21.1243 H   0  0  0  0  0  0
  -19.6697  -27.3200   20.6760 H   0  0  0  0  0  0
  -17.4197  -26.6687   21.4015 H   0  0  0  0  0  0
  -18.0312  -26.0077   22.9012 H   0  0  0  0  0  0
  -19.7937  -30.7264   24.2272 H   0  0  0  0  0  0
  -17.5020  -31.6275   24.5163 H   0  0  0  0  0  0
  -15.5351  -30.2995   23.7669 H   0  0  0  0  0  0
  -15.8661  -28.0839   22.7055 H   0  0  0  0  0  0
  -24.5888  -30.7074   25.7807 H   0  0  0  0  0  0
  -24.8907  -32.2888   26.4901 H   0  0  0  0  0  0
  -25.8049  -30.8904   27.0237 H   0  0  0  0  0  0
  -26.2877  -29.6790   24.1167 H   0  0  0  0  0  0
  -27.4064  -29.7293   25.4609 H   0  0  0  0  0  0
  -27.8717  -30.4375   23.9315 H   0  0  0  0  0  0
  -27.2684  -33.3636   26.2045 H   0  0  0  0  0  0
  -28.3855  -32.6833   25.0294 H   0  0  0  0  0  0
  -28.0701  -31.8437   26.5398 H   0  0  0  0  0  0
  -28.2606  -38.0090   24.7502 H   0  0  0  0  0  0
  -28.1055  -36.2619   24.6311 H   0  0  0  0  0  0
  -27.2295  -37.1466   25.8875 H   0  0  0  0  0  0
  -20.9304  -29.8750   21.6927 H   0  0  0  0  0  0
  -26.0179  -38.2864   24.1406 H   0  0  0  0  0  0
  -28.7502  -23.3770   22.8126 H   0  0  0  0  0  0
  -29.9928  -16.9024   22.8218 H   0  0  0  0  0  0
  -31.6234  -16.6139   22.1228 H   0  0  0  0  0  0
  -29.1022  -16.3925   19.2936 H   0  0  0  0  0  0
  -28.1950  -16.7413   20.8074 H   0  0  0  0  0  0
  -31.0625  -17.6302   20.0240 H   0  0  0  0  0  0
  -27.9692  -21.6313   15.9939 H   0  0  0  0  0  0
  -27.2756  -22.8169   17.0956 H   0  0  0  0  0  0
  -27.3012  -21.1102   17.5377 H   0  0  0  0  0  0
  -29.8589  -21.2163   17.5327 H   0  0  0  0  0  0
  -29.7668  -22.9112   17.1909 H   0  0  0  0  0  0
  -30.5442  -19.9340   19.3077 H   0  0  0  0  0  0
  -28.8340  -19.5655   19.2390 H   0  0  0  0  0  0
  -29.0096  -25.8693   21.9245 H   0  0  0  0  0  0
  -27.3440  -25.4965   21.6193 H   0  0  0  0  0  0
  -30.4702  -19.4660   21.6399 H   0  0  0  0  0  0
  -28.9222  -19.0286   21.5681 H   0  0  0  0  0  0
  1 25  1  0  0  0
  1 30  2  0  0  0
  1 84  1  0  0  0
  2  3  1  0  0  0
  2 25  1  0  0  0
  2 86  1  0  0  0
  2 87  1  0  0  0
  3  4  1  0  0  0
  3 88  1  0  0  0
  3 89  1  0  0  0
  4  5  1  0  0  0
  4 90  1  0  0  0
  4 91  1  0  0  0
  5  6  1  0  0  0
  5 26  1  0  0  0
  5 92  1  0  0  0
  6 25  1  0  0  0
  6 93  1  0  0  0
  6 94  1  0  0  0
  7  8  2  0  0  0
  7 26  1  0  0  0
  7 29  1  0  0  0
  8  9  1  0  0  0
  8 22  1  0  0  0
  9 10  1  0  0  0
  9 27  2  0  0  0
 10 11  2  0  0  0
 10 15  1  0  0  0
 11 12  1  0  0  0
 11 95  1  0  0  0
 12 13  2  0  0  0
 12 96  1  0  0  0
 13 14  1  0  0  0
 13 31  1  0  0  0
 14 15  2  0  0  0
 14 97  1  0  0  0
 15 98  1  0  0  0
 16 17  2  0  0  0
 16 21  1  0  0  0
 16 31  1  0  0  0
 17 18  1  0  0  0
 17 99  1  0  0  0
 18 19  2  0  0  0
 18100  1  0  0  0
 19 20  1  0  0  0
 19 24  1  0  0  0
 20 21  2  0  0  0
 20101  1  0  0  0
 21 23  1  0  0  0
 22 28  1  0  0  0
 22 32  2  0  0  0
 26 27  1  0  0  0
 28102  1  0  0  0
 28103  1  0  0  0
 29104  1  0  0  0
 29105  1  0  0  0
 33 34  1  0  0  0
 33 66  1  0  0  0
 33 70  2  0  0  0
 34 36  1  0  0  0
 34 59  1  0  0  0
 34106  1  0  0  0
 35 44  2  0  0  0
 35 45  1  0  0  0
 35 68  1  0  0  0
 36 56  1  0  0  0
 36107  1  0  0  0
 37 39  1  0  0  0
 37 47  1  0  0  0
 37 66  1  0  0  0
 37108  1  0  0  0
 38 43  2  0  0  0
 38 46  1  0  0  0
 38 47  1  0  0  0
 39 64  1  0  0  0
 39 67  2  0  0  0
 40 52  1  0  0  0
 40 53  2  0  0  0
 40 58  1  0  0  0
 41109  1  0  0  0
 41110  1  0  0  0
 41111  1  0  0  0
 41 48  1  0  0  0
 42 43  1  0  0  0
 42 66  1  0  0  0
 42112  1  0  0  0
 42113  1  0  0  0
 43 44  1  0  0  0
 44114  1  0  0  0
 45 46  2  0  0  0
 45115  1  0  0  0
 46116  1  0  0  0
 47117  1  0  0  0
 47118  1  0  0  0
 48 56  1  0  0  0
 48 65  1  0  0  0
 48119  1  0  0  0
 49 50  1  0  0  0
 49 53  1  0  0  0
 49 64  1  0  0  0
 49120  1  0  0  0
 50 51  1  0  0  0
 50121  1  0  0  0
 50122  1  0  0  0
 51 52  1  0  0  0
 51123  1  0  0  0
 51124  1  0  0  0
 52125  1  0  0  0
 52126  1  0  0  0
 53 54  1  0  0  0
 54 55  2  0  0  0
 54127  1  0  0  0
 55 57  1  0  0  0
 55128  1  0  0  0
 56 69  2  0  0  0
 57 58  2  0  0  0
 57129  1  0  0  0
 58130  1  0  0  0
 59 60  1  0  0  0
 59 61  1  0  0  0
 59 62  1  0  0  0
 60131  1  0  0  0
 60132  1  0  0  0
 60133  1  0  0  0
 61134  1  0  0  0
 61135  1  0  0  0
 61136  1  0  0  0
 62137  1  0  0  0
 62138  1  0  0  0
 62139  1  0  0  0
 63 65  1  0  0  0
 63140  1  0  0  0
 63141  1  0  0  0
 63142  1  0  0  0
 64143  1  0  0  0
 65144  1  0  0  0
 68 81  1  0  0  0
 71 72  2  0  0  0
 71 82  1  0  0  0
 71145  1  0  0  0
 72 81  1  0  0  0
 72 83  1  0  0  0
 73 74  1  0  0  0
 73 79  1  0  0  0
 73 83  2  0  0  0
 74 80  1  0  0  0
 74 82  2  0  0  0
 75 77  1  0  0  0
 75 84  1  0  0  0
 75146  1  0  0  0
 75147  1  0  0  0
 76 77  1  0  0  0
 76 84  1  0  0  0
 76148  1  0  0  0
 76149  1  0  0  0
 77 85  1  0  0  0
 77150  1  0  0  0
 78 79  1  0  0  0
 78151  1  0  0  0
 78152  1  0  0  0
 78153  1  0  0  0
 79154  1  0  0  0
 79155  1  0  0  0
 80 85  1  0  0  0
 80156  1  0  0  0
 80157  1  0  0  0
 81158  1  0  0  0
 81159  1  0  0  0
 85160  1  0  0  0
 85161  1  0  0  0
M  CHG  1  85   1
M  ISO  4   1 100  68 101  81 101  84 100
M  END
> <chiral flag>
0

> <version>
0

> <s_m_source_file>
/data/baiqing/PycharmProjects/Reinvent-master-3.2/result/LINK_invent/BTK/process_docking_weight1_custom_sum_contain_oxygen_bond_distance_aromatic_linkinvent_7_9_3/rearranged_h_0193.sdf

> <i_m_source_file_index>
38

> <r_mmod_Potential_Energy-OPLS-2005>
-100.082038879395

> <r_mmod_Stretch_Energy-OPLS-2005>
56.3892822265625

> <r_mmod_Bend_Energy-OPLS-2005>
122.865562438965

> <r_mmod_Torsional_Energy-OPLS-2005>
308.3466796875

> <r_mmod_Improper_Torsional_Energy-OPLS-2005>
8.77302265167236

> <r_mmod_Van_der_Waal_Energy-OPLS-2005>
143.890228271484

> <r_mmod_Electrostatic_Energy-OPLS-2005>
-269.749603271484

> <r_mmod_Solvation_Energy-OPLS-2005>
-493.449737548828

> <b_mmod_Minimization_Converged-OPLS-2005>
0

> <r_mmod_RMS_Derivative-OPLS-2005>
1.23017406463623

$$$$
38
                    3D
 Structure written by MMmdl.
162171  0  0  1  0            999 V2000
  -30.7004  -14.5404   20.5796 C   0  0  0  0  0  0
  -30.4174  -12.3544   19.4409 C   0  0  0  0  0  0
  -29.4963  -12.5194   18.2152 C   0  0  0  0  0  0
  -28.0213  -12.3612   18.6290 C   0  0  0  0  0  0
  -27.6552  -13.2180   19.8706 C   0  0  2  0  0  0
  -28.6956  -13.0499   21.0003 C   0  0  0  0  0  0
  -25.2563  -13.8179   20.5696 C   0  0  0  0  0  0
  -24.1838  -13.0440   20.9201 C   0  0  0  0  0  0
  -24.6408  -11.6910   20.8751 C   0  0  0  0  0  0
  -23.9076  -10.4289   21.0416 C   0  0  0  0  0  0
  -24.3624   -9.4200   21.9189 C   0  0  0  0  0  0
  -23.6295   -8.2235   22.0752 C   0  0  0  0  0  0
  -22.4276   -8.0282   21.3545 C   0  0  0  0  0  0
  -21.9919   -9.0257   20.4644 C   0  0  0  0  0  0
  -22.7252  -10.2136   20.3061 C   0  0  0  0  0  0
  -21.6851   -6.0739   22.5282 C   0  0  0  0  0  0
  -21.4018   -6.5645   23.8219 C   0  0  0  0  0  0
  -21.3660   -5.6793   24.9181 C   0  0  0  0  0  0
  -21.6049   -4.3055   24.7235 C   0  0  0  0  0  0
  -21.8817   -3.8147   23.4355 C   0  0  0  0  0  0
  -21.9194   -4.6965   22.3408 C   0  0  0  0  0  0
  -22.7860  -13.5229   21.1857 C   0  0  0  0  0  0
  -22.1659   -4.2150   21.0987 F   0  0  0  0  0  0
  -21.5626   -3.4543   25.7748 F   0  0  0  0  0  0
  -30.0193  -13.3626   20.4429 N   0  0  0  0  0  0
  -26.2998  -12.9369   20.3347 N   0  0  0  0  0  0
  -25.9334  -11.6519   20.5767 N   0  0  0  0  0  0
  -22.0500  -12.8214   22.0408 N   0  0  0  0  0  0
  -25.4273  -15.1897   20.4084 N   0  0  0  0  0  0
  -31.8205  -14.7004   20.0834 O   0  0  0  0  0  0
  -21.6642   -6.8881   21.4242 O   0  0  0  0  0  0
  -22.3547  -14.5539   20.6710 O   0  0  0  0  0  0
  -24.6211  -31.8628   23.2069 C   0  0  0  0  0  0
  -25.9078  -32.4790   23.8384 C   0  0  1  0  0  0
  -27.2243  -27.3642   20.1025 C   0  0  0  0  0  0
  -25.5908  -33.8597   24.2307 N   0  0  0  0  0  0
  -23.4114  -30.4874   21.5489 C   0  0  2  0  0  0
  -24.8559  -28.9487   20.1100 C   0  0  0  0  0  0
  -22.7439  -29.4640   22.4963 C   0  0  0  0  0  0
  -18.0280  -28.1377   22.8495 C   0  0  0  0  0  0
  -24.1486  -36.7304   23.2634 C   0  0  0  0  0  0
  -25.9477  -30.8047   21.3733 C   0  0  0  0  0  0
  -26.0202  -29.4360   20.7150 C   0  0  0  0  0  0
  -27.2047  -28.6520   20.7062 C   0  0  0  0  0  0
  -26.0409  -26.9202   19.4668 C   0  0  0  0  0  0
  -24.8656  -27.6944   19.4793 C   0  0  0  0  0  0
  -23.6215  -29.8226   20.1627 C   0  0  0  0  0  0
  -25.4106  -36.3093   24.0335 C   0  0  1  0  0  0
  -20.5874  -28.3681   23.1297 C   0  0  2  0  0  0
  -20.6768  -26.9407   22.5416 C   0  0  0  0  0  0
  -19.5745  -26.6381   21.5213 C   0  0  0  0  0  0
  -18.1922  -26.7927   22.1620 C   0  0  0  0  0  0
  -19.1531  -28.8846   23.2892 C   0  0  0  0  0  0
  -18.9453  -30.1454   23.8903 C   0  0  0  0  0  0
  -17.6452  -30.6584   24.0566 C   0  0  0  0  0  0
  -25.9042  -34.9459   23.5122 C   0  0  0  0  0  0
  -16.5347  -29.9080   23.6328 C   0  0  0  0  0  0
  -16.7270  -28.6496   23.0354 C   0  0  0  0  0  0
  -26.4487  -31.6585   25.0736 C   0  0  0  0  0  0
  -25.3740  -31.3702   26.1474 C   0  0  0  0  0  0
  -27.0321  -30.3013   24.6162 C   0  0  0  0  0  0
  -27.6060  -32.4312   25.7494 C   0  0  0  0  0  0
  -27.5595  -37.1790   24.8452 C   0  0  0  0  0  0
  -21.4158  -29.3037   22.3700 N   0  0  0  0  0  0
  -26.4284  -37.3786   23.9424 N   0  0  0  0  0  0
  -24.6785  -31.0676   22.1001 N   0  0  0  0  0  0
  -23.4180  -28.8171   23.3027 O   0  0  0  0  0  0
  -28.3724  -26.5754   20.1560 O   0  0  0  0  0  0
  -26.5609  -34.8917   22.4688 O   0  0  0  0  0  0
  -23.5392  -32.1412   23.7426 O   0  0  0  0  0  0
  -30.4654  -17.7145   22.3732 C   0  0  0  0  0  0
  -30.9457  -20.9441   20.8400 C   0  0  0  0  0  0
  -30.8399  -16.2195   22.3587 C   0  0  0  0  0  0
  -30.9019  -22.4823   20.8997 C   0  0  0  0  0  0
  -29.3061  -16.6321   20.6095 C   0  0  0  0  0  0
  -28.7307  -21.7999   20.5520 C   0  0  0  0  0  0
  -29.9447  -18.0104   20.9690 C   0  0  1  0  0  0
  -29.5797  -20.5046   20.3075 C   0  0  2  0  0  0
  -29.3219  -24.2987   20.7128 C   0  0  0  0  0  0
  -28.2869  -25.1383   19.8893 C   0  0  0  0  0  0
  -30.0987  -15.5577   21.2692 N   0  0  0  0  0  0
  -29.6552  -22.9162   20.2581 N   0  0  0  0  0  0
  -29.0445  -19.2214   20.8947 N   0  3  0  0  0  0
  -31.4632  -12.4481   19.1446 H   0  0  0  0  0  0
  -30.3179  -11.3517   19.8594 H   0  0  0  0  0  0
  -29.7500  -11.7860   17.4483 H   0  0  0  0  0  0
  -29.6515  -13.5010   17.7640 H   0  0  0  0  0  0
  -27.8515  -11.3054   18.8446 H   0  0  0  0  0  0
  -27.3656  -12.6095   17.7933 H   0  0  0  0  0  0
  -27.6821  -14.2596   19.5500 H   0  0  0  0  0  0
  -28.6851  -12.0275   21.3814 H   0  0  0  0  0  0
  -28.4453  -13.6869   21.8497 H   0  0  0  0  0  0
  -25.2769   -9.5674   22.4763 H   0  0  0  0  0  0
  -24.0008   -7.4628   22.7472 H   0  0  0  0  0  0
  -21.0846   -8.8787   19.8943 H   0  0  0  0  0  0
  -22.3718  -10.9684   19.6171 H   0  0  0  0  0  0
  -21.2009   -7.6151   23.9724 H   0  0  0  0  0  0
  -21.1481   -6.0526   25.9085 H   0  0  0  0  0  0
  -22.0590   -2.7609   23.2865 H   0  0  0  0  0  0
  -22.4115  -11.9880   22.4802 H   0  0  0  0  0  0
  -21.1113  -13.1236   22.2600 H   0  0  0  0  0  0
  -24.6553  -15.8414   20.4997 H   0  0  0  0  0  0
  -26.2734  -15.6211   20.0603 H   0  0  0  0  0  0
  -26.7138  -32.5468   23.1131 H   0  0  0  0  0  0
  -25.0059  -33.9749   25.0453 H   0  0  0  0  0  0
  -22.7039  -31.3073   21.4094 H   0  0  0  0  0  0
  -23.3764  -35.9618   23.3246 H   0  0  0  0  0  0
  -24.3592  -36.8979   22.2061 H   0  0  0  0  0  0
  -23.7212  -37.6481   23.6688 H   0  0  0  0  0  0
  -26.0751  -31.5697   20.6068 H   0  0  0  0  0  0
  -26.8306  -30.8511   21.9996 H   0  0  0  0  0  0
  -28.0994  -29.0211   21.1874 H   0  0  0  0  0  0
  -25.9995  -25.9721   18.9517 H   0  0  0  0  0  0
  -23.9742  -27.3196   18.9949 H   0  0  0  0  0  0
  -23.7323  -30.5990   19.4051 H   0  0  0  0  0  0
  -22.7426  -29.2471   19.8660 H   0  0  0  0  0  0
  -25.1278  -36.1954   25.0828 H   0  0  0  0  0  0
  -20.9974  -28.3254   24.1415 H   0  0  0  0  0  0
  -20.5673  -26.2291   23.3609 H   0  0  0  0  0  0
  -21.6637  -26.7436   22.1212 H   0  0  0  0  0  0
  -19.6906  -25.6293   21.1237 H   0  0  0  0  0  0
  -19.6685  -27.3198   20.6747 H   0  0  0  0  0  0
  -17.4200  -26.6702   21.4010 H   0  0  0  0  0  0
  -18.0303  -26.0055   22.9001 H   0  0  0  0  0  0
  -19.7926  -30.7276   24.2270 H   0  0  0  0  0  0
  -17.5000  -31.6263   24.5168 H   0  0  0  0  0  0
  -15.5349  -30.2985   23.7637 H   0  0  0  0  0  0
  -15.8671  -28.0812   22.7068 H   0  0  0  0  0  0
  -24.5913  -30.7053   25.7807 H   0  0  0  0  0  0
  -24.8936  -32.2858   26.4933 H   0  0  0  0  0  0
  -25.8083  -30.8860   27.0228 H   0  0  0  0  0  0
  -26.2882  -29.6764   24.1205 H   0  0  0  0  0  0
  -27.4044  -29.7267   25.4655 H   0  0  0  0  0  0
  -27.8743  -30.4304   23.9360 H   0  0  0  0  0  0
  -27.2680  -33.3605   26.2092 H   0  0  0  0  0  0
  -28.3855  -32.6880   25.0309 H   0  0  0  0  0  0
  -28.0741  -31.8422   26.5389 H   0  0  0  0  0  0
  -28.2559  -38.0141   24.7574 H   0  0  0  0  0  0
  -28.1145  -36.2677   24.6174 H   0  0  0  0  0  0
  -27.2324  -37.1323   25.8853 H   0  0  0  0  0  0
  -20.9332  -29.8772   21.6924 H   0  0  0  0  0  0
  -26.0170  -38.2853   24.1468 H   0  0  0  0  0  0
  -31.3112  -18.3455   22.6500 H   0  0  0  0  0  0
  -29.6801  -17.8791   23.1130 H   0  0  0  0  0  0
  -31.1420  -20.5580   21.8399 H   0  0  0  0  0  0
  -31.7490  -20.5922   20.1919 H   0  0  0  0  0  0
  -30.5973  -15.7486   23.3126 H   0  0  0  0  0  0
  -31.9184  -16.1160   22.2251 H   0  0  0  0  0  0
  -31.7727  -22.9339   20.4213 H   0  0  0  0  0  0
  -30.9129  -22.7919   21.9476 H   0  0  0  0  0  0
  -29.2521  -16.4907   19.5284 H   0  0  0  0  0  0
  -28.2873  -16.5691   20.9938 H   0  0  0  0  0  0
  -28.4145  -21.8533   21.5958 H   0  0  0  0  0  0
  -27.8358  -21.8383   19.9289 H   0  0  0  0  0  0
  -30.7935  -18.1576   20.2983 H   0  0  0  0  0  0
  -29.6684  -20.3582   19.2293 H   0  0  0  0  0  0
  -29.0286  -24.2862   21.7641 H   0  0  0  0  0  0
  -30.2519  -24.8690   20.6781 H   0  0  0  0  0  0
  -27.3022  -24.7349   20.1242 H   0  0  0  0  0  0
  -28.4525  -24.9858   18.8219 H   0  0  0  0  0  0
  -28.6934  -19.4092   21.8201 H   0  0  0  0  0  0
  -28.2452  -18.9738   20.3338 H   0  0  0  0  0  0
  1 25  1  0  0  0
  1 30  2  0  0  0
  1 81  1  0  0  0
  2  3  1  0  0  0
  2 25  1  0  0  0
  2 84  1  0  0  0
  2 85  1  0  0  0
  3  4  1  0  0  0
  3 86  1  0  0  0
  3 87  1  0  0  0
  4  5  1  0  0  0
  4 88  1  0  0  0
  4 89  1  0  0  0
  5  6  1  0  0  0
  5 26  1  0  0  0
  5 90  1  0  0  0
  6 25  1  0  0  0
  6 91  1  0  0  0
  6 92  1  0  0  0
  7  8  2  0  0  0
  7 26  1  0  0  0
  7 29  1  0  0  0
  8  9  1  0  0  0
  8 22  1  0  0  0
  9 10  1  0  0  0
  9 27  2  0  0  0
 10 11  2  0  0  0
 10 15  1  0  0  0
 11 12  1  0  0  0
 11 93  1  0  0  0
 12 13  2  0  0  0
 12 94  1  0  0  0
 13 14  1  0  0  0
 13 31  1  0  0  0
 14 15  2  0  0  0
 14 95  1  0  0  0
 15 96  1  0  0  0
 16 17  2  0  0  0
 16 21  1  0  0  0
 16 31  1  0  0  0
 17 18  1  0  0  0
 17 97  1  0  0  0
 18 19  2  0  0  0
 18 98  1  0  0  0
 19 20  1  0  0  0
 19 24  1  0  0  0
 20 21  2  0  0  0
 20 99  1  0  0  0
 21 23  1  0  0  0
 22 28  1  0  0  0
 22 32  2  0  0  0
 26 27  1  0  0  0
 28100  1  0  0  0
 28101  1  0  0  0
 29102  1  0  0  0
 29103  1  0  0  0
 33 34  1  0  0  0
 33 66  1  0  0  0
 33 70  2  0  0  0
 34 36  1  0  0  0
 34 59  1  0  0  0
 34104  1  0  0  0
 35 44  2  0  0  0
 35 45  1  0  0  0
 35 68  1  0  0  0
 36 56  1  0  0  0
 36105  1  0  0  0
 37 39  1  0  0  0
 37 47  1  0  0  0
 37 66  1  0  0  0
 37106  1  0  0  0
 38 43  2  0  0  0
 38 46  1  0  0  0
 38 47  1  0  0  0
 39 64  1  0  0  0
 39 67  2  0  0  0
 40 52  1  0  0  0
 40 53  2  0  0  0
 40 58  1  0  0  0
 41107  1  0  0  0
 41108  1  0  0  0
 41109  1  0  0  0
 41 48  1  0  0  0
 42 43  1  0  0  0
 42 66  1  0  0  0
 42110  1  0  0  0
 42111  1  0  0  0
 43 44  1  0  0  0
 44112  1  0  0  0
 45 46  2  0  0  0
 45113  1  0  0  0
 46114  1  0  0  0
 47115  1  0  0  0
 47116  1  0  0  0
 48 56  1  0  0  0
 48 65  1  0  0  0
 48117  1  0  0  0
 49 50  1  0  0  0
 49 53  1  0  0  0
 49 64  1  0  0  0
 49118  1  0  0  0
 50 51  1  0  0  0
 50119  1  0  0  0
 50120  1  0  0  0
 51 52  1  0  0  0
 51121  1  0  0  0
 51122  1  0  0  0
 52123  1  0  0  0
 52124  1  0  0  0
 53 54  1  0  0  0
 54 55  2  0  0  0
 54125  1  0  0  0
 55 57  1  0  0  0
 55126  1  0  0  0
 56 69  2  0  0  0
 57 58  2  0  0  0
 57127  1  0  0  0
 58128  1  0  0  0
 59 60  1  0  0  0
 59 61  1  0  0  0
 59 62  1  0  0  0
 60129  1  0  0  0
 60130  1  0  0  0
 60131  1  0  0  0
 61132  1  0  0  0
 61133  1  0  0  0
 61134  1  0  0  0
 62135  1  0  0  0
 62136  1  0  0  0
 62137  1  0  0  0
 63 65  1  0  0  0
 63138  1  0  0  0
 63139  1  0  0  0
 63140  1  0  0  0
 64141  1  0  0  0
 65142  1  0  0  0
 68 80  1  0  0  0
 71 73  1  0  0  0
 71 77  1  0  0  0
 71143  1  0  0  0
 71144  1  0  0  0
 72 74  1  0  0  0
 72 78  1  0  0  0
 72145  1  0  0  0
 72146  1  0  0  0
 73 81  1  0  0  0
 73147  1  0  0  0
 73148  1  0  0  0
 74 82  1  0  0  0
 74149  1  0  0  0
 74150  1  0  0  0
 75 77  1  0  0  0
 75 81  1  0  0  0
 75151  1  0  0  0
 75152  1  0  0  0
 76 78  1  0  0  0
 76 82  1  0  0  0
 76153  1  0  0  0
 76154  1  0  0  0
 77 83  1  0  0  0
 77155  1  0  0  0
 78 83  1  0  0  0
 78156  1  0  0  0
 79 80  1  0  0  0
 79 82  1  0  0  0
 79157  1  0  0  0
 79158  1  0  0  0
 80159  1  0  0  0
 80160  1  0  0  0
 83161  1  0  0  0
 83162  1  0  0  0
M  CHG  1  83   1
M  ISO  4   1 100  68 101  80 101  81 100
M  END
> <chiral flag>
0

> <version>
0

> <s_m_source_file>
/data/baiqing/PycharmProjects/Reinvent-master-3.2/result/LINK_invent/BTK/process_docking_weight1_custom_sum_contain_oxygen_bond_distance_aromatic_linkinvent_7_9_3/rearranged_h_0193.sdf

> <i_m_source_file_index>
39

> <r_mmod_Potential_Energy-OPLS-2005>
141.446563720703

> <r_mmod_Stretch_Energy-OPLS-2005>
57.694938659668

> <r_mmod_Bend_Energy-OPLS-2005>
171.392730712891

> <r_mmod_Torsional_Energy-OPLS-2005>
404.470825195312

> <r_mmod_Improper_Torsional_Energy-OPLS-2005>
5.73524236679077

> <r_mmod_Van_der_Waal_Energy-OPLS-2005>
123.758247375488

> <r_mmod_Electrostatic_Energy-OPLS-2005>
-175.055068969727

> <r_mmod_Solvation_Energy-OPLS-2005>
-472.457672119141

> <b_mmod_Minimization_Converged-OPLS-2005>
0

> <r_mmod_RMS_Derivative-OPLS-2005>
1.37841165065765

$$$$
39
                    3D
 Structure written by MMmdl.
155164  0  0  1  0            999 V2000
  -30.7541  -14.6063   20.4172 C   0  0  0  0  0  0
  -30.4076  -12.3594   19.4587 C   0  0  0  0  0  0
  -29.4856  -12.4313   18.2249 C   0  0  0  0  0  0
  -28.0182  -12.2962   18.6570 C   0  0  0  0  0  0
  -27.6477  -13.2224   19.8465 C   0  0  2  0  0  0
  -28.7037  -13.1775   20.9760 C   0  0  0  0  0  0
  -25.2585  -13.8174   20.5789 C   0  0  0  0  0  0
  -24.1851  -13.0448   20.9278 C   0  0  0  0  0  0
  -24.6417  -11.6913   20.8790 C   0  0  0  0  0  0
  -23.9090  -10.4290   21.0399 C   0  0  0  0  0  0
  -24.3636   -9.4215   21.9189 C   0  0  0  0  0  0
  -23.6323   -8.2243   22.0741 C   0  0  0  0  0  0
  -22.4298   -8.0297   21.3536 C   0  0  0  0  0  0
  -21.9956   -9.0277   20.4634 C   0  0  0  0  0  0
  -22.7272  -10.2150   20.3053 C   0  0  0  0  0  0
  -21.6857   -6.0761   22.5298 C   0  0  0  0  0  0
  -21.3996   -6.5648   23.8233 C   0  0  0  0  0  0
  -21.3654   -5.6797   24.9191 C   0  0  0  0  0  0
  -21.6048   -4.3067   24.7222 C   0  0  0  0  0  0
  -21.8821   -3.8176   23.4339 C   0  0  0  0  0  0
  -21.9199   -4.6993   22.3409 C   0  0  0  0  0  0
  -22.7864  -13.5242   21.1934 C   0  0  0  0  0  0
  -22.1671   -4.2193   21.0980 F   0  0  0  0  0  0
  -21.5643   -3.4546   25.7725 F   0  0  0  0  0  0
  -30.0157  -13.4539   20.3752 N   0  0  0  0  0  0
  -26.3009  -12.9401   20.3378 N   0  0  0  0  0  0
  -25.9356  -11.6546   20.5853 N   0  0  0  0  0  0
  -22.0520  -12.8188   22.0435 N   0  0  0  0  0  0
  -25.4306  -15.1894   20.4114 N   0  0  0  0  0  0
  -31.9470  -14.5682   20.1231 O   0  0  0  0  0  0
  -21.6660   -6.8900   21.4254 O   0  0  0  0  0  0
  -22.3545  -14.5566   20.6809 O   0  0  0  0  0  0
  -24.6279  -31.8619   23.2070 C   0  0  0  0  0  0
  -25.9102  -32.4798   23.8419 C   0  0  1  0  0  0
  -27.2140  -27.3252   20.0926 C   0  0  0  0  0  0
  -25.5902  -33.8607   24.2338 N   0  0  0  0  0  0
  -23.4237  -30.4898   21.5464 C   0  0  2  0  0  0
  -24.8645  -28.9574   20.1020 C   0  0  0  0  0  0
  -22.7510  -29.4641   22.4889 C   0  0  0  0  0  0
  -18.0298  -28.1429   22.8504 C   0  0  0  0  0  0
  -24.1441  -36.7258   23.2657 C   0  0  0  0  0  0
  -25.9690  -30.7868   21.3855 C   0  0  0  0  0  0
  -26.0322  -29.4186   20.7219 C   0  0  0  0  0  0
  -27.2068  -28.6076   20.7185 C   0  0  0  0  0  0
  -26.0285  -26.9333   19.4231 C   0  0  0  0  0  0
  -24.8665  -27.7205   19.4437 C   0  0  0  0  0  0
  -23.6361  -29.8404   20.1550 C   0  0  0  0  0  0
  -25.4073  -36.3089   24.0358 C   0  0  1  0  0  0
  -20.5919  -28.3706   23.1275 C   0  0  2  0  0  0
  -20.6761  -26.9406   22.5433 C   0  0  0  0  0  0
  -19.5715  -26.6409   21.5248 C   0  0  0  0  0  0
  -18.1909  -26.7982   22.1653 C   0  0  0  0  0  0
  -19.1562  -28.8880   23.2897 C   0  0  0  0  0  0
  -18.9486  -30.1487   23.8912 C   0  0  0  0  0  0
  -17.6481  -30.6620   24.0580 C   0  0  0  0  0  0
  -25.9034  -34.9474   23.5152 C   0  0  0  0  0  0
  -16.5369  -29.9137   23.6348 C   0  0  0  0  0  0
  -16.7289  -28.6559   23.0378 C   0  0  0  0  0  0
  -26.4503  -31.6648   25.0801 C   0  0  0  0  0  0
  -25.3745  -31.3821   26.1531 C   0  0  0  0  0  0
  -27.0384  -30.3086   24.6289 C   0  0  0  0  0  0
  -27.6049  -32.4429   25.7537 C   0  0  0  0  0  0
  -27.5547  -37.1777   24.8483 C   0  0  0  0  0  0
  -21.4207  -29.3070   22.3670 N   0  0  0  0  0  0
  -26.4251  -37.3789   23.9441 N   0  0  0  0  0  0
  -24.6916  -31.0657   22.1015 N   0  0  0  0  0  0
  -23.4238  -28.8151   23.2943 O   0  0  0  0  0  0
  -28.3219  -26.4658   20.1488 O   0  0  0  0  0  0
  -26.5600  -34.8931   22.4714 O   0  0  0  0  0  0
  -23.5412  -32.1415   23.7366 O   0  0  0  0  0  0
  -27.3012  -21.9865   20.3891 C   0  0  0  0  0  0
  -28.5888  -20.3456   20.3991 C   0  0  0  0  0  0
  -31.4702  -18.6441   20.8462 C   0  0  0  0  0  0
  -32.1165  -17.4888   20.0814 C   0  0  0  0  0  0
  -30.2688  -18.5184   19.9001 C   0  0  1  0  0  0
  -30.6901  -17.0022   19.6649 C   0  0  1  0  0  0
  -28.9986  -23.9264   20.5186 C   0  0  0  0  0  0
  -28.1068  -25.0341   19.8320 C   0  0  0  0  0  0
  -27.2558  -20.6491   20.3953 N   0  0  0  0  0  0
  -29.4028  -21.4217   20.3667 N   0  0  0  0  0  0
  -28.5381  -22.5035   20.3716 N   0  0  0  0  0  0
  -28.9843  -18.9613   20.4757 N   0  0  0  0  0  0
  -30.1382  -15.8312   20.4521 N   0  0  0  0  0  0
  -31.4517  -12.4053   19.1381 H   0  0  0  0  0  0
  -30.3049  -11.3927   19.9555 H   0  0  0  0  0  0
  -29.7320  -11.6246   17.5309 H   0  0  0  0  0  0
  -29.6397  -13.3631   17.6792 H   0  0  0  0  0  0
  -27.8710  -11.2563   18.9525 H   0  0  0  0  0  0
  -27.3484  -12.4609   17.8128 H   0  0  0  0  0  0
  -27.6465  -14.2375   19.4516 H   0  0  0  0  0  0
  -28.7083  -12.2000   21.4626 H   0  0  0  0  0  0
  -28.4743  -13.9091   21.7535 H   0  0  0  0  0  0
  -25.2770   -9.5710   22.4774 H   0  0  0  0  0  0
  -24.0087   -7.4608   22.7398 H   0  0  0  0  0  0
  -21.0947   -8.8750   19.8886 H   0  0  0  0  0  0
  -22.3740  -10.9693   19.6168 H   0  0  0  0  0  0
  -21.1942   -7.6148   23.9757 H   0  0  0  0  0  0
  -21.1480   -6.0511   25.9098 H   0  0  0  0  0  0
  -22.0596   -2.7659   23.2825 H   0  0  0  0  0  0
  -22.4168  -11.9839   22.4805 H   0  0  0  0  0  0
  -21.1113  -13.1118   22.2570 H   0  0  0  0  0  0
  -24.6799  -15.8556   20.5415 H   0  0  0  0  0  0
  -26.2793  -15.6183   20.0584 H   0  0  0  0  0  0
  -26.7156  -32.5454   23.1153 H   0  0  0  0  0  0
  -25.0038  -33.9782   25.0463 H   0  0  0  0  0  0
  -22.7192  -31.3140   21.4096 H   0  0  0  0  0  0
  -23.3737  -35.9557   23.3361 H   0  0  0  0  0  0
  -24.3521  -36.8841   22.2063 H   0  0  0  0  0  0
  -23.7170  -37.6470   23.6645 H   0  0  0  0  0  0
  -26.1191  -31.5521   20.6218 H   0  0  0  0  0  0
  -26.8434  -30.8235   22.0219 H   0  0  0  0  0  0
  -28.0959  -28.9498   21.2304 H   0  0  0  0  0  0
  -25.9692  -26.0089   18.8706 H   0  0  0  0  0  0
  -23.9818  -27.3777   18.9274 H   0  0  0  0  0  0
  -23.7505  -30.6284   19.4088 H   0  0  0  0  0  0
  -22.7550  -29.2748   19.8460 H   0  0  0  0  0  0
  -25.1245  -36.1957   25.0851 H   0  0  0  0  0  0
  -21.0029  -28.3265   24.1380 H   0  0  0  0  0  0
  -20.5689  -26.2285   23.3641 H   0  0  0  0  0  0
  -21.6597  -26.7443   22.1155 H   0  0  0  0  0  0
  -19.6832  -25.6339   21.1240 H   0  0  0  0  0  0
  -19.6626  -27.3240   20.6805 H   0  0  0  0  0  0
  -17.4158  -26.6794   21.4067 H   0  0  0  0  0  0
  -18.0229  -26.0163   22.9068 H   0  0  0  0  0  0
  -19.7975  -30.7322   24.2246 H   0  0  0  0  0  0
  -17.5051  -31.6289   24.5204 H   0  0  0  0  0  0
  -15.5383  -30.3033   23.7698 H   0  0  0  0  0  0
  -15.8692  -28.0895   22.7077 H   0  0  0  0  0  0
  -24.5854  -30.7231   25.7897 H   0  0  0  0  0  0
  -24.8981  -32.3004   26.4995 H   0  0  0  0  0  0
  -25.8041  -30.8986   27.0310 H   0  0  0  0  0  0
  -26.2992  -29.6816   24.1285 H   0  0  0  0  0  0
  -27.4094  -29.7377   25.4824 H   0  0  0  0  0  0
  -27.8845  -30.4449   23.9540 H   0  0  0  0  0  0
  -27.2651  -33.3743   26.2091 H   0  0  0  0  0  0
  -28.3826  -32.7011   25.0332 H   0  0  0  0  0  0
  -28.0743  -31.8600   26.5475 H   0  0  0  0  0  0
  -28.2599  -38.0046   24.7505 H   0  0  0  0  0  0
  -28.1011  -36.2585   24.6319 H   0  0  0  0  0  0
  -27.2265  -37.1428   25.8891 H   0  0  0  0  0  0
  -20.9375  -29.8862   21.6934 H   0  0  0  0  0  0
  -26.0146  -38.2861   24.1495 H   0  0  0  0  0  0
  -26.4051  -22.5953   20.4347 H   0  0  0  0  0  0
  -32.0177  -19.5867   20.7794 H   0  0  0  0  0  0
  -31.2579  -18.3757   21.8839 H   0  0  0  0  0  0
  -32.7275  -16.8454   20.7195 H   0  0  0  0  0  0
  -32.7096  -17.8465   19.2282 H   0  0  0  0  0  0
  -30.4516  -19.0751   18.9762 H   0  0  0  0  0  0
  -30.6744  -16.7796   18.5946 H   0  0  0  0  0  0
  -29.0316  -24.1412   21.5885 H   0  0  0  0  0  0
  -30.0294  -23.9930   20.1677 H   0  0  0  0  0  0
  -27.0950  -24.7587   20.1187 H   0  0  0  0  0  0
  -28.1775  -24.9163   18.7502 H   0  0  0  0  0  0
  -28.2136  -18.3006   20.4967 H   0  0  0  0  0  0
  -29.1515  -15.8459   20.6613 H   0  0  0  0  0  0
  1 25  1  0  0  0
  1 30  2  0  0  0
  1 83  1  0  0  0
  2  3  1  0  0  0
  2 25  1  0  0  0
  2 84  1  0  0  0
  2 85  1  0  0  0
  3  4  1  0  0  0
  3 86  1  0  0  0
  3 87  1  0  0  0
  4  5  1  0  0  0
  4 88  1  0  0  0
  4 89  1  0  0  0
  5  6  1  0  0  0
  5 26  1  0  0  0
  5 90  1  0  0  0
  6 25  1  0  0  0
  6 91  1  0  0  0
  6 92  1  0  0  0
  7  8  2  0  0  0
  7 26  1  0  0  0
  7 29  1  0  0  0
  8  9  1  0  0  0
  8 22  1  0  0  0
  9 10  1  0  0  0
  9 27  2  0  0  0
 10 11  2  0  0  0
 10 15  1  0  0  0
 11 12  1  0  0  0
 11 93  1  0  0  0
 12 13  2  0  0  0
 12 94  1  0  0  0
 13 14  1  0  0  0
 13 31  1  0  0  0
 14 15  2  0  0  0
 14 95  1  0  0  0
 15 96  1  0  0  0
 16 17  2  0  0  0
 16 21  1  0  0  0
 16 31  1  0  0  0
 17 18  1  0  0  0
 17 97  1  0  0  0
 18 19  2  0  0  0
 18 98  1  0  0  0
 19 20  1  0  0  0
 19 24  1  0  0  0
 20 21  2  0  0  0
 20 99  1  0  0  0
 21 23  1  0  0  0
 22 28  1  0  0  0
 22 32  2  0  0  0
 26 27  1  0  0  0
 28100  1  0  0  0
 28101  1  0  0  0
 29102  1  0  0  0
 29103  1  0  0  0
 33 34  1  0  0  0
 33 66  1  0  0  0
 33 70  2  0  0  0
 34 36  1  0  0  0
 34 59  1  0  0  0
 34104  1  0  0  0
 35 44  2  0  0  0
 35 45  1  0  0  0
 35 68  1  0  0  0
 36 56  1  0  0  0
 36105  1  0  0  0
 37 39  1  0  0  0
 37 47  1  0  0  0
 37 66  1  0  0  0
 37106  1  0  0  0
 38 43  2  0  0  0
 38 46  1  0  0  0
 38 47  1  0  0  0
 39 64  1  0  0  0
 39 67  2  0  0  0
 40 52  1  0  0  0
 40 53  2  0  0  0
 40 58  1  0  0  0
 41107  1  0  0  0
 41108  1  0  0  0
 41109  1  0  0  0
 41 48  1  0  0  0
 42 43  1  0  0  0
 42 66  1  0  0  0
 42110  1  0  0  0
 42111  1  0  0  0
 43 44  1  0  0  0
 44112  1  0  0  0
 45 46  2  0  0  0
 45113  1  0  0  0
 46114  1  0  0  0
 47115  1  0  0  0
 47116  1  0  0  0
 48 56  1  0  0  0
 48 65  1  0  0  0
 48117  1  0  0  0
 49 50  1  0  0  0
 49 53  1  0  0  0
 49 64  1  0  0  0
 49118  1  0  0  0
 50 51  1  0  0  0
 50119  1  0  0  0
 50120  1  0  0  0
 51 52  1  0  0  0
 51121  1  0  0  0
 51122  1  0  0  0
 52123  1  0  0  0
 52124  1  0  0  0
 53 54  1  0  0  0
 54 55  2  0  0  0
 54125  1  0  0  0
 55 57  1  0  0  0
 55126  1  0  0  0
 56 69  2  0  0  0
 57 58  2  0  0  0
 57127  1  0  0  0
 58128  1  0  0  0
 59 60  1  0  0  0
 59 61  1  0  0  0
 59 62  1  0  0  0
 60129  1  0  0  0
 60130  1  0  0  0
 60131  1  0  0  0
 61132  1  0  0  0
 61133  1  0  0  0
 61134  1  0  0  0
 62135  1  0  0  0
 62136  1  0  0  0
 62137  1  0  0  0
 63 65  1  0  0  0
 63138  1  0  0  0
 63139  1  0  0  0
 63140  1  0  0  0
 64141  1  0  0  0
 65142  1  0  0  0
 68 78  1  0  0  0
 71 79  2  0  0  0
 71 81  1  0  0  0
 71143  1  0  0  0
 72 79  1  0  0  0
 72 80  2  0  0  0
 72 82  1  0  0  0
 73 74  1  0  0  0
 73 75  1  0  0  0
 73144  1  0  0  0
 73145  1  0  0  0
 74 76  1  0  0  0
 74146  1  0  0  0
 74147  1  0  0  0
 75 76  1  0  0  0
 75 82  1  0  0  0
 75148  1  0  0  0
 76 83  1  0  0  0
 76149  1  0  0  0
 77 78  1  0  0  0
 77 81  1  0  0  0
 77150  1  0  0  0
 77151  1  0  0  0
 78152  1  0  0  0
 78153  1  0  0  0
 80 81  1  0  0  0
 82154  1  0  0  0
 83155  1  0  0  0
M  ISO  4   1 100  68 101  78 101  83 100
M  END
> <chiral flag>
0

> <version>
0

> <s_m_source_file>
/data/baiqing/PycharmProjects/Reinvent-master-3.2/result/LINK_invent/BTK/process_docking_weight1_custom_sum_contain_oxygen_bond_distance_aromatic_linkinvent_7_9_3/rearranged_h_0193.sdf

> <i_m_source_file_index>
40

> <r_mmod_Potential_Energy-OPLS-2005>
-45.9473075866699

> <r_mmod_Stretch_Energy-OPLS-2005>
73.6220855712891

> <r_mmod_Bend_Energy-OPLS-2005>
189.925262451172

> <r_mmod_Torsional_Energy-OPLS-2005>
267.904968261719

> <r_mmod_Improper_Torsional_Energy-OPLS-2005>
12.4565420150757

> <r_mmod_Van_der_Waal_Energy-OPLS-2005>
134.450942993164

> <r_mmod_Electrostatic_Energy-OPLS-2005>
-540.681823730469

> <r_mmod_Solvation_Energy-OPLS-2005>
-243.099502563477

> <b_mmod_Minimization_Converged-OPLS-2005>
0

> <r_mmod_RMS_Derivative-OPLS-2005>
6.46814441680908

$$$$
40
                    3D
 Structure written by MMmdl.
161171  0  0  1  0            999 V2000
  -30.8458  -14.3194   20.7401 C   0  0  0  0  0  0
  -30.4030  -12.2870   19.4127 C   0  0  0  0  0  0
  -29.4797  -12.5170   18.2056 C   0  0  0  0  0  0
  -28.0109  -12.3546   18.6239 C   0  0  0  0  0  0
  -27.6593  -13.2103   19.8650 C   0  0  2  0  0  0
  -28.6919  -13.0258   20.9997 C   0  0  0  0  0  0
  -25.2564  -13.8210   20.5669 C   0  0  0  0  0  0
  -24.1824  -13.0487   20.9183 C   0  0  0  0  0  0
  -24.6390  -11.6950   20.8745 C   0  0  0  0  0  0
  -23.9079  -10.4314   21.0413 C   0  0  0  0  0  0
  -24.3633   -9.4223   21.9178 C   0  0  0  0  0  0
  -23.6316   -8.2261   22.0752 C   0  0  0  0  0  0
  -22.4291   -8.0295   21.3549 C   0  0  0  0  0  0
  -21.9928   -9.0268   20.4650 C   0  0  0  0  0  0
  -22.7253  -10.2163   20.3057 C   0  0  0  0  0  0
  -21.6856   -6.0752   22.5298 C   0  0  0  0  0  0
  -21.4009   -6.5655   23.8226 C   0  0  0  0  0  0
  -21.3657   -5.6808   24.9186 C   0  0  0  0  0  0
  -21.6057   -4.3070   24.7237 C   0  0  0  0  0  0
  -21.8822   -3.8171   23.4358 C   0  0  0  0  0  0
  -21.9181   -4.6982   22.3415 C   0  0  0  0  0  0
  -22.7843  -13.5245   21.1882 C   0  0  0  0  0  0
  -22.1650   -4.2174   21.0991 F   0  0  0  0  0  0
  -21.5634   -3.4558   25.7742 F   0  0  0  0  0  0
  -30.0566  -13.2430   20.4795 N   0  0  0  0  0  0
  -26.2997  -12.9381   20.3313 N   0  0  0  0  0  0
  -25.9310  -11.6539   20.5786 N   0  0  0  0  0  0
  -22.0487  -12.8216   22.0439 N   0  0  0  0  0  0
  -25.4350  -15.1935   20.4095 N   0  0  0  0  0  0
  -31.7700  -14.6624   19.9946 O   0  0  0  0  0  0
  -21.6654   -6.8909   21.4264 O   0  0  0  0  0  0
  -22.3508  -14.5537   20.6729 O   0  0  0  0  0  0
  -24.6105  -31.8697   23.2158 C   0  0  0  0  0  0
  -25.9025  -32.4835   23.8428 C   0  0  1  0  0  0
  -27.2372  -27.4830   20.0706 C   0  0  0  0  0  0
  -25.5917  -33.8639   24.2357 N   0  0  0  0  0  0
  -23.3934  -30.4918   21.5570 C   0  0  2  0  0  0
  -24.8398  -28.9643   20.1148 C   0  0  0  0  0  0
  -22.7379  -29.4642   22.5061 C   0  0  0  0  0  0
  -18.0257  -28.1349   22.8486 C   0  0  0  0  0  0
  -24.1489  -36.7321   23.2631 C   0  0  0  0  0  0
  -25.9181  -30.8498   21.3605 C   0  0  0  0  0  0
  -25.9975  -29.4877   20.7060 C   0  0  0  0  0  0
  -27.2001  -28.7512   20.6804 C   0  0  0  0  0  0
  -26.0647  -26.9621   19.4810 C   0  0  0  0  0  0
  -24.8661  -27.6983   19.5028 C   0  0  0  0  0  0
  -23.5947  -29.8200   20.1716 C   0  0  0  0  0  0
  -25.4125  -36.3130   24.0331 C   0  0  1  0  0  0
  -20.5844  -28.3618   23.1362 C   0  0  2  0  0  0
  -20.6754  -26.9365   22.5440 C   0  0  0  0  0  0
  -19.5742  -26.6361   21.5216 C   0  0  0  0  0  0
  -18.1906  -26.7896   22.1600 C   0  0  0  0  0  0
  -19.1495  -28.8805   23.2913 C   0  0  0  0  0  0
  -18.9430  -30.1408   23.8918 C   0  0  0  0  0  0
  -17.6437  -30.6568   24.0548 C   0  0  0  0  0  0
  -25.9052  -34.9480   23.5140 C   0  0  0  0  0  0
  -16.5334  -29.9074   23.6288 C   0  0  0  0  0  0
  -16.7251  -28.6479   23.0331 C   0  0  0  0  0  0
  -26.4483  -31.6584   25.0717 C   0  0  0  0  0  0
  -25.3779  -31.3696   26.1492 C   0  0  0  0  0  0
  -27.0243  -30.3009   24.6025 C   0  0  0  0  0  0
  -27.6074  -32.4293   25.7469 C   0  0  0  0  0  0
  -27.5600  -37.1833   24.8451 C   0  0  0  0  0  0
  -21.4119  -29.2998   22.3799 N   0  0  0  0  0  0
  -26.4316  -37.3821   23.9388 N   0  0  0  0  0  0
  -24.6585  -31.0851   22.1029 N   0  0  0  0  0  0
  -23.4184  -28.8168   23.3057 O   0  0  0  0  0  0
  -28.4136  -26.7816   20.0248 O   0  0  0  0  0  0
  -26.5600  -34.8920   22.4691 O   0  0  0  0  0  0
  -23.5309  -32.1417   23.7593 O   0  0  0  0  0  0
  -30.4478  -20.3789   20.8701 C   0  0  0  0  0  0
  -29.9419  -21.3390   20.0431 C   0  0  0  0  0  0
  -29.6724  -23.8170   19.4139 C   0  0  0  0  0  0
  -29.9273  -22.7866   20.2261 C   0  0  0  0  0  0
  -29.9628  -23.5987   21.4911 C   0  0  0  0  0  0
  -31.3964  -15.5778   23.7186 C   0  0  0  0  0  0
  -30.4918  -14.4532   23.2353 C   0  0  0  0  0  0
  -29.6967  -24.8162   20.5716 C   0  0  2  0  0  0
  -31.3386  -16.2016   22.3298 C   0  0  2  0  0  0
  -28.3717  -25.5526   20.7328 C   0  0  0  0  0  0
  -30.5569  -17.4895   22.0431 C   0  0  0  0  0  0
  -30.6315  -17.8514   20.5452 C   0  0  0  0  0  0
  -29.4195  -20.7062   18.9147 N   0  0  0  0  0  0
  -29.5829  -19.4231   19.0248 N   0  0  0  0  0  0
  -30.1957  -19.1954   20.2114 N   0  0  0  0  0  0
  -30.6040  -15.0062   21.8801 N   0  0  0  0  0  0
  -31.4467  -12.3674   19.1080 H   0  0  0  0  0  0
  -30.2903  -11.2692   19.7889 H   0  0  0  0  0  0
  -29.7163  -11.8115   17.4079 H   0  0  0  0  0  0
  -29.6489  -13.5153   17.7987 H   0  0  0  0  0  0
  -27.8376  -11.2999   18.8395 H   0  0  0  0  0  0
  -27.3522  -12.6097   17.7943 H   0  0  0  0  0  0
  -27.6999  -14.2560   19.5486 H   0  0  0  0  0  0
  -28.6219  -12.0339   21.4444 H   0  0  0  0  0  0
  -28.4264  -13.7299   21.7858 H   0  0  0  0  0  0
  -25.2796   -9.5708   22.4728 H   0  0  0  0  0  0
  -24.0046   -7.4652   22.7456 H   0  0  0  0  0  0
  -21.0865   -8.8795   19.8934 H   0  0  0  0  0  0
  -22.3717  -10.9704   19.6167 H   0  0  0  0  0  0
  -21.1999   -7.6165   23.9746 H   0  0  0  0  0  0
  -21.1472   -6.0534   25.9095 H   0  0  0  0  0  0
  -22.0591   -2.7634   23.2863 H   0  0  0  0  0  0
  -22.4101  -11.9887   22.4836 H   0  0  0  0  0  0
  -21.1106  -13.1232   22.2650 H   0  0  0  0  0  0
  -24.6856  -15.8659   20.5229 H   0  0  0  0  0  0
  -26.3106  -15.6201   20.1364 H   0  0  0  0  0  0
  -26.7090  -32.5574   23.1195 H   0  0  0  0  0  0
  -25.0105  -33.9803   25.0525 H   0  0  0  0  0  0
  -22.6784  -31.3065   21.4243 H   0  0  0  0  0  0
  -23.3769  -35.9630   23.3283 H   0  0  0  0  0  0
  -24.3576  -36.8951   22.2037 H   0  0  0  0  0  0
  -23.7204  -37.6513   23.6653 H   0  0  0  0  0  0
  -26.0257  -31.6236   20.5996 H   0  0  0  0  0  0
  -26.8087  -30.9002   21.9762 H   0  0  0  0  0  0
  -28.0985  -29.1569   21.1234 H   0  0  0  0  0  0
  -26.0792  -25.9998   18.9891 H   0  0  0  0  0  0
  -23.9772  -27.2915   19.0420 H   0  0  0  0  0  0
  -23.6842  -30.5899   19.4068 H   0  0  0  0  0  0
  -22.7217  -29.2257   19.8909 H   0  0  0  0  0  0
  -25.1306  -36.2035   25.0833 H   0  0  0  0  0  0
  -20.9901  -28.3163   24.1496 H   0  0  0  0  0  0
  -20.5623  -26.2228   23.3619 H   0  0  0  0  0  0
  -21.6636  -26.7411   22.1260 H   0  0  0  0  0  0
  -19.6901  -25.6273   21.1231 H   0  0  0  0  0  0
  -19.6694  -27.3173   20.6748 H   0  0  0  0  0  0
  -17.4198  -26.6656   21.3985 H   0  0  0  0  0  0
  -18.0277  -26.0034   22.8981 H   0  0  0  0  0  0
  -19.7907  -30.7201   24.2332 H   0  0  0  0  0  0
  -17.4990  -31.6243   24.5140 H   0  0  0  0  0  0
  -15.5331  -30.2978   23.7598 H   0  0  0  0  0  0
  -15.8650  -28.0807   22.7048 H   0  0  0  0  0  0
  -24.5861  -30.7151   25.7825 H   0  0  0  0  0  0
  -24.9097  -32.2868   26.5068 H   0  0  0  0  0  0
  -25.8143  -30.8734   27.0167 H   0  0  0  0  0  0
  -26.2711  -29.6843   24.1096 H   0  0  0  0  0  0
  -27.3999  -29.7193   25.4458 H   0  0  0  0  0  0
  -27.8587  -30.4289   23.9123 H   0  0  0  0  0  0
  -27.2673  -33.3547   26.2139 H   0  0  0  0  0  0
  -28.3846  -32.6937   25.0280 H   0  0  0  0  0  0
  -28.0777  -31.8354   26.5315 H   0  0  0  0  0  0
  -28.2650  -38.0107   24.7542 H   0  0  0  0  0  0
  -28.1077  -36.2655   24.6263 H   0  0  0  0  0  0
  -27.2315  -37.1491   25.8854 H   0  0  0  0  0  0
  -20.9278  -29.8739   21.7045 H   0  0  0  0  0  0
  -26.0210  -38.2901   24.1421 H   0  0  0  0  0  0
  -30.9647  -20.4509   21.8175 H   0  0  0  0  0  0
  -29.4757  -23.9215   18.3496 H   0  0  0  0  0  0
  -30.9155  -23.6453   22.0192 H   0  0  0  0  0  0
  -29.1546  -23.4135   22.2014 H   0  0  0  0  0  0
  -32.3984  -15.2310   23.9795 H   0  0  0  0  0  0
  -30.9687  -16.1905   24.5134 H   0  0  0  0  0  0
  -29.4907  -14.5140   23.6621 H   0  0  0  0  0  0
  -30.9262  -13.4604   23.3660 H   0  0  0  0  0  0
  -30.5542  -25.4926   20.6010 H   0  0  0  0  0  0
  -32.3565  -16.2561   21.9360 H   0  0  0  0  0  0
  -28.1966  -25.7727   21.7866 H   0  0  0  0  0  0
  -27.5462  -24.9189   20.4058 H   0  0  0  0  0  0
  -30.9786  -18.2962   22.6453 H   0  0  0  0  0  0
  -29.5153  -17.4027   22.3575 H   0  0  0  0  0  0
  -30.0497  -17.1354   19.9641 H   0  0  0  0  0  0
  -31.6605  -17.7648   20.2007 H   0  0  0  0  0  0
  1 25  1  0  0  0
  1 30  2  0  0  0
  1 86  1  0  0  0
  2  3  1  0  0  0
  2 25  1  0  0  0
  2 87  1  0  0  0
  2 88  1  0  0  0
  3  4  1  0  0  0
  3 89  1  0  0  0
  3 90  1  0  0  0
  4  5  1  0  0  0
  4 91  1  0  0  0
  4 92  1  0  0  0
  5  6  1  0  0  0
  5 26  1  0  0  0
  5 93  1  0  0  0
  6 25  1  0  0  0
  6 94  1  0  0  0
  6 95  1  0  0  0
  7  8  2  0  0  0
  7 26  1  0  0  0
  7 29  1  0  0  0
  8  9  1  0  0  0
  8 22  1  0  0  0
  9 10  1  0  0  0
  9 27  2  0  0  0
 10 11  2  0  0  0
 10 15  1  0  0  0
 11 12  1  0  0  0
 11 96  1  0  0  0
 12 13  2  0  0  0
 12 97  1  0  0  0
 13 14  1  0  0  0
 13 31  1  0  0  0
 14 15  2  0  0  0
 14 98  1  0  0  0
 15 99  1  0  0  0
 16 17  2  0  0  0
 16 21  1  0  0  0
 16 31  1  0  0  0
 17 18  1  0  0  0
 17100  1  0  0  0
 18 19  2  0  0  0
 18101  1  0  0  0
 19 20  1  0  0  0
 19 24  1  0  0  0
 20 21  2  0  0  0
 20102  1  0  0  0
 21 23  1  0  0  0
 22 28  1  0  0  0
 22 32  2  0  0  0
 26 27  1  0  0  0
 28103  1  0  0  0
 28104  1  0  0  0
 29105  1  0  0  0
 29106  1  0  0  0
 33 34  1  0  0  0
 33 66  1  0  0  0
 33 70  2  0  0  0
 34 36  1  0  0  0
 34 59  1  0  0  0
 34107  1  0  0  0
 35 44  2  0  0  0
 35 45  1  0  0  0
 35 68  1  0  0  0
 36 56  1  0  0  0
 36108  1  0  0  0
 37 39  1  0  0  0
 37 47  1  0  0  0
 37 66  1  0  0  0
 37109  1  0  0  0
 38 43  2  0  0  0
 38 46  1  0  0  0
 38 47  1  0  0  0
 39 64  1  0  0  0
 39 67  2  0  0  0
 40 52  1  0  0  0
 40 53  2  0  0  0
 40 58  1  0  0  0
 41110  1  0  0  0
 41111  1  0  0  0
 41112  1  0  0  0
 41 48  1  0  0  0
 42 43  1  0  0  0
 42 66  1  0  0  0
 42113  1  0  0  0
 42114  1  0  0  0
 43 44  1  0  0  0
 44115  1  0  0  0
 45 46  2  0  0  0
 45116  1  0  0  0
 46117  1  0  0  0
 47118  1  0  0  0
 47119  1  0  0  0
 48 56  1  0  0  0
 48 65  1  0  0  0
 48120  1  0  0  0
 49 50  1  0  0  0
 49 53  1  0  0  0
 49 64  1  0  0  0
 49121  1  0  0  0
 50 51  1  0  0  0
 50122  1  0  0  0
 50123  1  0  0  0
 51 52  1  0  0  0
 51124  1  0  0  0
 51125  1  0  0  0
 52126  1  0  0  0
 52127  1  0  0  0
 53 54  1  0  0  0
 54 55  2  0  0  0
 54128  1  0  0  0
 55 57  1  0  0  0
 55129  1  0  0  0
 56 69  2  0  0  0
 57 58  2  0  0  0
 57130  1  0  0  0
 58131  1  0  0  0
 59 60  1  0  0  0
 59 61  1  0  0  0
 59 62  1  0  0  0
 60132  1  0  0  0
 60133  1  0  0  0
 60134  1  0  0  0
 61135  1  0  0  0
 61136  1  0  0  0
 61137  1  0  0  0
 62138  1  0  0  0
 62139  1  0  0  0
 62140  1  0  0  0
 63 65  1  0  0  0
 63141  1  0  0  0
 63142  1  0  0  0
 63143  1  0  0  0
 64144  1  0  0  0
 65145  1  0  0  0
 68 80  1  0  0  0
 71 72  2  0  0  0
 71 85  1  0  0  0
 71146  1  0  0  0
 72 74  1  0  0  0
 72 83  1  0  0  0
 73 74  2  0  0  0
 73 78  1  0  0  0
 73147  1  0  0  0
 74 75  1  0  0  0
 75 78  1  0  0  0
 75148  1  0  0  0
 75149  1  0  0  0
 76 77  1  0  0  0
 76 79  1  0  0  0
 76150  1  0  0  0
 76151  1  0  0  0
 77 86  1  0  0  0
 77152  1  0  0  0
 77153  1  0  0  0
 78 80  1  0  0  0
 78154  1  0  0  0
 79 81  1  0  0  0
 79 86  1  0  0  0
 79155  1  0  0  0
 80156  1  0  0  0
 80157  1  0  0  0
 81 82  1  0  0  0
 81158  1  0  0  0
 81159  1  0  0  0
 82 85  1  0  0  0
 82160  1  0  0  0
 82161  1  0  0  0
 83 84  2  0  0  0
 84 85  1  0  0  0
M  ISO  4   1 100  68 101  80 101  86 100
M  END
> <chiral flag>
0

> <version>
0

> <s_m_source_file>
/data/baiqing/PycharmProjects/Reinvent-master-3.2/result/LINK_invent/BTK/process_docking_weight1_custom_sum_contain_oxygen_bond_distance_aromatic_linkinvent_7_9_3/rearranged_h_0193.sdf

> <i_m_source_file_index>
41

> <r_mmod_Potential_Energy-OPLS-2005>
37.7143325805664

> <r_mmod_Stretch_Energy-OPLS-2005>
32.6659126281738

> <r_mmod_Bend_Energy-OPLS-2005>
107.097816467285

> <r_mmod_Torsional_Energy-OPLS-2005>
312.550415039062

> <r_mmod_Improper_Torsional_Energy-OPLS-2005>
7.37497138977051

> <r_mmod_Van_der_Waal_Energy-OPLS-2005>
124.051826477051

> <r_mmod_Electrostatic_Energy-OPLS-2005>
-346.728332519531

> <r_mmod_Solvation_Energy-OPLS-2005>
-208.573089599609

> <b_mmod_Minimization_Converged-OPLS-2005>
0

> <r_mmod_RMS_Derivative-OPLS-2005>
4.06771373748779

$$$$
41
                    3D
 Structure written by MMmdl.
153162  0  0  1  0            999 V2000
  -30.5649  -14.9681   20.4378 C   0  0  0  0  0  0
  -30.4334  -12.6111   19.4967 C   0  0  0  0  0  0
  -29.5162  -12.5396   18.2548 C   0  0  0  0  0  0
  -28.0498  -12.3214   18.6726 C   0  0  0  0  0  0
  -27.6268  -13.2485   19.8428 C   0  0  2  0  0  0
  -28.6746  -13.2696   20.9780 C   0  0  0  0  0  0
  -25.2392  -13.8183   20.5650 C   0  0  0  0  0  0
  -24.1746  -13.0412   20.9235 C   0  0  0  0  0  0
  -24.6390  -11.6913   20.8785 C   0  0  0  0  0  0
  -23.9080  -10.4285   21.0417 C   0  0  0  0  0  0
  -24.3628   -9.4197   21.9190 C   0  0  0  0  0  0
  -23.6298   -8.2235   22.0752 C   0  0  0  0  0  0
  -22.4283   -8.0278   21.3544 C   0  0  0  0  0  0
  -21.9921   -9.0254   20.4647 C   0  0  0  0  0  0
  -22.7252  -10.2133   20.3061 C   0  0  0  0  0  0
  -21.6858   -6.0731   22.5279 C   0  0  0  0  0  0
  -21.4016   -6.5632   23.8213 C   0  0  0  0  0  0
  -21.3666   -5.6786   24.9174 C   0  0  0  0  0  0
  -21.6045   -4.3048   24.7220 C   0  0  0  0  0  0
  -21.8818   -3.8140   23.4341 C   0  0  0  0  0  0
  -21.9193   -4.6960   22.3398 C   0  0  0  0  0  0
  -22.7769  -13.5190   21.1875 C   0  0  0  0  0  0
  -22.1657   -4.2145   21.0975 F   0  0  0  0  0  0
  -21.5634   -3.4529   25.7730 F   0  0  0  0  0  0
  -29.9355  -13.7173   20.3717 N   0  0  0  0  0  0
  -26.2863  -12.9442   20.3276 N   0  0  0  0  0  0
  -25.9329  -11.6573   20.5795 N   0  0  0  0  0  0
  -22.0425  -12.8208   22.0454 N   0  0  0  0  0  0
  -25.3899  -15.1898   20.3904 N   0  0  0  0  0  0
  -31.7662  -14.9743   20.1403 O   0  0  0  0  0  0
  -21.6646   -6.8874   21.4241 O   0  0  0  0  0  0
  -22.3450  -14.5487   20.6703 O   0  0  0  0  0  0
  -24.6422  -31.8415   23.1858 C   0  0  0  0  0  0
  -25.9192  -32.4680   23.8249 C   0  0  1  0  0  0
  -27.2246  -27.1282   20.1598 C   0  0  0  0  0  0
  -25.5940  -33.8488   24.2172 N   0  0  0  0  0  0
  -23.4456  -30.4575   21.5314 C   0  0  2  0  0  0
  -24.8940  -28.8710   20.1157 C   0  0  0  0  0  0
  -22.7554  -29.4526   22.4862 C   0  0  0  0  0  0
  -18.0300  -28.1393   22.8474 C   0  0  0  0  0  0
  -24.1491  -36.7258   23.2640 C   0  0  0  0  0  0
  -25.9986  -30.7123   21.3847 C   0  0  0  0  0  0
  -26.0675  -29.3184   20.7343 C   0  0  0  0  0  0
  -27.2283  -28.4619   20.7383 C   0  0  0  0  0  0
  -26.0257  -26.7742   19.5066 C   0  0  0  0  0  0
  -24.8852  -27.6121   19.4894 C   0  0  0  0  0  0
  -23.6721  -29.7770   20.1531 C   0  0  0  0  0  0
  -25.4125  -36.3028   24.0313 C   0  0  1  0  0  0
  -20.5911  -28.3709   23.1245 C   0  0  2  0  0  0
  -20.6784  -26.9414   22.5406 C   0  0  0  0  0  0
  -19.5761  -26.6375   21.5215 C   0  0  0  0  0  0
  -18.1942  -26.7931   22.1622 C   0  0  0  0  0  0
  -19.1556  -28.8871   23.2852 C   0  0  0  0  0  0
  -18.9473  -30.1468   23.8870 C   0  0  0  0  0  0
  -17.6470  -30.6586   24.0557 C   0  0  0  0  0  0
  -25.9073  -34.9400   23.5058 C   0  0  0  0  0  0
  -16.5361  -29.9079   23.6332 C   0  0  0  0  0  0
  -16.7287  -28.6504   23.0347 C   0  0  0  0  0  0
  -26.4519  -31.6557   25.0699 C   0  0  0  0  0  0
  -25.3709  -31.3749   26.1400 C   0  0  0  0  0  0
  -27.0387  -30.2948   24.6292 C   0  0  0  0  0  0
  -27.6035  -32.4336   25.7493 C   0  0  0  0  0  0
  -27.5582  -37.1778   24.8456 C   0  0  0  0  0  0
  -21.4249  -29.3033   22.3617 N   0  0  0  0  0  0
  -26.4284  -37.3748   23.9416 N   0  0  0  0  0  0
  -24.7152  -31.0263   22.0895 N   0  0  0  0  0  0
  -23.4193  -28.8086   23.3026 O   0  0  0  0  0  0
  -28.3489  -26.2273   20.1781 O   0  0  0  0  0  0
  -26.5666  -34.8902   22.4642 O   0  0  0  0  0  0
  -23.5543  -32.1288   23.7082 O   0  0  0  0  0  0
  -29.3927  -24.1284   21.0713 C   0  0  0  0  0  0
  -27.8911  -22.5710   19.4526 C   0  0  0  0  0  0
  -28.4300  -24.7604   20.3265 C   0  0  0  0  0  0
  -29.6409  -22.6368   21.0554 C   0  0  0  0  0  0
  -28.1922  -18.0628   20.8397 C   0  0  0  0  0  0
  -28.6282  -16.5922   21.2128 C   0  0  0  0  0  0
  -30.3439  -17.6386   20.0620 C   0  0  0  0  0  0
  -29.4557  -18.9107   20.6100 C   0  0  1  0  0  0
  -29.3172  -20.3696   19.7587 C   0  0  0  0  0  0
  -27.6707  -23.8896   19.4953 N   0  0  0  0  0  0
  -28.8897  -21.8432   20.2117 N   0  0  0  0  0  0
  -29.8697  -16.2306   20.5040 N   0  0  0  0  0  0
  -30.5388  -22.1277   21.7342 O   0  0  0  0  0  0
  -31.4643  -12.7671   19.1756 H   0  0  0  0  0  0
  -30.4360  -11.6600   20.0323 H   0  0  0  0  0  0
  -29.8400  -11.7385   17.5892 H   0  0  0  0  0  0
  -29.6012  -13.4655   17.6837 H   0  0  0  0  0  0
  -27.9462  -11.2782   18.9734 H   0  0  0  0  0  0
  -27.3875  -12.4607   17.8172 H   0  0  0  0  0  0
  -27.5894  -14.2498   19.4149 H   0  0  0  0  0  0
  -28.7811  -12.2818   21.4286 H   0  0  0  0  0  0
  -28.3748  -13.9291   21.7921 H   0  0  0  0  0  0
  -25.2766   -9.5675   22.4774 H   0  0  0  0  0  0
  -24.0006   -7.4624   22.7467 H   0  0  0  0  0  0
  -21.0851   -8.8778   19.8958 H   0  0  0  0  0  0
  -22.3702  -10.9677   19.6182 H   0  0  0  0  0  0
  -21.2009   -7.6143   23.9715 H   0  0  0  0  0  0
  -21.1492   -6.0514   25.9078 H   0  0  0  0  0  0
  -22.0593   -2.7602   23.2841 H   0  0  0  0  0  0
  -22.4038  -11.9896   22.4888 H   0  0  0  0  0  0
  -21.1036  -13.1230   22.2629 H   0  0  0  0  0  0
  -24.6083  -15.8288   20.4833 H   0  0  0  0  0  0
  -26.2215  -15.6344   20.0252 H   0  0  0  0  0  0
  -26.7259  -32.5275   23.0972 H   0  0  0  0  0  0
  -25.0047  -33.9601   25.0296 H   0  0  0  0  0  0
  -22.7489  -31.2831   21.3726 H   0  0  0  0  0  0
  -23.3759  -35.9580   23.3274 H   0  0  0  0  0  0
  -24.3572  -36.8920   22.2056 H   0  0  0  0  0  0
  -23.7237  -37.6444   23.6698 H   0  0  0  0  0  0
  -26.1533  -31.4616   20.6071 H   0  0  0  0  0  0
  -26.8701  -30.7649   22.0259 H   0  0  0  0  0  0
  -28.1299  -28.8052   21.2268 H   0  0  0  0  0  0
  -25.9557  -25.8145   19.0163 H   0  0  0  0  0  0
  -23.9888  -27.2668   18.9926 H   0  0  0  0  0  0
  -23.8105  -30.5458   19.3919 H   0  0  0  0  0  0
  -22.7867  -29.2176   19.8449 H   0  0  0  0  0  0
  -25.1314  -36.1848   25.0804 H   0  0  0  0  0  0
  -21.0004  -28.3299   24.1370 H   0  0  0  0  0  0
  -20.5678  -26.2323   23.3624 H   0  0  0  0  0  0
  -21.6652  -26.7424   22.1206 H   0  0  0  0  0  0
  -19.6920  -25.6282   21.1258 H   0  0  0  0  0  0
  -19.6705  -27.3173   20.6740 H   0  0  0  0  0  0
  -17.4215  -26.6670   21.4026 H   0  0  0  0  0  0
  -18.0341  -26.0084   22.9028 H   0  0  0  0  0  0
  -19.7948  -30.7293   24.2227 H   0  0  0  0  0  0
  -17.5021  -31.6263   24.5162 H   0  0  0  0  0  0
  -15.5358  -30.2970   23.7677 H   0  0  0  0  0  0
  -15.8690  -28.0816   22.7072 H   0  0  0  0  0  0
  -24.5890  -30.7096   25.7729 H   0  0  0  0  0  0
  -24.8898  -32.2930   26.4775 H   0  0  0  0  0  0
  -25.7990  -30.8956   27.0211 H   0  0  0  0  0  0
  -26.3005  -29.6663   24.1299 H   0  0  0  0  0  0
  -27.3993  -29.7255   25.4872 H   0  0  0  0  0  0
  -27.8914  -30.4176   23.9612 H   0  0  0  0  0  0
  -27.2608  -33.3646   26.2019 H   0  0  0  0  0  0
  -28.3873  -32.6886   25.0352 H   0  0  0  0  0  0
  -28.0677  -31.8506   26.5458 H   0  0  0  0  0  0
  -28.2567  -38.0107   24.7543 H   0  0  0  0  0  0
  -28.1112  -36.2639   24.6236 H   0  0  0  0  0  0
  -27.2302  -37.1364   25.8856 H   0  0  0  0  0  0
  -20.9466  -29.8727   21.6775 H   0  0  0  0  0  0
  -26.0145  -38.2809   24.1444 H   0  0  0  0  0  0
  -30.0626  -24.7372   21.6589 H   0  0  0  0  0  0
  -27.3167  -21.9259   18.7858 H   0  0  0  0  0  0
  -27.5365  -18.4980   21.5940 H   0  0  0  0  0  0
  -27.6193  -18.0298   19.9118 H   0  0  0  0  0  0
  -27.8224  -15.9028   20.9934 H   0  0  0  0  0  0
  -28.8225  -16.5262   22.2849 H   0  0  0  0  0  0
  -31.3894  -17.7726   20.3419 H   0  0  0  0  0  0
  -30.3290  -17.6447   18.9719 H   0  0  0  0  0  0
  -29.8561  -19.1617   21.5931 H   0  0  0  0  0  0
  -28.7384  -20.1341   18.8649 H   0  0  0  0  0  0
  -30.3206  -20.5331   19.3620 H   0  0  0  0  0  0
  1 25  1  0  0  0
  1 30  2  0  0  0
  1 82  1  0  0  0
  2  3  1  0  0  0
  2 25  1  0  0  0
  2 84  1  0  0  0
  2 85  1  0  0  0
  3  4  1  0  0  0
  3 86  1  0  0  0
  3 87  1  0  0  0
  4  5  1  0  0  0
  4 88  1  0  0  0
  4 89  1  0  0  0
  5  6  1  0  0  0
  5 26  1  0  0  0
  5 90  1  0  0  0
  6 25  1  0  0  0
  6 91  1  0  0  0
  6 92  1  0  0  0
  7  8  2  0  0  0
  7 26  1  0  0  0
  7 29  1  0  0  0
  8  9  1  0  0  0
  8 22  1  0  0  0
  9 10  1  0  0  0
  9 27  2  0  0  0
 10 11  2  0  0  0
 10 15  1  0  0  0
 11 12  1  0  0  0
 11 93  1  0  0  0
 12 13  2  0  0  0
 12 94  1  0  0  0
 13 14  1  0  0  0
 13 31  1  0  0  0
 14 15  2  0  0  0
 14 95  1  0  0  0
 15 96  1  0  0  0
 16 17  2  0  0  0
 16 21  1  0  0  0
 16 31  1  0  0  0
 17 18  1  0  0  0
 17 97  1  0  0  0
 18 19  2  0  0  0
 18 98  1  0  0  0
 19 20  1  0  0  0
 19 24  1  0  0  0
 20 21  2  0  0  0
 20 99  1  0  0  0
 21 23  1  0  0  0
 22 28  1  0  0  0
 22 32  2  0  0  0
 26 27  1  0  0  0
 28100  1  0  0  0
 28101  1  0  0  0
 29102  1  0  0  0
 29103  1  0  0  0
 33 34  1  0  0  0
 33 66  1  0  0  0
 33 70  2  0  0  0
 34 36  1  0  0  0
 34 59  1  0  0  0
 34104  1  0  0  0
 35 44  2  0  0  0
 35 45  1  0  0  0
 35 68  1  0  0  0
 36 56  1  0  0  0
 36105  1  0  0  0
 37 39  1  0  0  0
 37 47  1  0  0  0
 37 66  1  0  0  0
 37106  1  0  0  0
 38 43  2  0  0  0
 38 46  1  0  0  0
 38 47  1  0  0  0
 39 64  1  0  0  0
 39 67  2  0  0  0
 40 52  1  0  0  0
 40 53  2  0  0  0
 40 58  1  0  0  0
 41107  1  0  0  0
 41108  1  0  0  0
 41109  1  0  0  0
 41 48  1  0  0  0
 42 43  1  0  0  0
 42 66  1  0  0  0
 42110  1  0  0  0
 42111  1  0  0  0
 43 44  1  0  0  0
 44112  1  0  0  0
 45 46  2  0  0  0
 45113  1  0  0  0
 46114  1  0  0  0
 47115  1  0  0  0
 47116  1  0  0  0
 48 56  1  0  0  0
 48 65  1  0  0  0
 48117  1  0  0  0
 49 50  1  0  0  0
 49 53  1  0  0  0
 49 64  1  0  0  0
 49118  1  0  0  0
 50 51  1  0  0  0
 50119  1  0  0  0
 50120  1  0  0  0
 51 52  1  0  0  0
 51121  1  0  0  0
 51122  1  0  0  0
 52123  1  0  0  0
 52124  1  0  0  0
 53 54  1  0  0  0
 54 55  2  0  0  0
 54125  1  0  0  0
 55 57  1  0  0  0
 55126  1  0  0  0
 56 69  2  0  0  0
 57 58  2  0  0  0
 57127  1  0  0  0
 58128  1  0  0  0
 59 60  1  0  0  0
 59 61  1  0  0  0
 59 62  1  0  0  0
 60129  1  0  0  0
 60130  1  0  0  0
 60131  1  0  0  0
 61132  1  0  0  0
 61133  1  0  0  0
 61134  1  0  0  0
 62135  1  0  0  0
 62136  1  0  0  0
 62137  1  0  0  0
 63 65  1  0  0  0
 63138  1  0  0  0
 63139  1  0  0  0
 63140  1  0  0  0
 64141  1  0  0  0
 65142  1  0  0  0
 68 73  1  0  0  0
 71 73  2  0  0  0
 71 74  1  0  0  0
 71143  1  0  0  0
 72 80  2  0  0  0
 72 81  1  0  0  0
 72144  1  0  0  0
 73 80  1  0  0  0
 74 81  1  0  0  0
 74 83  2  0  0  0
 75 76  1  0  0  0
 75 78  1  0  0  0
 75145  1  0  0  0
 75146  1  0  0  0
 76 82  1  0  0  0
 76147  1  0  0  0
 76148  1  0  0  0
 77 78  1  0  0  0
 77 82  1  0  0  0
 77149  1  0  0  0
 77150  1  0  0  0
 78 79  1  0  0  0
 78151  1  0  0  0
 79 81  1  0  0  0
 79152  1  0  0  0
 79153  1  0  0  0
M  ISO  4   1 100  68 101  73 101  82 100
M  END
> <chiral flag>
0

> <version>
0

> <s_m_source_file>
/data/baiqing/PycharmProjects/Reinvent-master-3.2/result/LINK_invent/BTK/process_docking_weight1_custom_sum_contain_oxygen_bond_distance_aromatic_linkinvent_7_9_3/rearranged_h_0193.sdf

> <i_m_source_file_index>
42

> <r_mmod_Potential_Energy-OPLS-2005>
659.064575195312

> <r_mmod_Stretch_Energy-OPLS-2005>
241.953536987305

> <r_mmod_Bend_Energy-OPLS-2005>
319.534362792969

> <r_mmod_Torsional_Energy-OPLS-2005>
328.116882324219

> <r_mmod_Improper_Torsional_Energy-OPLS-2005>
9.99454116821289

> <r_mmod_Van_der_Waal_Energy-OPLS-2005>
142.752243041992

> <r_mmod_Electrostatic_Energy-OPLS-2005>
-345.892303466797

> <r_mmod_Solvation_Energy-OPLS-2005>
-223.49543762207

> <b_mmod_Minimization_Converged-OPLS-2005>
0

> <r_mmod_RMS_Derivative-OPLS-2005>
1.40094697475433

$$$$
42
                    3D
 Structure written by MMmdl.
161170  0  0  1  0            999 V2000
  -30.6746  -14.5374   20.5504 C   0  0  0  0  0  0
  -30.4246  -12.3394   19.4411 C   0  0  0  0  0  0
  -29.5023  -12.5122   18.2156 C   0  0  0  0  0  0
  -28.0208  -12.3687   18.6196 C   0  0  0  0  0  0
  -27.6565  -13.2154   19.8689 C   0  0  2  0  0  0
  -28.6966  -13.0264   20.9954 C   0  0  0  0  0  0
  -25.2569  -13.8178   20.5682 C   0  0  0  0  0  0
  -24.1832  -13.0443   20.9179 C   0  0  0  0  0  0
  -24.6401  -11.6918   20.8736 C   0  0  0  0  0  0
  -23.9075  -10.4298   21.0400 C   0  0  0  0  0  0
  -24.3628   -9.4214   21.9175 C   0  0  0  0  0  0
  -23.6308   -8.2246   22.0742 C   0  0  0  0  0  0
  -22.4286   -8.0281   21.3535 C   0  0  0  0  0  0
  -21.9927   -9.0258   20.4636 C   0  0  0  0  0  0
  -22.7249  -10.2141   20.3040 C   0  0  0  0  0  0
  -21.6851   -6.0741   22.5283 C   0  0  0  0  0  0
  -21.4014   -6.5641   23.8220 C   0  0  0  0  0  0
  -21.3669   -5.6794   24.9183 C   0  0  0  0  0  0
  -21.6049   -4.3055   24.7225 C   0  0  0  0  0  0
  -21.8821   -3.8152   23.4347 C   0  0  0  0  0  0
  -21.9195   -4.6972   22.3406 C   0  0  0  0  0  0
  -22.7857  -13.5231   21.1848 C   0  0  0  0  0  0
  -22.1652   -4.2160   21.0983 F   0  0  0  0  0  0
  -21.5641   -3.4537   25.7731 F   0  0  0  0  0  0
  -30.0210  -13.3437   20.4405 N   0  0  0  0  0  0
  -26.2999  -12.9361   20.3334 N   0  0  0  0  0  0
  -25.9330  -11.6517   20.5757 N   0  0  0  0  0  0
  -22.0496  -12.8218   22.0399 N   0  0  0  0  0  0
  -25.4319  -15.1892   20.4092 N   0  0  0  0  0  0
  -31.8120  -14.7049   20.0959 O   0  0  0  0  0  0
  -21.6649   -6.8882   21.4240 O   0  0  0  0  0  0
  -22.3544  -14.5550   20.6715 O   0  0  0  0  0  0
  -24.6188  -31.8658   23.2080 C   0  0  0  0  0  0
  -25.9062  -32.4813   23.8390 C   0  0  1  0  0  0
  -27.2241  -27.3959   20.1087 C   0  0  0  0  0  0
  -25.5900  -33.8614   24.2315 N   0  0  0  0  0  0
  -23.4079  -30.4913   21.5490 C   0  0  2  0  0  0
  -24.8538  -28.9553   20.1124 C   0  0  0  0  0  0
  -22.7435  -29.4661   22.4973 C   0  0  0  0  0  0
  -18.0279  -28.1385   22.8491 C   0  0  0  0  0  0
  -24.1481  -36.7312   23.2638 C   0  0  0  0  0  0
  -25.9414  -30.8223   21.3651 C   0  0  0  0  0  0
  -26.0182  -29.4539   20.7122 C   0  0  0  0  0  0
  -27.2103  -28.6845   20.7016 C   0  0  0  0  0  0
  -26.0469  -26.9332   19.4819 C   0  0  0  0  0  0
  -24.8660  -27.6972   19.4894 C   0  0  0  0  0  0
  -23.6170  -29.8252   20.1636 C   0  0  0  0  0  0
  -25.4102  -36.3108   24.0336 C   0  0  1  0  0  0
  -20.5873  -28.3684   23.1305 C   0  0  2  0  0  0
  -20.6776  -26.9417   22.5414 C   0  0  0  0  0  0
  -19.5751  -26.6392   21.5218 C   0  0  0  0  0  0
  -18.1927  -26.7931   22.1623 C   0  0  0  0  0  0
  -19.1526  -28.8849   23.2898 C   0  0  0  0  0  0
  -18.9451  -30.1454   23.8915 C   0  0  0  0  0  0
  -17.6450  -30.6588   24.0567 C   0  0  0  0  0  0
  -25.9032  -34.9474   23.5125 C   0  0  0  0  0  0
  -16.5343  -29.9088   23.6324 C   0  0  0  0  0  0
  -16.7266  -28.6505   23.0345 C   0  0  0  0  0  0
  -26.4472  -31.6596   25.0730 C   0  0  0  0  0  0
  -25.3735  -31.3691   26.1473 C   0  0  0  0  0  0
  -27.0305  -30.3038   24.6115 C   0  0  0  0  0  0
  -27.6039  -32.4326   25.7497 C   0  0  0  0  0  0
  -27.5574  -37.1819   24.8463 C   0  0  0  0  0  0
  -21.4157  -29.3048   22.3706 N   0  0  0  0  0  0
  -26.4287  -37.3793   23.9403 N   0  0  0  0  0  0
  -24.6748  -31.0742   22.0987 N   0  0  0  0  0  0
  -23.4197  -28.8200   23.3018 O   0  0  0  0  0  0
  -28.3542  -26.5945   20.1187 O   0  0  0  0  0  0
  -26.5605  -34.8930   22.4690 O   0  0  0  0  0  0
  -23.5373  -32.1409   23.7458 O   0  0  0  0  0  0
  -29.8020  -24.3192   18.9433 C   0  0  0  0  0  0
  -29.0429  -24.1335   20.1193 C   0  0  0  0  0  0
  -30.6333  -22.1633   19.1125 C   0  0  0  0  0  0
  -29.8448  -21.9267   20.2739 C   0  0  0  0  0  0
  -29.5462  -17.6006   22.2666 C   0  0  0  0  0  0
  -29.8798  -16.0930   22.2956 C   0  0  0  0  0  0
  -29.7648  -16.8113   20.0391 C   0  0  0  0  0  0
  -30.0587  -18.0623   20.9058 C   0  0  1  0  0  0
  -31.6033  -21.1329   18.5587 C   0  0  0  0  0  0
  -29.9571  -20.6076   21.0860 C   0  0  0  0  0  0
  -28.1674  -25.2672   20.6904 C   0  0  0  0  0  0
  -30.5932  -23.3405   18.4408 N   0  0  0  0  0  0
  -29.0517  -22.9264   20.7715 N   0  0  0  0  0  0
  -29.9123  -15.6139   20.9041 N   0  0  0  0  0  0
  -29.5036  -19.3625   20.3895 N   0  3  0  0  0  0
  -31.4713  -12.4396   19.1454 H   0  0  0  0  0  0
  -30.3283  -11.3359   19.8568 H   0  0  0  0  0  0
  -29.7533  -11.7812   17.4469 H   0  0  0  0  0  0
  -29.6674  -13.4950   17.7704 H   0  0  0  0  0  0
  -27.8317  -11.3135   18.8173 H   0  0  0  0  0  0
  -27.3760  -12.6396   17.7818 H   0  0  0  0  0  0
  -27.6871  -14.2604   19.5601 H   0  0  0  0  0  0
  -28.6841  -11.9993   21.3620 H   0  0  0  0  0  0
  -28.4471  -13.6489   21.8540 H   0  0  0  0  0  0
  -25.2772   -9.5697   22.4758 H   0  0  0  0  0  0
  -24.0021   -7.4641   22.7456 H   0  0  0  0  0  0
  -21.0861   -8.8786   19.8930 H   0  0  0  0  0  0
  -22.3714  -10.9689   19.6155 H   0  0  0  0  0  0
  -21.1992   -7.6146   23.9729 H   0  0  0  0  0  0
  -21.1487   -6.0516   25.9089 H   0  0  0  0  0  0
  -22.0589   -2.7611   23.2847 H   0  0  0  0  0  0
  -22.4091  -11.9855   22.4765 H   0  0  0  0  0  0
  -21.1104  -13.1232   22.2597 H   0  0  0  0  0  0
  -24.6714  -15.8513   20.5179 H   0  0  0  0  0  0
  -26.2964  -15.6206   20.1090 H   0  0  0  0  0  0
  -26.7140  -32.5510   23.1161 H   0  0  0  0  0  0
  -25.0055  -33.9774   25.0467 H   0  0  0  0  0  0
  -22.6990  -31.3102   21.4094 H   0  0  0  0  0  0
  -23.3742  -35.9644   23.3299 H   0  0  0  0  0  0
  -24.3582  -36.8928   22.2054 H   0  0  0  0  0  0
  -23.7234  -37.6516   23.6656 H   0  0  0  0  0  0
  -26.0593  -31.5869   20.5957 H   0  0  0  0  0  0
  -26.8281  -30.8763   21.9850 H   0  0  0  0  0  0
  -28.1081  -29.0646   21.1690 H   0  0  0  0  0  0
  -26.0345  -25.9740   18.9838 H   0  0  0  0  0  0
  -23.9753  -27.3143   19.0106 H   0  0  0  0  0  0
  -23.7257  -30.6000   19.4040 H   0  0  0  0  0  0
  -22.7392  -29.2474   19.8673 H   0  0  0  0  0  0
  -25.1283  -36.1970   25.0831 H   0  0  0  0  0  0
  -20.9975  -28.3259   24.1424 H   0  0  0  0  0  0
  -20.5698  -26.2295   23.3608 H   0  0  0  0  0  0
  -21.6644  -26.7474   22.1191 H   0  0  0  0  0  0
  -19.6916  -25.6306   21.1243 H   0  0  0  0  0  0
  -19.6686  -27.3210   20.6754 H   0  0  0  0  0  0
  -17.4203  -26.6695   21.4016 H   0  0  0  0  0  0
  -18.0315  -26.0067   22.9009 H   0  0  0  0  0  0
  -19.7925  -30.7267   24.2298 H   0  0  0  0  0  0
  -17.4999  -31.6272   24.5160 H   0  0  0  0  0  0
  -15.5344  -30.2993   23.7636 H   0  0  0  0  0  0
  -15.8667  -28.0829   22.7051 H   0  0  0  0  0  0
  -24.5897  -30.7058   25.7796 H   0  0  0  0  0  0
  -24.8944  -32.2839   26.4968 H   0  0  0  0  0  0
  -25.8087  -30.8816   27.0206 H   0  0  0  0  0  0
  -26.2853  -29.6807   24.1158 H   0  0  0  0  0  0
  -27.4051  -29.7269   25.4580 H   0  0  0  0  0  0
  -27.8697  -30.4350   23.9284 H   0  0  0  0  0  0
  -27.2643  -33.3604   26.2110 H   0  0  0  0  0  0
  -28.3829  -32.6925   25.0320 H   0  0  0  0  0  0
  -28.0729  -31.8435   26.5385 H   0  0  0  0  0  0
  -28.2598  -38.0112   24.7506 H   0  0  0  0  0  0
  -28.1067  -36.2646   24.6291 H   0  0  0  0  0  0
  -27.2300  -37.1471   25.8870 H   0  0  0  0  0  0
  -20.9325  -29.8756   21.6912 H   0  0  0  0  0  0
  -26.0172  -38.2872   24.1394 H   0  0  0  0  0  0
  -29.7825  -25.2559   18.4058 H   0  0  0  0  0  0
  -30.0044  -18.1407   23.0965 H   0  0  0  0  0  0
  -28.4661  -17.7404   22.3342 H   0  0  0  0  0  0
  -29.1503  -15.5443   22.8915 H   0  0  0  0  0  0
  -30.8568  -15.9370   22.7595 H   0  0  0  0  0  0
  -30.4092  -16.7772   19.1581 H   0  0  0  0  0  0
  -28.7356  -16.8298   19.6783 H   0  0  0  0  0  0
  -31.1448  -18.1641   20.9668 H   0  0  0  0  0  0
  -31.0692  -20.2746   18.1517 H   0  0  0  0  0  0
  -32.2854  -20.7839   19.3339 H   0  0  0  0  0  0
  -32.2135  -21.5518   17.7578 H   0  0  0  0  0  0
  -29.4031  -20.7053   22.0201 H   0  0  0  0  0  0
  -31.0027  -20.4992   21.3753 H   0  0  0  0  0  0
  -28.3919  -25.3487   21.7545 H   0  0  0  0  0  0
  -27.1340  -24.9241   20.6410 H   0  0  0  0  0  0
  -28.4964  -19.3456   20.4091 H   0  0  0  0  0  0
  -29.7722  -19.4487   19.4246 H   0  0  0  0  0  0
  1 25  1  0  0  0
  1 30  2  0  0  0
  1 84  1  0  0  0
  2  3  1  0  0  0
  2 25  1  0  0  0
  2 86  1  0  0  0
  2 87  1  0  0  0
  3  4  1  0  0  0
  3 88  1  0  0  0
  3 89  1  0  0  0
  4  5  1  0  0  0
  4 90  1  0  0  0
  4 91  1  0  0  0
  5  6  1  0  0  0
  5 26  1  0  0  0
  5 92  1  0  0  0
  6 25  1  0  0  0
  6 93  1  0  0  0
  6 94  1  0  0  0
  7  8  2  0  0  0
  7 26  1  0  0  0
  7 29  1  0  0  0
  8  9  1  0  0  0
  8 22  1  0  0  0
  9 10  1  0  0  0
  9 27  2  0  0  0
 10 11  2  0  0  0
 10 15  1  0  0  0
 11 12  1  0  0  0
 11 95  1  0  0  0
 12 13  2  0  0  0
 12 96  1  0  0  0
 13 14  1  0  0  0
 13 31  1  0  0  0
 14 15  2  0  0  0
 14 97  1  0  0  0
 15 98  1  0  0  0
 16 17  2  0  0  0
 16 21  1  0  0  0
 16 31  1  0  0  0
 17 18  1  0  0  0
 17 99  1  0  0  0
 18 19  2  0  0  0
 18100  1  0  0  0
 19 20  1  0  0  0
 19 24  1  0  0  0
 20 21  2  0  0  0
 20101  1  0  0  0
 21 23  1  0  0  0
 22 28  1  0  0  0
 22 32  2  0  0  0
 26 27  1  0  0  0
 28102  1  0  0  0
 28103  1  0  0  0
 29104  1  0  0  0
 29105  1  0  0  0
 33 34  1  0  0  0
 33 66  1  0  0  0
 33 70  2  0  0  0
 34 36  1  0  0  0
 34 59  1  0  0  0
 34106  1  0  0  0
 35 44  2  0  0  0
 35 45  1  0  0  0
 35 68  1  0  0  0
 36 56  1  0  0  0
 36107  1  0  0  0
 37 39  1  0  0  0
 37 47  1  0  0  0
 37 66  1  0  0  0
 37108  1  0  0  0
 38 43  2  0  0  0
 38 46  1  0  0  0
 38 47  1  0  0  0
 39 64  1  0  0  0
 39 67  2  0  0  0
 40 52  1  0  0  0
 40 53  2  0  0  0
 40 58  1  0  0  0
 41109  1  0  0  0
 41110  1  0  0  0
 41111  1  0  0  0
 41 48  1  0  0  0
 42 43  1  0  0  0
 42 66  1  0  0  0
 42112  1  0  0  0
 42113  1  0  0  0
 43 44  1  0  0  0
 44114  1  0  0  0
 45 46  2  0  0  0
 45115  1  0  0  0
 46116  1  0  0  0
 47117  1  0  0  0
 47118  1  0  0  0
 48 56  1  0  0  0
 48 65  1  0  0  0
 48119  1  0  0  0
 49 50  1  0  0  0
 49 53  1  0  0  0
 49 64  1  0  0  0
 49120  1  0  0  0
 50 51  1  0  0  0
 50121  1  0  0  0
 50122  1  0  0  0
 51 52  1  0  0  0
 51123  1  0  0  0
 51124  1  0  0  0
 52125  1  0  0  0
 52126  1  0  0  0
 53 54  1  0  0  0
 54 55  2  0  0  0
 54127  1  0  0  0
 55 57  1  0  0  0
 55128  1  0  0  0
 56 69  2  0  0  0
 57 58  2  0  0  0
 57129  1  0  0  0
 58130  1  0  0  0
 59 60  1  0  0  0
 59 61  1  0  0  0
 59 62  1  0  0  0
 60131  1  0  0  0
 60132  1  0  0  0
 60133  1  0  0  0
 61134  1  0  0  0
 61135  1  0  0  0
 61136  1  0  0  0
 62137  1  0  0  0
 62138  1  0  0  0
 62139  1  0  0  0
 63 65  1  0  0  0
 63140  1  0  0  0
 63141  1  0  0  0
 63142  1  0  0  0
 64143  1  0  0  0
 65144  1  0  0  0
 68 81  1  0  0  0
 71 72  2  0  0  0
 71 82  1  0  0  0
 71145  1  0  0  0
 72 81  1  0  0  0
 72 83  1  0  0  0
 73 74  1  0  0  0
 73 79  1  0  0  0
 73 82  2  0  0  0
 74 80  1  0  0  0
 74 83  2  0  0  0
 75 76  1  0  0  0
 75 78  1  0  0  0
 75146  1  0  0  0
 75147  1  0  0  0
 76 84  1  0  0  0
 76148  1  0  0  0
 76149  1  0  0  0
 77 78  1  0  0  0
 77 84  1  0  0  0
 77150  1  0  0  0
 77151  1  0  0  0
 78 85  1  0  0  0
 78152  1  0  0  0
 79153  1  0  0  0
 79154  1  0  0  0
 79155  1  0  0  0
 80 85  1  0  0  0
 80156  1  0  0  0
 80157  1  0  0  0
 81158  1  0  0  0
 81159  1  0  0  0
 85160  1  0  0  0
 85161  1  0  0  0
M  CHG  1  85   1
M  ISO  4   1 100  68 101  81 101  84 100
M  END
> <chiral flag>
0

> <version>
0

> <s_m_source_file>
/data/baiqing/PycharmProjects/Reinvent-master-3.2/result/LINK_invent/BTK/process_docking_weight1_custom_sum_contain_oxygen_bond_distance_aromatic_linkinvent_7_9_3/rearranged_h_0193.sdf

> <i_m_source_file_index>
43

> <r_mmod_Potential_Energy-OPLS-2005>
50.9654579162598

> <r_mmod_Stretch_Energy-OPLS-2005>
53.1307411193848

> <r_mmod_Bend_Energy-OPLS-2005>
129.081100463867

> <r_mmod_Torsional_Energy-OPLS-2005>
355.068298339844

> <r_mmod_Improper_Torsional_Energy-OPLS-2005>
10.7923545837402

> <r_mmod_Van_der_Waal_Energy-OPLS-2005>
144.433609008789

> <r_mmod_Electrostatic_Energy-OPLS-2005>
-184.034622192383

> <r_mmod_Solvation_Energy-OPLS-2005>
-479.146667480469

> <b_mmod_Minimization_Converged-OPLS-2005>
0

> <r_mmod_RMS_Derivative-OPLS-2005>
1.52467429637909

$$$$
43
                    3D
 Structure written by MMmdl.
160169  0  0  1  0            999 V2000
  -30.7204  -14.5162   20.5740 C   0  0  0  0  0  0
  -30.4150  -12.3376   19.4438 C   0  0  0  0  0  0
  -29.4910  -12.4777   18.2168 C   0  0  0  0  0  0
  -28.0172  -12.3029   18.6288 C   0  0  0  0  0  0
  -27.6450  -13.1805   19.8494 C   0  0  2  0  0  0
  -28.6876  -13.0347   20.9876 C   0  0  0  0  0  0
  -25.2537  -13.8074   20.5619 C   0  0  0  0  0  0
  -24.1802  -13.0398   20.9238 C   0  0  0  0  0  0
  -24.6335  -11.6862   20.8805 C   0  0  0  0  0  0
  -23.9001  -10.4267   21.0453 C   0  0  0  0  0  0
  -24.3576   -9.4177   21.9206 C   0  0  0  0  0  0
  -23.6264   -8.2208   22.0756 C   0  0  0  0  0  0
  -22.4250   -8.0252   21.3542 C   0  0  0  0  0  0
  -21.9881   -9.0224   20.4645 C   0  0  0  0  0  0
  -22.7193  -10.2113   20.3076 C   0  0  0  0  0  0
  -21.6830   -6.0718   22.5287 C   0  0  0  0  0  0
  -21.3992   -6.5630   23.8219 C   0  0  0  0  0  0
  -21.3666   -5.6797   24.9188 C   0  0  0  0  0  0
  -21.6051   -4.3061   24.7235 C   0  0  0  0  0  0
  -21.8811   -3.8139   23.4360 C   0  0  0  0  0  0
  -21.9185   -4.6948   22.3410 C   0  0  0  0  0  0
  -22.7835  -13.5228   21.1900 C   0  0  0  0  0  0
  -22.1653   -4.2135   21.0986 F   0  0  0  0  0  0
  -21.5649   -3.4548   25.7751 F   0  0  0  0  0  0
  -30.0107  -13.3543   20.4344 N   0  0  0  0  0  0
  -26.2917  -12.9189   20.3241 N   0  0  0  0  0  0
  -25.9238  -11.6389   20.5779 N   0  0  0  0  0  0
  -22.0463  -12.8223   22.0435 N   0  0  0  0  0  0
  -25.4233  -15.1769   20.3879 N   0  0  0  0  0  0
  -31.8572  -14.6187   20.1028 O   0  0  0  0  0  0
  -21.6613   -6.8852   21.4245 O   0  0  0  0  0  0
  -22.3533  -14.5536   20.6747 O   0  0  0  0  0  0
  -24.6144  -31.8661   23.2046 C   0  0  0  0  0  0
  -25.9026  -32.4816   23.8361 C   0  0  1  0  0  0
  -27.2526  -27.4328   20.0820 C   0  0  0  0  0  0
  -25.5869  -33.8616   24.2301 N   0  0  0  0  0  0
  -23.4042  -30.4830   21.5482 C   0  0  2  0  0  0
  -24.8529  -28.9445   20.1180 C   0  0  0  0  0  0
  -22.7389  -29.4633   22.5001 C   0  0  0  0  0  0
  -18.0251  -28.1387   22.8535 C   0  0  0  0  0  0
  -24.1481  -36.7334   23.2639 C   0  0  0  0  0  0
  -25.9300  -30.8317   21.3521 C   0  0  0  0  0  0
  -26.0111  -29.4606   20.7089 C   0  0  0  0  0  0
  -27.2102  -28.7114   20.6868 C   0  0  0  0  0  0
  -26.0691  -26.9247   19.4986 C   0  0  0  0  0  0
  -24.8763  -27.6754   19.5131 C   0  0  0  0  0  0
  -23.6136  -29.8084   20.1663 C   0  0  0  0  0  0
  -25.4103  -36.3124   24.0334 C   0  0  1  0  0  0
  -20.5840  -28.3671   23.1354 C   0  0  2  0  0  0
  -20.6717  -26.9363   22.5521 C   0  0  0  0  0  0
  -19.5719  -26.6353   21.5296 C   0  0  0  0  0  0
  -18.1886  -26.7920   22.1699 C   0  0  0  0  0  0
  -19.1501  -28.8847   23.2932 C   0  0  0  0  0  0
  -18.9433  -30.1488   23.8878 C   0  0  0  0  0  0
  -17.6434  -30.6616   24.0544 C   0  0  0  0  0  0
  -25.9030  -34.9485   23.5117 C   0  0  0  0  0  0
  -16.5324  -29.9111   23.6328 C   0  0  0  0  0  0
  -16.7236  -28.6530   23.0338 C   0  0  0  0  0  0
  -26.4468  -31.6603   25.0696 C   0  0  0  0  0  0
  -25.3748  -31.3670   26.1449 C   0  0  0  0  0  0
  -27.0243  -30.3042   24.6025 C   0  0  0  0  0  0
  -27.6042  -32.4322   25.7475 C   0  0  0  0  0  0
  -27.5579  -37.1823   24.8473 C   0  0  0  0  0  0
  -21.4121  -29.3019   22.3724 N   0  0  0  0  0  0
  -26.4297  -37.3805   23.9405 N   0  0  0  0  0  0
  -24.6679  -31.0754   22.0946 N   0  0  0  0  0  0
  -23.4147  -28.8206   23.3089 O   0  0  0  0  0  0
  -28.4607  -26.7590   20.0658 O   0  0  0  0  0  0
  -26.5606  -34.8942   22.4696 O   0  0  0  0  0  0
  -23.5333  -32.1402   23.7460 O   0  0  0  0  0  0
  -27.9866  -21.0375   20.3452 C   0  0  0  0  0  0
  -29.0600  -22.2829   21.7836 C   0  0  0  0  0  0
  -28.8173  -20.9594   21.5056 C   0  0  0  0  0  0
  -28.9721  -16.2620   20.7028 C   0  0  0  0  0  0
  -31.1297  -16.4513   21.9621 C   0  0  0  0  0  0
  -28.5722  -17.6592   21.2640 C   0  0  0  0  0  0
  -30.5350  -17.6956   22.6462 C   0  0  0  0  0  0
  -29.2558  -19.7820   22.3794 C   0  0  0  0  0  0
  -28.0763  -24.5076   20.9849 C   0  0  0  0  0  0
  -28.5272  -25.3514   19.7726 C   0  0  0  0  0  0
  -27.7011  -22.2914   19.9954 N   0  0  0  0  0  0
  -28.3379  -23.0653   20.9019 N   0  0  0  0  0  0
  -30.1723  -15.5777   21.2475 N   0  0  0  0  0  0
  -29.6960  -18.5047   21.7267 N   0  3  0  0  0  0
  -31.4589  -12.4310   19.1339 H   0  0  0  0  0  0
  -30.3314  -11.3403   19.8798 H   0  0  0  0  0  0
  -29.7570  -11.7354   17.4625 H   0  0  0  0  0  0
  -29.6321  -13.4546   17.7549 H   0  0  0  0  0  0
  -27.8616  -11.2504   18.8691 H   0  0  0  0  0  0
  -27.3594  -12.5232   17.7866 H   0  0  0  0  0  0
  -27.6584  -14.1932   19.4575 H   0  0  0  0  0  0
  -28.6841  -12.0107   21.3662 H   0  0  0  0  0  0
  -28.4380  -13.6600   21.8463 H   0  0  0  0  0  0
  -25.2716   -9.5676   22.4771 H   0  0  0  0  0  0
  -23.9981   -7.4593   22.7461 H   0  0  0  0  0  0
  -21.0821   -8.8730   19.8934 H   0  0  0  0  0  0
  -22.3641  -10.9656   19.6193 H   0  0  0  0  0  0
  -21.1951   -7.6133   23.9711 H   0  0  0  0  0  0
  -21.1519   -6.0538   25.9096 H   0  0  0  0  0  0
  -22.0585   -2.7600   23.2877 H   0  0  0  0  0  0
  -22.4056  -11.9856   22.4793 H   0  0  0  0  0  0
  -21.1098  -13.1293   22.2652 H   0  0  0  0  0  0
  -24.6327  -15.8095   20.4294 H   0  0  0  0  0  0
  -26.2259  -15.5803   19.9257 H   0  0  0  0  0  0
  -26.7095  -32.5553   23.1119 H   0  0  0  0  0  0
  -24.9986  -33.9765   25.0426 H   0  0  0  0  0  0
  -22.6920  -31.2973   21.4033 H   0  0  0  0  0  0
  -23.3725  -35.9688   23.3322 H   0  0  0  0  0  0
  -24.3559  -36.8927   22.2047 H   0  0  0  0  0  0
  -23.7252  -37.6556   23.6637 H   0  0  0  0  0  0
  -26.0305  -31.5879   20.5711 H   0  0  0  0  0  0
  -26.8237  -30.9014   21.9604 H   0  0  0  0  0  0
  -28.1095  -29.1155   21.1316 H   0  0  0  0  0  0
  -26.0458  -25.9601   19.0149 H   0  0  0  0  0  0
  -23.9856  -27.2693   19.0538 H   0  0  0  0  0  0
  -23.7206  -30.5808   19.4026 H   0  0  0  0  0  0
  -22.7397  -29.2231   19.8753 H   0  0  0  0  0  0
  -25.1275  -36.1990   25.0823 H   0  0  0  0  0  0
  -20.9936  -28.3285   24.1469 H   0  0  0  0  0  0
  -20.5512  -26.2320   23.3774 H   0  0  0  0  0  0
  -21.6582  -26.7280   22.1375 H   0  0  0  0  0  0
  -19.6859  -25.6246   21.1357 H   0  0  0  0  0  0
  -19.6716  -27.3159   20.6830 H   0  0  0  0  0  0
  -17.4149  -26.6601   21.4130 H   0  0  0  0  0  0
  -18.0260  -26.0083   22.9111 H   0  0  0  0  0  0
  -19.7910  -30.7370   24.2138 H   0  0  0  0  0  0
  -17.4986  -31.6326   24.5091 H   0  0  0  0  0  0
  -15.5328  -30.3028   23.7626 H   0  0  0  0  0  0
  -15.8632  -28.0848   22.7055 H   0  0  0  0  0  0
  -24.5944  -30.7006   25.7761 H   0  0  0  0  0  0
  -24.8900  -32.2791   26.4932 H   0  0  0  0  0  0
  -25.8109  -30.8816   27.0190 H   0  0  0  0  0  0
  -26.2724  -29.6846   24.1123 H   0  0  0  0  0  0
  -27.4048  -29.7250   25.4443 H   0  0  0  0  0  0
  -27.8567  -30.4323   23.9102 H   0  0  0  0  0  0
  -27.2655  -33.3610   26.2078 H   0  0  0  0  0  0
  -28.3863  -32.6888   25.0322 H   0  0  0  0  0  0
  -28.0713  -31.8439   26.5376 H   0  0  0  0  0  0
  -28.2627  -38.0092   24.7497 H   0  0  0  0  0  0
  -28.1039  -36.2622   24.6326 H   0  0  0  0  0  0
  -27.2301  -37.1540   25.8881 H   0  0  0  0  0  0
  -20.9280  -29.8693   21.6908 H   0  0  0  0  0  0
  -26.0189  -38.2889   24.1392 H   0  0  0  0  0  0
  -27.5289  -20.2398   19.7774 H   0  0  0  0  0  0
  -29.6161  -22.7304   22.5976 H   0  0  0  0  0  0
  -29.0700  -16.3364   19.6175 H   0  0  0  0  0  0
  -28.1036  -15.6441   20.8990 H   0  0  0  0  0  0
  -31.6552  -15.8559   22.7106 H   0  0  0  0  0  0
  -31.8954  -16.8029   21.2677 H   0  0  0  0  0  0
  -27.8966  -17.5040   22.1075 H   0  0  0  0  0  0
  -27.9848  -18.1881   20.5166 H   0  0  0  0  0  0
  -31.3567  -18.2959   23.0372 H   0  0  0  0  0  0
  -29.9425  -17.3893   23.5111 H   0  0  0  0  0  0
  -28.4743  -19.5481   23.1028 H   0  0  0  0  0  0
  -30.0841  -20.1320   22.9970 H   0  0  0  0  0  0
  -27.0093  -24.6489   21.1578 H   0  0  0  0  0  0
  -28.5779  -24.8845   21.8777 H   0  0  0  0  0  0
  -27.9969  -25.0859   18.8591 H   0  0  0  0  0  0
  -29.5757  -25.1320   19.5652 H   0  0  0  0  0  0
  -30.2716  -18.7503   20.9354 H   0  0  0  0  0  0
  1 25  1  0  0  0
  1 30  2  0  0  0
  1 83  1  0  0  0
  2  3  1  0  0  0
  2 25  1  0  0  0
  2 85  1  0  0  0
  2 86  1  0  0  0
  3  4  1  0  0  0
  3 87  1  0  0  0
  3 88  1  0  0  0
  4  5  1  0  0  0
  4 89  1  0  0  0
  4 90  1  0  0  0
  5  6  1  0  0  0
  5 26  1  0  0  0
  5 91  1  0  0  0
  6 25  1  0  0  0
  6 92  1  0  0  0
  6 93  1  0  0  0
  7  8  2  0  0  0
  7 26  1  0  0  0
  7 29  1  0  0  0
  8  9  1  0  0  0
  8 22  1  0  0  0
  9 10  1  0  0  0
  9 27  2  0  0  0
 10 11  2  0  0  0
 10 15  1  0  0  0
 11 12  1  0  0  0
 11 94  1  0  0  0
 12 13  2  0  0  0
 12 95  1  0  0  0
 13 14  1  0  0  0
 13 31  1  0  0  0
 14 15  2  0  0  0
 14 96  1  0  0  0
 15 97  1  0  0  0
 16 17  2  0  0  0
 16 21  1  0  0  0
 16 31  1  0  0  0
 17 18  1  0  0  0
 17 98  1  0  0  0
 18 19  2  0  0  0
 18 99  1  0  0  0
 19 20  1  0  0  0
 19 24  1  0  0  0
 20 21  2  0  0  0
 20100  1  0  0  0
 21 23  1  0  0  0
 22 28  1  0  0  0
 22 32  2  0  0  0
 26 27  1  0  0  0
 28101  1  0  0  0
 28102  1  0  0  0
 29103  1  0  0  0
 29104  1  0  0  0
 33 34  1  0  0  0
 33 66  1  0  0  0
 33 70  2  0  0  0
 34 36  1  0  0  0
 34 59  1  0  0  0
 34105  1  0  0  0
 35 44  2  0  0  0
 35 45  1  0  0  0
 35 68  1  0  0  0
 36 56  1  0  0  0
 36106  1  0  0  0
 37 39  1  0  0  0
 37 47  1  0  0  0
 37 66  1  0  0  0
 37107  1  0  0  0
 38 43  2  0  0  0
 38 46  1  0  0  0
 38 47  1  0  0  0
 39 64  1  0  0  0
 39 67  2  0  0  0
 40 52  1  0  0  0
 40 53  2  0  0  0
 40 58  1  0  0  0
 41108  1  0  0  0
 41109  1  0  0  0
 41110  1  0  0  0
 41 48  1  0  0  0
 42 43  1  0  0  0
 42 66  1  0  0  0
 42111  1  0  0  0
 42112  1  0  0  0
 43 44  1  0  0  0
 44113  1  0  0  0
 45 46  2  0  0  0
 45114  1  0  0  0
 46115  1  0  0  0
 47116  1  0  0  0
 47117  1  0  0  0
 48 56  1  0  0  0
 48 65  1  0  0  0
 48118  1  0  0  0
 49 50  1  0  0  0
 49 53  1  0  0  0
 49 64  1  0  0  0
 49119  1  0  0  0
 50 51  1  0  0  0
 50120  1  0  0  0
 50121  1  0  0  0
 51 52  1  0  0  0
 51122  1  0  0  0
 51123  1  0  0  0
 52124  1  0  0  0
 52125  1  0  0  0
 53 54  1  0  0  0
 54 55  2  0  0  0
 54126  1  0  0  0
 55 57  1  0  0  0
 55127  1  0  0  0
 56 69  2  0  0  0
 57 58  2  0  0  0
 57128  1  0  0  0
 58129  1  0  0  0
 59 60  1  0  0  0
 59 61  1  0  0  0
 59 62  1  0  0  0
 60130  1  0  0  0
 60131  1  0  0  0
 60132  1  0  0  0
 61133  1  0  0  0
 61134  1  0  0  0
 61135  1  0  0  0
 62136  1  0  0  0
 62137  1  0  0  0
 62138  1  0  0  0
 63 65  1  0  0  0
 63139  1  0  0  0
 63140  1  0  0  0
 63141  1  0  0  0
 64142  1  0  0  0
 65143  1  0  0  0
 68 80  1  0  0  0
 71 73  1  0  0  0
 71 81  2  0  0  0
 71144  1  0  0  0
 72 73  2  0  0  0
 72 82  1  0  0  0
 72145  1  0  0  0
 73 78  1  0  0  0
 74 76  1  0  0  0
 74 83  1  0  0  0
 74146  1  0  0  0
 74147  1  0  0  0
 75 77  1  0  0  0
 75 83  1  0  0  0
 75148  1  0  0  0
 75149  1  0  0  0
 76 84  1  0  0  0
 76150  1  0  0  0
 76151  1  0  0  0
 77 84  1  0  0  0
 77152  1  0  0  0
 77153  1  0  0  0
 78154  1  0  0  0
 78155  1  0  0  0
 78 84  1  0  0  0
 79 80  1  0  0  0
 79 82  1  0  0  0
 79156  1  0  0  0
 79157  1  0  0  0
 80158  1  0  0  0
 80159  1  0  0  0
 81 82  1  0  0  0
 84160  1  0  0  0
M  CHG  1  84   1
M  ISO  4   1 100  68 101  80 101  83 100
M  END
> <chiral flag>
0

> <version>
0

> <s_m_source_file>
/data/baiqing/PycharmProjects/Reinvent-master-3.2/result/LINK_invent/BTK/process_docking_weight1_custom_sum_contain_oxygen_bond_distance_aromatic_linkinvent_7_9_3/rearranged_h_0193.sdf

> <i_m_source_file_index>
44

> <r_mmod_Potential_Energy-OPLS-2005>
39.0793037414551

> <r_mmod_Stretch_Energy-OPLS-2005>
43.9980049133301

> <r_mmod_Bend_Energy-OPLS-2005>
137.861175537109

> <r_mmod_Torsional_Energy-OPLS-2005>
370.813262939453

> <r_mmod_Improper_Torsional_Energy-OPLS-2005>
6.70772933959961

> <r_mmod_Van_der_Waal_Energy-OPLS-2005>
140.874160766602

> <r_mmod_Electrostatic_Energy-OPLS-2005>
-210.07649230957

> <r_mmod_Solvation_Energy-OPLS-2005>
-469.526977539062

> <b_mmod_Minimization_Converged-OPLS-2005>
0

> <r_mmod_RMS_Derivative-OPLS-2005>
2.97040128707886

$$$$
44
                    3D
 Structure written by MMmdl.
169178  0  0  1  0            999 V2000
  -30.6896  -14.4427   20.5712 C   0  0  0  0  0  0
  -30.4183  -12.2850   19.4141 C   0  0  0  0  0  0
  -29.4939  -12.5148   18.1998 C   0  0  0  0  0  0
  -28.0112  -12.3834   18.6072 C   0  0  0  0  0  0
  -27.6617  -13.2026   19.8791 C   0  0  2  0  0  0
  -28.7016  -12.9567   20.9955 C   0  0  0  0  0  0
  -25.2592  -13.8146   20.5688 C   0  0  0  0  0  0
  -24.1829  -13.0433   20.9166 C   0  0  0  0  0  0
  -24.6380  -11.6892   20.8733 C   0  0  0  0  0  0
  -23.9046  -10.4285   21.0400 C   0  0  0  0  0  0
  -24.3610   -9.4208   21.9182 C   0  0  0  0  0  0
  -23.6293   -8.2242   22.0754 C   0  0  0  0  0  0
  -22.4270   -8.0278   21.3547 C   0  0  0  0  0  0
  -21.9901   -9.0242   20.4642 C   0  0  0  0  0  0
  -22.7222  -10.2127   20.3049 C   0  0  0  0  0  0
  -21.6853   -6.0731   22.5280 C   0  0  0  0  0  0
  -21.4011   -6.5638   23.8215 C   0  0  0  0  0  0
  -21.3666   -5.6799   24.9182 C   0  0  0  0  0  0
  -21.6042   -4.3060   24.7232 C   0  0  0  0  0  0
  -21.8822   -3.8148   23.4358 C   0  0  0  0  0  0
  -21.9195   -4.6961   22.3410 C   0  0  0  0  0  0
  -22.7856  -13.5241   21.1840 C   0  0  0  0  0  0
  -22.1665   -4.2152   21.0989 F   0  0  0  0  0  0
  -21.5631   -3.4537   25.7743 F   0  0  0  0  0  0
  -30.0339  -13.2576   20.4455 N   0  0  0  0  0  0
  -26.3024  -12.9307   20.3385 N   0  0  0  0  0  0
  -25.9310  -11.6466   20.5764 N   0  0  0  0  0  0
  -22.0499  -12.8220   22.0393 N   0  0  0  0  0  0
  -25.4332  -15.1863   20.4113 N   0  0  0  0  0  0
  -31.8167  -14.6432   20.1065 O   0  0  0  0  0  0
  -21.6638   -6.8871   21.4240 O   0  0  0  0  0  0
  -22.3534  -14.5550   20.6706 O   0  0  0  0  0  0
  -24.6096  -31.8716   23.2128 C   0  0  0  0  0  0
  -25.9008  -32.4842   23.8412 C   0  0  1  0  0  0
  -27.2344  -27.4695   20.0980 C   0  0  0  0  0  0
  -25.5888  -33.8640   24.2343 N   0  0  0  0  0  0
  -23.3960  -30.4924   21.5533 C   0  0  2  0  0  0
  -24.8426  -28.9625   20.1145 C   0  0  0  0  0  0
  -22.7385  -29.4661   22.5026 C   0  0  0  0  0  0
  -18.0260  -28.1372   22.8482 C   0  0  0  0  0  0
  -24.1486  -36.7314   23.2642 C   0  0  0  0  0  0
  -25.9188  -30.8477   21.3611 C   0  0  0  0  0  0
  -25.9969  -29.4839   20.7114 C   0  0  0  0  0  0
  -27.1960  -28.7446   20.7040 C   0  0  0  0  0  0
  -26.0725  -26.9608   19.4848 C   0  0  0  0  0  0
  -24.8734  -27.6979   19.4992 C   0  0  0  0  0  0
  -23.6024  -29.8238   20.1663 C   0  0  0  0  0  0
  -25.4107  -36.3124   24.0342 C   0  0  1  0  0  0
  -20.5848  -28.3648   23.1338 C   0  0  2  0  0  0
  -20.6763  -26.9394   22.5426 C   0  0  0  0  0  0
  -19.5750  -26.6379   21.5215 C   0  0  0  0  0  0
  -18.1917  -26.7920   22.1616 C   0  0  0  0  0  0
  -19.1505  -28.8831   23.2908 C   0  0  0  0  0  0
  -18.9446  -30.1440   23.8915 C   0  0  0  0  0  0
  -17.6452  -30.6587   24.0561 C   0  0  0  0  0  0
  -25.9027  -34.9486   23.5136 C   0  0  0  0  0  0
  -16.5343  -29.9090   23.6326 C   0  0  0  0  0  0
  -16.7255  -28.6507   23.0345 C   0  0  0  0  0  0
  -26.4461  -31.6613   25.0720 C   0  0  0  0  0  0
  -25.3737  -31.3731   26.1479 C   0  0  0  0  0  0
  -27.0293  -30.3064   24.6070 C   0  0  0  0  0  0
  -27.6035  -32.4335   25.7479 C   0  0  0  0  0  0
  -27.5581  -37.1819   24.8467 C   0  0  0  0  0  0
  -21.4122  -29.3012   22.3753 N   0  0  0  0  0  0
  -26.4292  -37.3798   23.9408 N   0  0  0  0  0  0
  -24.6591  -31.0844   22.1009 N   0  0  0  0  0  0
  -23.4168  -28.8196   23.3054 O   0  0  0  0  0  0
  -28.3784  -26.7111   20.0633 O   0  0  0  0  0  0
  -26.5589  -34.8932   22.4694 O   0  0  0  0  0  0
  -23.5297  -32.1451   23.7543 O   0  0  0  0  0  0
  -31.6916  -22.8978   23.2392 C   0  0  0  0  0  0
  -32.0913  -21.7497   23.9299 C   0  0  0  0  0  0
  -31.2302  -22.7167   21.9284 C   0  0  0  0  0  0
  -31.5663  -20.4731   22.1218 C   0  0  0  0  0  0
  -30.9279  -17.1547   22.4761 C   0  0  0  0  0  0
  -30.4604  -17.7224   20.0514 C   0  0  0  0  0  0
  -29.9405  -15.9747   22.3498 C   0  0  0  0  0  0
  -29.4959  -16.5197   20.0248 C   0  0  0  0  0  0
  -30.6367  -18.2966   21.4726 C   0  0  0  0  0  0
  -31.5812  -23.8923   19.6992 C   0  0  0  0  0  0
  -28.6847  -24.9749   21.7319 C   0  0  0  0  0  0
  -28.9690  -26.4403   21.3350 C   0  0  0  0  0  0
  -30.8598  -23.9120   21.0566 C   0  0  1  0  0  0
  -32.0605  -20.5386   23.3425 N   0  0  0  0  0  0
  -31.1006  -21.4799   21.3956 N   0  0  0  0  0  0
  -29.9113  -15.4765   20.9729 N   0  0  0  0  0  0
  -31.7252  -19.2661   21.4972 N   0  0  0  0  0  0
  -29.3981  -23.9821   20.8846 N   0  3  0  0  0  0
  -31.4666  -12.3770   19.1230 H   0  0  0  0  0  0
  -30.3046  -11.2685   19.7925 H   0  0  0  0  0  0
  -29.7273  -11.8071   17.4041 H   0  0  0  0  0  0
  -29.6710  -13.5087   17.7853 H   0  0  0  0  0  0
  -27.8041  -11.3268   18.7768 H   0  0  0  0  0  0
  -27.3675  -12.6899   17.7821 H   0  0  0  0  0  0
  -27.7100  -14.2527   19.5951 H   0  0  0  0  0  0
  -28.6661  -11.9181   21.3283 H   0  0  0  0  0  0
  -28.4717  -13.5544   21.8791 H   0  0  0  0  0  0
  -25.2759   -9.5695   22.4746 H   0  0  0  0  0  0
  -24.0018   -7.4632   22.7471 H   0  0  0  0  0  0
  -21.0835   -8.8746   19.8945 H   0  0  0  0  0  0
  -22.3676  -10.9658   19.6151 H   0  0  0  0  0  0
  -21.2003   -7.6145   23.9716 H   0  0  0  0  0  0
  -21.1484   -6.0529   25.9085 H   0  0  0  0  0  0
  -22.0596   -2.7605   23.2855 H   0  0  0  0  0  0
  -22.4128  -11.9898   22.4790 H   0  0  0  0  0  0
  -21.1112  -13.1228   22.2600 H   0  0  0  0  0  0
  -24.6716  -15.8460   20.5288 H   0  0  0  0  0  0
  -26.2966  -15.6253   20.1190 H   0  0  0  0  0  0
  -26.7086  -32.5578   23.1197 H   0  0  0  0  0  0
  -25.0061  -33.9827   25.0508 H   0  0  0  0  0  0
  -22.6822  -31.3071   21.4159 H   0  0  0  0  0  0
  -23.3750  -35.9648   23.3322 H   0  0  0  0  0  0
  -24.3579  -36.8900   22.2049 H   0  0  0  0  0  0
  -23.7240  -37.6527   23.6640 H   0  0  0  0  0  0
  -26.0278  -31.6160   20.5947 H   0  0  0  0  0  0
  -26.8081  -30.9016   21.9773 H   0  0  0  0  0  0
  -28.0860  -29.1601   21.1552 H   0  0  0  0  0  0
  -26.0944  -25.9907   19.0079 H   0  0  0  0  0  0
  -23.9853  -27.2924   19.0329 H   0  0  0  0  0  0
  -23.7034  -30.6003   19.4067 H   0  0  0  0  0  0
  -22.7276  -29.2400   19.8729 H   0  0  0  0  0  0
  -25.1281  -36.1992   25.0837 H   0  0  0  0  0  0
  -20.9933  -28.3209   24.1461 H   0  0  0  0  0  0
  -20.5682  -26.2255   23.3599 H   0  0  0  0  0  0
  -21.6635  -26.7460   22.1207 H   0  0  0  0  0  0
  -19.6923  -25.6290   21.1242 H   0  0  0  0  0  0
  -19.6702  -27.3198   20.6742 H   0  0  0  0  0  0
  -17.4196  -26.6665   21.4010 H   0  0  0  0  0  0
  -18.0320  -26.0066   22.9013 H   0  0  0  0  0  0
  -19.7924  -30.7243   24.2295 H   0  0  0  0  0  0
  -17.5009  -31.6265   24.5150 H   0  0  0  0  0  0
  -15.5346  -30.3000   23.7634 H   0  0  0  0  0  0
  -15.8652  -28.0833   22.7051 H   0  0  0  0  0  0
  -24.5861  -30.7134   25.7822 H   0  0  0  0  0  0
  -24.8990  -32.2901   26.4978 H   0  0  0  0  0  0
  -25.8081  -30.8851   27.0213 H   0  0  0  0  0  0
  -26.2832  -29.6843   24.1109 H   0  0  0  0  0  0
  -27.4068  -29.7279   25.4518 H   0  0  0  0  0  0
  -27.8665  -30.4410   23.9214 H   0  0  0  0  0  0
  -27.2634  -33.3606   26.2117 H   0  0  0  0  0  0
  -28.3812  -32.6955   25.0288 H   0  0  0  0  0  0
  -28.0746  -31.8432   26.5357 H   0  0  0  0  0  0
  -28.2609  -38.0107   24.7494 H   0  0  0  0  0  0
  -28.1063  -36.2638   24.6305 H   0  0  0  0  0  0
  -27.2295  -37.1464   25.8869 H   0  0  0  0  0  0
  -20.9282  -29.8727   21.6976 H   0  0  0  0  0  0
  -26.0187  -38.2882   24.1414 H   0  0  0  0  0  0
  -31.7727  -23.8749   23.6984 H   0  0  0  0  0  0
  -32.4793  -21.8011   24.9363 H   0  0  0  0  0  0
  -31.9389  -16.7739   22.3159 H   0  0  0  0  0  0
  -30.9091  -17.5394   23.4971 H   0  0  0  0  0  0
  -30.0923  -18.5002   19.3790 H   0  0  0  0  0  0
  -31.4264  -17.4068   19.6524 H   0  0  0  0  0  0
  -28.9361  -16.2897   22.6374 H   0  0  0  0  0  0
  -30.2196  -15.1754   23.0387 H   0  0  0  0  0  0
  -29.4343  -16.1154   19.0130 H   0  0  0  0  0  0
  -28.4861  -16.8441   20.2779 H   0  0  0  0  0  0
  -29.7076  -18.7907   21.7641 H   0  0  0  0  0  0
  -32.6616  -23.8844   19.8352 H   0  0  0  0  0  0
  -31.3347  -24.7716   19.1042 H   0  0  0  0  0  0
  -31.3156  -23.0095   19.1177 H   0  0  0  0  0  0
  -27.6120  -24.7902   21.6663 H   0  0  0  0  0  0
  -28.9521  -24.8182   22.7774 H   0  0  0  0  0  0
  -30.0356  -26.6536   21.2761 H   0  0  0  0  0  0
  -28.5889  -27.0909   22.1237 H   0  0  0  0  0  0
  -31.2134  -24.8023   21.5769 H   0  0  0  0  0  0
  -32.5272  -18.8017   21.9014 H   0  0  0  0  0  0
  -29.2004  -24.1666   19.9157 H   0  0  0  0  0  0
  -29.0726  -23.0489   21.0872 H   0  0  0  0  0  0
  1 25  1  0  0  0
  1 30  2  0  0  0
  1 86  1  0  0  0
  2  3  1  0  0  0
  2 25  1  0  0  0
  2 89  1  0  0  0
  2 90  1  0  0  0
  3  4  1  0  0  0
  3 91  1  0  0  0
  3 92  1  0  0  0
  4  5  1  0  0  0
  4 93  1  0  0  0
  4 94  1  0  0  0
  5  6  1  0  0  0
  5 26  1  0  0  0
  5 95  1  0  0  0
  6 25  1  0  0  0
  6 96  1  0  0  0
  6 97  1  0  0  0
  7  8  2  0  0  0
  7 26  1  0  0  0
  7 29  1  0  0  0
  8  9  1  0  0  0
  8 22  1  0  0  0
  9 10  1  0  0  0
  9 27  2  0  0  0
 10 11  2  0  0  0
 10 15  1  0  0  0
 11 12  1  0  0  0
 11 98  1  0  0  0
 12 13  2  0  0  0
 12 99  1  0  0  0
 13 14  1  0  0  0
 13 31  1  0  0  0
 14 15  2  0  0  0
 14100  1  0  0  0
 15101  1  0  0  0
 16 17  2  0  0  0
 16 21  1  0  0  0
 16 31  1  0  0  0
 17 18  1  0  0  0
 17102  1  0  0  0
 18 19  2  0  0  0
 18103  1  0  0  0
 19 20  1  0  0  0
 19 24  1  0  0  0
 20 21  2  0  0  0
 20104  1  0  0  0
 21 23  1  0  0  0
 22 28  1  0  0  0
 22 32  2  0  0  0
 26 27  1  0  0  0
 28105  1  0  0  0
 28106  1  0  0  0
 29107  1  0  0  0
 29108  1  0  0  0
 33 34  1  0  0  0
 33 66  1  0  0  0
 33 70  2  0  0  0
 34 36  1  0  0  0
 34 59  1  0  0  0
 34109  1  0  0  0
 35 44  2  0  0  0
 35 45  1  0  0  0
 35 68  1  0  0  0
 36 56  1  0  0  0
 36110  1  0  0  0
 37 39  1  0  0  0
 37 47  1  0  0  0
 37 66  1  0  0  0
 37111  1  0  0  0
 38 43  2  0  0  0
 38 46  1  0  0  0
 38 47  1  0  0  0
 39 64  1  0  0  0
 39 67  2  0  0  0
 40 52  1  0  0  0
 40 53  2  0  0  0
 40 58  1  0  0  0
 41112  1  0  0  0
 41113  1  0  0  0
 41114  1  0  0  0
 41 48  1  0  0  0
 42 43  1  0  0  0
 42 66  1  0  0  0
 42115  1  0  0  0
 42116  1  0  0  0
 43 44  1  0  0  0
 44117  1  0  0  0
 45 46  2  0  0  0
 45118  1  0  0  0
 46119  1  0  0  0
 47120  1  0  0  0
 47121  1  0  0  0
 48 56  1  0  0  0
 48 65  1  0  0  0
 48122  1  0  0  0
 49 50  1  0  0  0
 49 53  1  0  0  0
 49 64  1  0  0  0
 49123  1  0  0  0
 50 51  1  0  0  0
 50124  1  0  0  0
 50125  1  0  0  0
 51 52  1  0  0  0
 51126  1  0  0  0
 51127  1  0  0  0
 52128  1  0  0  0
 52129  1  0  0  0
 53 54  1  0  0  0
 54 55  2  0  0  0
 54130  1  0  0  0
 55 57  1  0  0  0
 55131  1  0  0  0
 56 69  2  0  0  0
 57 58  2  0  0  0
 57132  1  0  0  0
 58133  1  0  0  0
 59 60  1  0  0  0
 59 61  1  0  0  0
 59 62  1  0  0  0
 60134  1  0  0  0
 60135  1  0  0  0
 60136  1  0  0  0
 61137  1  0  0  0
 61138  1  0  0  0
 61139  1  0  0  0
 62140  1  0  0  0
 62141  1  0  0  0
 62142  1  0  0  0
 63 65  1  0  0  0
 63143  1  0  0  0
 63144  1  0  0  0
 63145  1  0  0  0
 64146  1  0  0  0
 65147  1  0  0  0
 68 82  1  0  0  0
 71 72  2  0  0  0
 71 73  1  0  0  0
 71148  1  0  0  0
 72 84  1  0  0  0
 72149  1  0  0  0
 73 83  1  0  0  0
 73 85  2  0  0  0
 74 84  2  0  0  0
 74 85  1  0  0  0
 74 87  1  0  0  0
 75 77  1  0  0  0
 75 79  1  0  0  0
 75150  1  0  0  0
 75151  1  0  0  0
 76 78  1  0  0  0
 76 79  1  0  0  0
 76152  1  0  0  0
 76153  1  0  0  0
 77 86  1  0  0  0
 77154  1  0  0  0
 77155  1  0  0  0
 78 86  1  0  0  0
 78156  1  0  0  0
 78157  1  0  0  0
 79 87  1  0  0  0
 79158  1  0  0  0
 80159  1  0  0  0
 80160  1  0  0  0
 80161  1  0  0  0
 80 83  1  0  0  0
 81 82  1  0  0  0
 81 88  1  0  0  0
 81162  1  0  0  0
 81163  1  0  0  0
 82164  1  0  0  0
 82165  1  0  0  0
 83 88  1  0  0  0
 83166  1  0  0  0
 87167  1  0  0  0
 88168  1  0  0  0
 88169  1  0  0  0
M  CHG  1  88   1
M  ISO  4   1 100  68 101  82 101  86 100
M  END
> <chiral flag>
0

> <version>
0

> <s_m_source_file>
/data/baiqing/PycharmProjects/Reinvent-master-3.2/result/LINK_invent/BTK/process_docking_weight1_custom_sum_contain_oxygen_bond_distance_aromatic_linkinvent_7_9_3/rearranged_h_0193.sdf

> <i_m_source_file_index>
45

> <r_mmod_Potential_Energy-OPLS-2005>
-632.151550292969

> <r_mmod_Stretch_Energy-OPLS-2005>
33.476448059082

> <r_mmod_Bend_Energy-OPLS-2005>
98.3050155639648

> <r_mmod_Torsional_Energy-OPLS-2005>
370.859069824219

> <r_mmod_Improper_Torsional_Energy-OPLS-2005>
15.4325428009033

> <r_mmod_Van_der_Waal_Energy-OPLS-2005>
158.404144287109

> <r_mmod_Electrostatic_Energy-OPLS-2005>
-866.359497070312

> <r_mmod_Solvation_Energy-OPLS-2005>
-451.503601074219

> <b_mmod_Minimization_Converged-OPLS-2005>
0

> <r_mmod_RMS_Derivative-OPLS-2005>
2.19145655632019

$$$$
45
                    3D
 Structure written by MMmdl.
154163  0  0  1  0            999 V2000
  -30.2757  -15.7923   20.2173 C   0  0  0  0  0  0
  -30.3827  -13.1815   19.5118 C   0  0  0  0  0  0
  -29.5509  -12.6241   18.3163 C   0  0  0  0  0  0
  -28.0364  -12.7724   18.5570 C   0  0  0  0  0  0
  -27.7327  -12.9010   20.0682 C   0  0  2  0  0  0
  -28.5973  -13.8561   20.9197 C   0  0  0  0  0  0
  -25.2900  -13.7664   20.5582 C   0  0  0  0  0  0
  -24.1806  -13.0344   20.8965 C   0  0  0  0  0  0
  -24.6017  -11.6695   20.8882 C   0  0  0  0  0  0
  -23.8718  -10.4187   21.0496 C   0  0  0  0  0  0
  -24.3394   -9.4160   21.9197 C   0  0  0  0  0  0
  -23.6177   -8.2169   22.0810 C   0  0  0  0  0  0
  -22.4210   -8.0171   21.3555 C   0  0  0  0  0  0
  -21.9762   -9.0127   20.4704 C   0  0  0  0  0  0
  -22.6965  -10.2034   20.3109 C   0  0  0  0  0  0
  -21.6921   -6.0676   22.5252 C   0  0  0  0  0  0
  -21.4064   -6.5650   23.8147 C   0  0  0  0  0  0
  -21.3604   -5.6808   24.9136 C   0  0  0  0  0  0
  -21.6010   -4.3068   24.7180 C   0  0  0  0  0  0
  -21.8835   -3.8119   23.4315 C   0  0  0  0  0  0
  -21.9230   -4.6913   22.3367 C   0  0  0  0  0  0
  -22.7891  -13.5431   21.1479 C   0  0  0  0  0  0
  -22.1629   -4.2106   21.0932 F   0  0  0  0  0  0
  -21.5578   -3.4572   25.7678 F   0  0  0  0  0  0
  -29.7220  -14.4265   20.1366 N   0  0  0  0  0  0
  -26.3182  -12.8307   20.4196 N   0  0  0  0  0  0
  -25.8831  -11.5774   20.6216 N   0  0  0  0  0  0
  -22.0525  -12.8561   22.0137 N   0  0  0  0  0  0
  -25.4833  -15.1245   20.3574 N   0  0  0  0  0  0
  -31.5163  -15.6412   20.2146 O   0  0  0  0  0  0
  -21.6619   -6.8771   21.4224 O   0  0  0  0  0  0
  -22.3671  -14.5664   20.6150 O   0  0  0  0  0  0
  -24.6841  -31.7919   23.1468 C   0  0  0  0  0  0
  -25.9411  -32.4448   23.8026 C   0  0  1  0  0  0
  -27.2482  -26.6494   20.2170 C   0  0  0  0  0  0
  -25.5970  -33.8284   24.1955 N   0  0  0  0  0  0
  -23.5188  -30.3859   21.5057 C   0  0  2  0  0  0
  -24.9845  -28.7162   20.1101 C   0  0  0  0  0  0
  -22.7809  -29.4232   22.4749 C   0  0  0  0  0  0
  -18.0307  -28.1410   22.8461 C   0  0  0  0  0  0
  -24.1494  -36.7151   23.2657 C   0  0  0  0  0  0
  -26.1017  -30.5063   21.4233 C   0  0  0  0  0  0
  -26.1684  -29.0675   20.7711 C   0  0  0  0  0  0
  -27.2803  -28.0614   20.7972 C   0  0  0  0  0  0
  -26.0398  -26.5332   19.4789 C   0  0  0  0  0  0
  -24.9700  -27.4830   19.4355 C   0  0  0  0  0  0
  -23.7776  -29.6752   20.1423 C   0  0  0  0  0  0
  -25.4158  -36.2914   24.0295 C   0  0  1  0  0  0
  -20.5938  -28.3751   23.1195 C   0  0  2  0  0  0
  -20.6783  -26.9427   22.5415 C   0  0  0  0  0  0
  -19.5775  -26.6374   21.5223 C   0  0  0  0  0  0
  -18.1958  -26.7935   22.1627 C   0  0  0  0  0  0
  -19.1570  -28.8906   23.2786 C   0  0  0  0  0  0
  -18.9495  -30.1496   23.8821 C   0  0  0  0  0  0
  -17.6482  -30.6596   24.0546 C   0  0  0  0  0  0
  -25.9120  -34.9305   23.4982 C   0  0  0  0  0  0
  -16.5365  -29.9089   23.6342 C   0  0  0  0  0  0
  -16.7297  -28.6507   23.0380 C   0  0  0  0  0  0
  -26.4586  -31.6463   25.0628 C   0  0  0  0  0  0
  -25.3662  -31.3724   26.1226 C   0  0  0  0  0  0
  -27.0507  -30.2830   24.6477 C   0  0  0  0  0  0
  -27.6072  -32.4276   25.7420 C   0  0  0  0  0  0
  -27.5582  -37.1727   24.8478 C   0  0  0  0  0  0
  -21.4430  -29.2979   22.3531 N   0  0  0  0  0  0
  -26.4292  -37.3696   23.9404 N   0  0  0  0  0  0
  -24.7911  -30.9275   22.0786 N   0  0  0  0  0  0
  -23.4222  -28.7821   23.3121 O   0  0  0  0  0  0
  -28.1916  -25.4077   20.3944 O   0  0  0  0  0  0
  -26.5787  -34.8882   22.4604 O   0  0  0  0  0  0
  -23.5859  -32.1038   23.6369 O   0  0  0  0  0  0
  -27.2790  -19.5912   20.2471 C   0  0  0  0  0  0
  -28.5671  -21.9118   20.3831 C   0  0  0  0  0  0
  -27.0534  -18.0791   20.1879 C   0  0  0  0  0  0
  -28.0446  -20.1824   19.0964 C   0  0  0  0  0  0
  -28.2078  -17.2117   19.5271 C   0  0  0  0  0  0
  -29.9861  -18.9674   20.2369 C   0  0  1  0  0  0
  -31.2810  -19.0718   19.4207 C   0  0  0  0  0  0
  -28.3850  -23.7294   19.8094 C   0  0  0  0  0  0
  -26.9714  -20.2883   21.3179 N   0  0  0  0  0  0
  -29.1998  -20.5665   19.8522 N   0  0  0  0  0  0
  -29.5685  -17.2248   20.1303 N   0  0  0  0  0  0
  -27.5566  -21.5838   21.2441 N   0  3  0  0  0  0
  -31.4068  -13.3845   19.1800 H   0  0  0  0  0  0
  -30.4881  -12.3976   20.2649 H   0  0  0  0  0  0
  -29.8108  -11.5758   18.1647 H   0  0  0  0  0  0
  -29.8309  -13.1420   17.4013 H   0  0  0  0  0  0
  -27.4782  -11.9672   18.0751 H   0  0  0  0  0  0
  -27.7071  -13.7005   18.0814 H   0  0  0  0  0  0
  -28.1311  -11.9502   20.4397 H   0  0  0  0  0  0
  -28.9682  -13.3529   21.8067 H   0  0  0  0  0  0
  -27.9879  -14.6828   21.2965 H   0  0  0  0  0  0
  -25.2612   -9.5664   22.4637 H   0  0  0  0  0  0
  -23.9912   -7.4663   22.7621 H   0  0  0  0  0  0
  -21.0693   -8.8609   19.9066 H   0  0  0  0  0  0
  -22.3425  -10.9518   19.6139 H   0  0  0  0  0  0
  -21.2065   -7.6174   23.9643 H   0  0  0  0  0  0
  -21.1460   -6.0544   25.9021 H   0  0  0  0  0  0
  -22.0701   -2.7626   23.2797 H   0  0  0  0  0  0
  -22.4286  -12.0181   22.4191 H   0  0  0  0  0  0
  -21.1344  -13.1857   22.2908 H   0  0  0  0  0  0
  -26.3800  -15.5347   20.1264 H   0  0  0  0  0  0
  -24.7229  -15.7909   20.3214 H   0  0  0  0  0  0
  -26.7448  -32.4915   23.0690 H   0  0  0  0  0  0
  -25.0006  -33.9323   25.0033 H   0  0  0  0  0  0
  -22.8444  -31.2192   21.3117 H   0  0  0  0  0  0
  -23.3817  -35.9419   23.3274 H   0  0  0  0  0  0
  -24.3562  -36.8857   22.2076 H   0  0  0  0  0  0
  -23.7170  -37.6294   23.6749 H   0  0  0  0  0  0
  -26.3034  -31.2254   20.6284 H   0  0  0  0  0  0
  -26.9550  -30.5817   22.0819 H   0  0  0  0  0  0
  -28.1664  -28.3328   21.3509 H   0  0  0  0  0  0
  -25.8673  -25.5933   18.9747 H   0  0  0  0  0  0
  -24.0837  -27.2194   18.8775 H   0  0  0  0  0  0
  -23.9492  -30.4362   19.3824 H   0  0  0  0  0  0
  -22.8846  -29.1344   19.8170 H   0  0  0  0  0  0
  -25.1353  -36.1731   25.0795 H   0  0  0  0  0  0
  -20.9978  -28.3333   24.1341 H   0  0  0  0  0  0
  -20.5692  -26.2339   23.3652 H   0  0  0  0  0  0
  -21.6651  -26.7404   22.1203 H   0  0  0  0  0  0
  -19.6934  -25.6278   21.1279 H   0  0  0  0  0  0
  -19.6709  -27.3162   20.6750 H   0  0  0  0  0  0
  -17.4214  -26.6663   21.4038 H   0  0  0  0  0  0
  -18.0354  -26.0096   22.9044 H   0  0  0  0  0  0
  -19.7976  -30.7336   24.2181 H   0  0  0  0  0  0
  -17.5037  -31.6289   24.5149 H   0  0  0  0  0  0
  -15.5375  -30.2971   23.7728 H   0  0  0  0  0  0
  -15.8693  -28.0811   22.7153 H   0  0  0  0  0  0
  -24.5862  -30.7080   25.7454 H   0  0  0  0  0  0
  -24.8801  -32.2910   26.4543 H   0  0  0  0  0  0
  -25.7821  -30.8899   27.0083 H   0  0  0  0  0  0
  -26.3201  -29.6462   24.1460 H   0  0  0  0  0  0
  -27.3975  -29.7221   25.5161 H   0  0  0  0  0  0
  -27.9179  -30.3997   23.9975 H   0  0  0  0  0  0
  -27.2681  -33.3635   26.1894 H   0  0  0  0  0  0
  -28.3942  -32.6760   25.0268 H   0  0  0  0  0  0
  -28.0708  -31.8459   26.5407 H   0  0  0  0  0  0
  -28.2593  -38.0039   24.7571 H   0  0  0  0  0  0
  -28.1089  -36.2564   24.6279 H   0  0  0  0  0  0
  -27.2277  -37.1335   25.8880 H   0  0  0  0  0  0
  -20.9769  -29.8612   21.6543 H   0  0  0  0  0  0
  -26.0143  -38.2749   24.1464 H   0  0  0  0  0  0
  -26.1498  -17.9175   19.5958 H   0  0  0  0  0  0
  -26.8151  -17.6914   21.1785 H   0  0  0  0  0  0
  -27.5498  -21.0536   18.6630 H   0  0  0  0  0  0
  -28.2972  -19.4940   18.2950 H   0  0  0  0  0  0
  -28.3189  -17.4657   18.4742 H   0  0  0  0  0  0
  -27.8477  -16.1903   19.4573 H   0  0  0  0  0  0
  -30.2926  -19.0814   21.2800 H   0  0  0  0  0  0
  -32.0843  -18.4589   19.8282 H   0  0  0  0  0  0
  -31.6386  -20.0999   19.3881 H   0  0  0  0  0  0
  -31.1041  -18.7588   18.3932 H   0  0  0  0  0  0
  -27.6425  -23.6676   19.0171 H   0  0  0  0  0  0
  -29.3220  -23.8658   19.2700 H   0  0  0  0  0  0
  -27.1625  -22.3013   21.8291 H   0  0  0  0  0  0
  1 25  1  0  0  0
  1 30  2  0  0  0
  1 81  1  0  0  0
  2  3  1  0  0  0
  2 25  1  0  0  0
  2 83  1  0  0  0
  2 84  1  0  0  0
  3  4  1  0  0  0
  3 85  1  0  0  0
  3 86  1  0  0  0
  4  5  1  0  0  0
  4 87  1  0  0  0
  4 88  1  0  0  0
  5  6  1  0  0  0
  5 26  1  0  0  0
  5 89  1  0  0  0
  6 25  1  0  0  0
  6 90  1  0  0  0
  6 91  1  0  0  0
  7  8  2  0  0  0
  7 26  1  0  0  0
  7 29  1  0  0  0
  8  9  1  0  0  0
  8 22  1  0  0  0
  9 10  1  0  0  0
  9 27  2  0  0  0
 10 11  2  0  0  0
 10 15  1  0  0  0
 11 12  1  0  0  0
 11 92  1  0  0  0
 12 13  2  0  0  0
 12 93  1  0  0  0
 13 14  1  0  0  0
 13 31  1  0  0  0
 14 15  2  0  0  0
 14 94  1  0  0  0
 15 95  1  0  0  0
 16 17  2  0  0  0
 16 21  1  0  0  0
 16 31  1  0  0  0
 17 18  1  0  0  0
 17 96  1  0  0  0
 18 19  2  0  0  0
 18 97  1  0  0  0
 19 20  1  0  0  0
 19 24  1  0  0  0
 20 21  2  0  0  0
 20 98  1  0  0  0
 21 23  1  0  0  0
 22 28  1  0  0  0
 22 32  2  0  0  0
 26 27  1  0  0  0
 28 99  1  0  0  0
 28100  1  0  0  0
 29101  1  0  0  0
 29102  1  0  0  0
 33 34  1  0  0  0
 33 66  1  0  0  0
 33 70  2  0  0  0
 34 36  1  0  0  0
 34 59  1  0  0  0
 34103  1  0  0  0
 35 44  2  0  0  0
 35 45  1  0  0  0
 35 68  1  0  0  0
 36 56  1  0  0  0
 36104  1  0  0  0
 37 39  1  0  0  0
 37 47  1  0  0  0
 37 66  1  0  0  0
 37105  1  0  0  0
 38 43  2  0  0  0
 38 46  1  0  0  0
 38 47  1  0  0  0
 39 64  1  0  0  0
 39 67  2  0  0  0
 40 52  1  0  0  0
 40 53  2  0  0  0
 40 58  1  0  0  0
 41106  1  0  0  0
 41107  1  0  0  0
 41108  1  0  0  0
 41 48  1  0  0  0
 42 43  1  0  0  0
 42 66  1  0  0  0
 42109  1  0  0  0
 42110  1  0  0  0
 43 44  1  0  0  0
 44111  1  0  0  0
 45 46  2  0  0  0
 45112  1  0  0  0
 46113  1  0  0  0
 47114  1  0  0  0
 47115  1  0  0  0
 48 56  1  0  0  0
 48 65  1  0  0  0
 48116  1  0  0  0
 49 50  1  0  0  0
 49 53  1  0  0  0
 49 64  1  0  0  0
 49117  1  0  0  0
 50 51  1  0  0  0
 50118  1  0  0  0
 50119  1  0  0  0
 51 52  1  0  0  0
 51120  1  0  0  0
 51121  1  0  0  0
 52122  1  0  0  0
 52123  1  0  0  0
 53 54  1  0  0  0
 54 55  2  0  0  0
 54124  1  0  0  0
 55 57  1  0  0  0
 55125  1  0  0  0
 56 69  2  0  0  0
 57 58  2  0  0  0
 57126  1  0  0  0
 58127  1  0  0  0
 59 60  1  0  0  0
 59 61  1  0  0  0
 59 62  1  0  0  0
 60128  1  0  0  0
 60129  1  0  0  0
 60130  1  0  0  0
 61131  1  0  0  0
 61132  1  0  0  0
 61133  1  0  0  0
 62134  1  0  0  0
 62135  1  0  0  0
 62136  1  0  0  0
 63 65  1  0  0  0
 63137  1  0  0  0
 63138  1  0  0  0
 63139  1  0  0  0
 64140  1  0  0  0
 65141  1  0  0  0
 68 78  1  0  0  0
 71 73  1  0  0  0
 71 74  1  0  0  0
 71 79  2  0  0  0
 72 78  1  0  0  0
 72 80  1  0  0  0
 72 82  2  0  0  0
 73 75  1  0  0  0
 73142  1  0  0  0
 73143  1  0  0  0
 74 80  1  0  0  0
 74144  1  0  0  0
 74145  1  0  0  0
 75 81  1  0  0  0
 75146  1  0  0  0
 75147  1  0  0  0
 76 77  1  0  0  0
 76 80  1  0  0  0
 76 81  1  0  0  0
 76148  1  0  0  0
 77149  1  0  0  0
 77150  1  0  0  0
 77151  1  0  0  0
 78152  1  0  0  0
 78153  1  0  0  0
 79 82  1  0  0  0
 82154  1  0  0  0
M  CHG  1  82   1
M  ISO  4   1 100  68 101  78 101  81 100
M  END
> <chiral flag>
0

> <version>
0

> <s_m_source_file>
/data/baiqing/PycharmProjects/Reinvent-master-3.2/result/LINK_invent/BTK/process_docking_weight1_custom_sum_contain_oxygen_bond_distance_aromatic_linkinvent_7_9_3/rearranged_h_0193.sdf

> <i_m_source_file_index>
46

> <r_mmod_Potential_Energy-OPLS-2005>
3267.15502929688

> <r_mmod_Stretch_Energy-OPLS-2005>
1274.99829101562

> <r_mmod_Bend_Energy-OPLS-2005>
837.124145507812

> <r_mmod_Torsional_Energy-OPLS-2005>
449.794586181641

> <r_mmod_Improper_Torsional_Energy-OPLS-2005>
29.5307445526123

> <r_mmod_Van_der_Waal_Energy-OPLS-2005>
151.626327514648

> <r_mmod_Electrostatic_Energy-OPLS-2005>
-171.780151367188

> <r_mmod_Solvation_Energy-OPLS-2005>
-453.241241455078

> <b_mmod_Minimization_Converged-OPLS-2005>
0

> <r_mmod_RMS_Derivative-OPLS-2005>
12.0944395065308

$$$$
46
                    3D
 Structure written by MMmdl.
165174  0  0  1  0            999 V2000
  -30.6587  -14.6951   20.4858 C   0  0  0  0  0  0
  -30.4178  -12.4368   19.4538 C   0  0  0  0  0  0
  -29.4995  -12.5139   18.2159 C   0  0  0  0  0  0
  -28.0220  -12.3448   18.6256 C   0  0  0  0  0  0
  -27.6365  -13.2264   19.8439 C   0  0  2  0  0  0
  -28.6821  -13.1275   20.9736 C   0  0  0  0  0  0
  -25.2491  -13.8178   20.5661 C   0  0  0  0  0  0
  -24.1787  -13.0436   20.9194 C   0  0  0  0  0  0
  -24.6384  -11.6921   20.8740 C   0  0  0  0  0  0
  -23.9079  -10.4304   21.0401 C   0  0  0  0  0  0
  -24.3647   -9.4231   21.9179 C   0  0  0  0  0  0
  -23.6350   -8.2251   22.0746 C   0  0  0  0  0  0
  -22.4318   -8.0291   21.3562 C   0  0  0  0  0  0
  -21.9950   -9.0245   20.4645 C   0  0  0  0  0  0
  -22.7259  -10.2132   20.3054 C   0  0  0  0  0  0
  -21.6848   -6.0773   22.5304 C   0  0  0  0  0  0
  -21.4020   -6.5672   23.8246 C   0  0  0  0  0  0
  -21.3651   -5.6806   24.9189 C   0  0  0  0  0  0
  -21.6033   -4.3075   24.7199 C   0  0  0  0  0  0
  -21.8825   -3.8179   23.4319 C   0  0  0  0  0  0
  -21.9205   -4.7012   22.3397 C   0  0  0  0  0  0
  -22.7813  -13.5221   21.1853 C   0  0  0  0  0  0
  -22.1669   -4.2232   21.0962 F   0  0  0  0  0  0
  -21.5614   -3.4534   25.7684 F   0  0  0  0  0  0
  -29.9776  -13.5002   20.3901 N   0  0  0  0  0  0
  -26.2911  -12.9385   20.3254 N   0  0  0  0  0  0
  -25.9300  -11.6540   20.5726 N   0  0  0  0  0  0
  -22.0453  -12.8220   22.0412 N   0  0  0  0  0  0
  -25.4176  -15.1882   20.3995 N   0  0  0  0  0  0
  -31.8622  -14.7079   20.2133 O   0  0  0  0  0  0
  -21.6668   -6.8901   21.4268 O   0  0  0  0  0  0
  -22.3499  -14.5530   20.6695 O   0  0  0  0  0  0
  -24.6224  -31.8609   23.1981 C   0  0  0  0  0  0
  -25.9059  -32.4768   23.8328 C   0  0  1  0  0  0
  -27.2132  -27.3007   20.1283 C   0  0  0  0  0  0
  -25.5899  -33.8570   24.2255 N   0  0  0  0  0  0
  -23.4150  -30.4855   21.5417 C   0  0  2  0  0  0
  -24.8638  -28.9449   20.1041 C   0  0  0  0  0  0
  -22.7451  -29.4641   22.4905 C   0  0  0  0  0  0
  -18.0298  -28.1374   22.8515 C   0  0  0  0  0  0
  -24.1497  -36.7299   23.2645 C   0  0  0  0  0  0
  -25.9593  -30.7810   21.3825 C   0  0  0  0  0  0
  -26.0268  -29.4088   20.7285 C   0  0  0  0  0  0
  -27.1993  -28.5916   20.7464 C   0  0  0  0  0  0
  -26.0353  -26.9166   19.4434 C   0  0  0  0  0  0
  -24.8721  -27.7052   19.4526 C   0  0  0  0  0  0
  -23.6277  -29.8237   20.1555 C   0  0  0  0  0  0
  -25.4113  -36.3055   24.0317 C   0  0  1  0  0  0
  -20.5904  -28.3664   23.1315 C   0  0  2  0  0  0
  -20.6794  -26.9386   22.5446 C   0  0  0  0  0  0
  -19.5743  -26.6371   21.5265 C   0  0  0  0  0  0
  -18.1923  -26.7943   22.1650 C   0  0  0  0  0  0
  -19.1555  -28.8828   23.2923 C   0  0  0  0  0  0
  -18.9497  -30.1458   23.8891 C   0  0  0  0  0  0
  -17.6493  -30.6591   24.0571 C   0  0  0  0  0  0
  -25.9041  -34.9435   23.5098 C   0  0  0  0  0  0
  -16.5375  -29.9085   23.6350 C   0  0  0  0  0  0
  -16.7291  -28.6501   23.0370 C   0  0  0  0  0  0
  -26.4431  -31.6559   25.0700 C   0  0  0  0  0  0
  -25.3648  -31.3777   26.1427 C   0  0  0  0  0  0
  -27.0230  -30.2948   24.6164 C   0  0  0  0  0  0
  -27.5927  -32.4319   25.7528 C   0  0  0  0  0  0
  -27.5576  -37.1787   24.8448 C   0  0  0  0  0  0
  -21.4164  -29.3018   22.3660 N   0  0  0  0  0  0
  -26.4268  -37.3768   23.9411 N   0  0  0  0  0  0
  -24.6834  -31.0623   22.0948 N   0  0  0  0  0  0
  -23.4204  -28.8197   23.2994 O   0  0  0  0  0  0
  -28.3099  -26.4184   20.2221 O   0  0  0  0  0  0
  -26.5643  -34.8910   22.4667 O   0  0  0  0  0  0
  -23.5390  -32.1415   23.7291 O   0  0  0  0  0  0
  -28.8868  -23.8509   20.6415 C   0  0  0  0  0  0
  -29.4619  -23.8892   21.8927 C   0  0  0  0  0  0
  -29.5003  -21.7700   21.1892 C   0  0  0  0  0  0
  -29.0388  -17.9510   21.7172 C   0  0  0  0  0  0
  -30.6709  -18.3727   19.9469 C   0  0  0  0  0  0
  -28.8863  -16.4435   21.2514 C   0  0  0  0  0  0
  -30.3635  -16.9415   19.3756 C   0  0  0  0  0  0
  -29.4568  -19.0252   20.6586 C   0  0  0  0  0  0
  -28.3529  -25.3719   23.6266 C   0  0  0  0  0  0
  -30.3814  -22.1350   23.5125 C   0  0  0  0  0  0
  -28.0998  -24.9760   19.9005 C   0  0  0  0  0  0
  -29.6114  -25.0792   22.7990 C   0  0  0  0  0  0
  -28.9384  -22.4928   20.2005 N   0  0  0  0  0  0
  -29.8225  -22.5705   22.2375 N   0  0  0  0  0  0
  -29.9643  -15.9033   20.3763 N   0  0  0  0  0  0
  -29.7480  -20.3613   21.2883 N   0  0  0  0  0  0
  -31.4639  -12.5411   19.1562 H   0  0  0  0  0  0
  -30.3389  -11.4553   19.9229 H   0  0  0  0  0  0
  -29.7744  -11.7449   17.4932 H   0  0  0  0  0  0
  -29.6405  -13.4710   17.7118 H   0  0  0  0  0  0
  -27.8698  -11.2911   18.8638 H   0  0  0  0  0  0
  -27.3669  -12.5611   17.7814 H   0  0  0  0  0  0
  -27.6362  -14.2549   19.4852 H   0  0  0  0  0  0
  -28.7191  -12.1091   21.3667 H   0  0  0  0  0  0
  -28.4105  -13.7557   21.8173 H   0  0  0  0  0  0
  -25.2772   -9.5730   22.4774 H   0  0  0  0  0  0
  -24.0084   -7.4633   22.7438 H   0  0  0  0  0  0
  -21.0902   -8.8738   19.8927 H   0  0  0  0  0  0
  -22.3715  -10.9670   19.6167 H   0  0  0  0  0  0
  -21.2039   -7.6182   23.9784 H   0  0  0  0  0  0
  -21.1444   -6.0511   25.9101 H   0  0  0  0  0  0
  -22.0617   -2.7656   23.2766 H   0  0  0  0  0  0
  -22.4080  -11.9898   22.4813 H   0  0  0  0  0  0
  -21.1056  -13.1238   22.2572 H   0  0  0  0  0  0
  -24.6506  -15.8461   20.4862 H   0  0  0  0  0  0
  -26.2733  -15.6191   20.0772 H   0  0  0  0  0  0
  -26.7110  -32.5394   23.1059 H   0  0  0  0  0  0
  -24.9906  -33.9738   25.0305 H   0  0  0  0  0  0
  -22.7070  -31.3047   21.4004 H   0  0  0  0  0  0
  -23.3743  -35.9650   23.3279 H   0  0  0  0  0  0
  -24.3600  -36.8965   22.2074 H   0  0  0  0  0  0
  -23.7283  -37.6500   23.6691 H   0  0  0  0  0  0
  -26.0966  -31.5396   20.6106 H   0  0  0  0  0  0
  -26.8394  -30.8303   22.0112 H   0  0  0  0  0  0
  -28.0767  -28.9260   21.2805 H   0  0  0  0  0  0
  -25.9651  -25.9880   18.8985 H   0  0  0  0  0  0
  -23.9920  -27.3488   18.9350 H   0  0  0  0  0  0
  -23.7370  -30.6010   19.3994 H   0  0  0  0  0  0
  -22.7494  -29.2522   19.8513 H   0  0  0  0  0  0
  -25.1313  -36.1867   25.0812 H   0  0  0  0  0  0
  -21.0035  -28.3236   24.1418 H   0  0  0  0  0  0
  -20.5768  -26.2253   23.3638 H   0  0  0  0  0  0
  -21.6649  -26.7446   22.1172 H   0  0  0  0  0  0
  -19.6907  -25.6304   21.1232 H   0  0  0  0  0  0
  -19.6685  -27.3235   20.6839 H   0  0  0  0  0  0
  -17.4231  -26.6747   21.4024 H   0  0  0  0  0  0
  -18.0247  -26.0084   22.9018 H   0  0  0  0  0  0
  -19.7990  -30.7278   24.2219 H   0  0  0  0  0  0
  -17.5071  -31.6286   24.5157 H   0  0  0  0  0  0
  -15.5387  -30.2989   23.7710 H   0  0  0  0  0  0
  -15.8687  -28.0830   22.7086 H   0  0  0  0  0  0
  -24.5818  -30.7119   25.7822 H   0  0  0  0  0  0
  -24.8858  -32.2996   26.4734 H   0  0  0  0  0  0
  -25.7971  -30.9065   27.0263 H   0  0  0  0  0  0
  -26.2798  -29.6751   24.1140 H   0  0  0  0  0  0
  -27.3867  -29.7154   25.4665 H   0  0  0  0  0  0
  -27.8709  -30.4231   23.9424 H   0  0  0  0  0  0
  -27.2428  -33.3602   26.2072 H   0  0  0  0  0  0
  -28.3770  -32.6913   25.0401 H   0  0  0  0  0  0
  -28.0525  -31.8461   26.5504 H   0  0  0  0  0  0
  -28.2523  -38.0147   24.7494 H   0  0  0  0  0  0
  -28.1133  -36.2652   24.6238 H   0  0  0  0  0  0
  -27.2294  -37.1403   25.8855 H   0  0  0  0  0  0
  -20.9285  -29.8695   21.6855 H   0  0  0  0  0  0
  -26.0124  -38.2826   24.1436 H   0  0  0  0  0  0
  -29.7799  -17.9625   22.5180 H   0  0  0  0  0  0
  -28.1038  -18.2587   22.1877 H   0  0  0  0  0  0
  -31.0208  -19.0177   19.1395 H   0  0  0  0  0  0
  -31.5073  -18.2968   20.6417 H   0  0  0  0  0  0
  -27.9383  -16.3309   20.7257 H   0  0  0  0  0  0
  -28.7993  -15.8363   22.1524 H   0  0  0  0  0  0
  -31.2221  -16.6146   18.7845 H   0  0  0  0  0  0
  -29.5555  -17.0239   18.6442 H   0  0  0  0  0  0
  -28.6565  -19.1630   19.9279 H   0  0  0  0  0  0
  -28.5341  -26.1608   24.3570 H   0  0  0  0  0  0
  -28.0148  -24.4870   24.1669 H   0  0  0  0  0  0
  -27.5342  -25.7041   22.9885 H   0  0  0  0  0  0
  -30.5616  -22.9724   24.1856 H   0  0  0  0  0  0
  -31.3235  -21.6117   23.3574 H   0  0  0  0  0  0
  -29.6759  -21.4659   24.0058 H   0  0  0  0  0  0
  -27.0628  -24.7124   20.0985 H   0  0  0  0  0  0
  -28.2422  -24.8661   18.8260 H   0  0  0  0  0  0
  -29.8403  -25.9599   22.1964 H   0  0  0  0  0  0
  -30.4745  -24.9692   23.4554 H   0  0  0  0  0  0
  -30.2031  -20.1955   22.1776 H   0  0  0  0  0  0
  1 25  1  0  0  0
  1 30  2  0  0  0
  1 85  1  0  0  0
  2  3  1  0  0  0
  2 25  1  0  0  0
  2 87  1  0  0  0
  2 88  1  0  0  0
  3  4  1  0  0  0
  3 89  1  0  0  0
  3 90  1  0  0  0
  4  5  1  0  0  0
  4 91  1  0  0  0
  4 92  1  0  0  0
  5  6  1  0  0  0
  5 26  1  0  0  0
  5 93  1  0  0  0
  6 25  1  0  0  0
  6 94  1  0  0  0
  6 95  1  0  0  0
  7  8  2  0  0  0
  7 26  1  0  0  0
  7 29  1  0  0  0
  8  9  1  0  0  0
  8 22  1  0  0  0
  9 10  1  0  0  0
  9 27  2  0  0  0
 10 11  2  0  0  0
 10 15  1  0  0  0
 11 12  1  0  0  0
 11 96  1  0  0  0
 12 13  2  0  0  0
 12 97  1  0  0  0
 13 14  1  0  0  0
 13 31  1  0  0  0
 14 15  2  0  0  0
 14 98  1  0  0  0
 15 99  1  0  0  0
 16 17  2  0  0  0
 16 21  1  0  0  0
 16 31  1  0  0  0
 17 18  1  0  0  0
 17100  1  0  0  0
 18 19  2  0  0  0
 18101  1  0  0  0
 19 20  1  0  0  0
 19 24  1  0  0  0
 20 21  2  0  0  0
 20102  1  0  0  0
 21 23  1  0  0  0
 22 28  1  0  0  0
 22 32  2  0  0  0
 26 27  1  0  0  0
 28103  1  0  0  0
 28104  1  0  0  0
 29105  1  0  0  0
 29106  1  0  0  0
 33 34  1  0  0  0
 33 66  1  0  0  0
 33 70  2  0  0  0
 34 36  1  0  0  0
 34 59  1  0  0  0
 34107  1  0  0  0
 35 44  2  0  0  0
 35 45  1  0  0  0
 35 68  1  0  0  0
 36 56  1  0  0  0
 36108  1  0  0  0
 37 39  1  0  0  0
 37 47  1  0  0  0
 37 66  1  0  0  0
 37109  1  0  0  0
 38 43  2  0  0  0
 38 46  1  0  0  0
 38 47  1  0  0  0
 39 64  1  0  0  0
 39 67  2  0  0  0
 40 52  1  0  0  0
 40 53  2  0  0  0
 40 58  1  0  0  0
 41110  1  0  0  0
 41111  1  0  0  0
 41112  1  0  0  0
 41 48  1  0  0  0
 42 43  1  0  0  0
 42 66  1  0  0  0
 42113  1  0  0  0
 42114  1  0  0  0
 43 44  1  0  0  0
 44115  1  0  0  0
 45 46  2  0  0  0
 45116  1  0  0  0
 46117  1  0  0  0
 47118  1  0  0  0
 47119  1  0  0  0
 48 56  1  0  0  0
 48 65  1  0  0  0
 48120  1  0  0  0
 49 50  1  0  0  0
 49 53  1  0  0  0
 49 64  1  0  0  0
 49121  1  0  0  0
 50 51  1  0  0  0
 50122  1  0  0  0
 50123  1  0  0  0
 51 52  1  0  0  0
 51124  1  0  0  0
 51125  1  0  0  0
 52126  1  0  0  0
 52127  1  0  0  0
 53 54  1  0  0  0
 54 55  2  0  0  0
 54128  1  0  0  0
 55 57  1  0  0  0
 55129  1  0  0  0
 56 69  2  0  0  0
 57 58  2  0  0  0
 57130  1  0  0  0
 58131  1  0  0  0
 59 60  1  0  0  0
 59 61  1  0  0  0
 59 62  1  0  0  0
 60132  1  0  0  0
 60133  1  0  0  0
 60134  1  0  0  0
 61135  1  0  0  0
 61136  1  0  0  0
 61137  1  0  0  0
 62138  1  0  0  0
 62139  1  0  0  0
 62140  1  0  0  0
 63 65  1  0  0  0
 63141  1  0  0  0
 63142  1  0  0  0
 63143  1  0  0  0
 64144  1  0  0  0
 65145  1  0  0  0
 68 81  1  0  0  0
 71 72  2  0  0  0
 71 81  1  0  0  0
 71 83  1  0  0  0
 72 82  1  0  0  0
 72 84  1  0  0  0
 73 83  2  0  0  0
 73 84  1  0  0  0
 73 86  1  0  0  0
 74 76  1  0  0  0
 74 78  1  0  0  0
 74146  1  0  0  0
 74147  1  0  0  0
 75 77  1  0  0  0
 75 78  1  0  0  0
 75148  1  0  0  0
 75149  1  0  0  0
 76 85  1  0  0  0
 76150  1  0  0  0
 76151  1  0  0  0
 77 85  1  0  0  0
 77152  1  0  0  0
 77153  1  0  0  0
 78 86  1  0  0  0
 78154  1  0  0  0
 79 82  1  0  0  0
 79155  1  0  0  0
 79156  1  0  0  0
 79157  1  0  0  0
 80 84  1  0  0  0
 80158  1  0  0  0
 80159  1  0  0  0
 80160  1  0  0  0
 81161  1  0  0  0
 81162  1  0  0  0
 82163  1  0  0  0
 82164  1  0  0  0
 86165  1  0  0  0
M  ISO  4   1 100  68 101  81 101  85 100
M  END
> <chiral flag>
0

> <version>
0

> <s_m_source_file>
/data/baiqing/PycharmProjects/Reinvent-master-3.2/result/LINK_invent/BTK/process_docking_weight1_custom_sum_contain_oxygen_bond_distance_aromatic_linkinvent_7_9_3/rearranged_h_0193.sdf

> <i_m_source_file_index>
47

> <r_mmod_Potential_Energy-OPLS-2005>
228.046920776367

> <r_mmod_Stretch_Energy-OPLS-2005>
90.082389831543

> <r_mmod_Bend_Energy-OPLS-2005>
177.184539794922

> <r_mmod_Torsional_Energy-OPLS-2005>
319.301055908203

> <r_mmod_Improper_Torsional_Energy-OPLS-2005>
17.735330581665

> <r_mmod_Van_der_Waal_Energy-OPLS-2005>
126.507347106934

> <r_mmod_Electrostatic_Energy-OPLS-2005>
-349.621459960938

> <r_mmod_Solvation_Energy-OPLS-2005>
-222.326171875

> <b_mmod_Minimization_Converged-OPLS-2005>
0

> <r_mmod_RMS_Derivative-OPLS-2005>
4.98922729492188

$$$$
47
                    3D
 Structure written by MMmdl.
151160  0  0  1  0            999 V2000
  -30.6333  -14.7296   20.4732 C   0  0  0  0  0  0
  -30.4316  -12.4497   19.4705 C   0  0  0  0  0  0
  -29.5085  -12.5063   18.2340 C   0  0  0  0  0  0
  -28.0352  -12.3317   18.6496 C   0  0  0  0  0  0
  -27.6430  -13.2321   19.8515 C   0  0  2  0  0  0
  -28.6892  -13.1661   20.9860 C   0  0  0  0  0  0
  -25.2516  -13.8198   20.5701 C   0  0  0  0  0  0
  -24.1807  -13.0441   20.9211 C   0  0  0  0  0  0
  -24.6398  -11.6920   20.8751 C   0  0  0  0  0  0
  -23.9075  -10.4295   21.0408 C   0  0  0  0  0  0
  -24.3624   -9.4208   21.9185 C   0  0  0  0  0  0
  -23.6297   -8.2244   22.0754 C   0  0  0  0  0  0
  -22.4279   -8.0283   21.3544 C   0  0  0  0  0  0
  -21.9916   -9.0257   20.4647 C   0  0  0  0  0  0
  -22.7246  -10.2136   20.3057 C   0  0  0  0  0  0
  -21.6854   -6.0738   22.5279 C   0  0  0  0  0  0
  -21.4015   -6.5641   23.8212 C   0  0  0  0  0  0
  -21.3659   -5.6793   24.9174 C   0  0  0  0  0  0
  -21.6044   -4.3056   24.7224 C   0  0  0  0  0  0
  -21.8819   -3.8148   23.4345 C   0  0  0  0  0  0
  -21.9193   -4.6965   22.3402 C   0  0  0  0  0  0
  -22.7827  -13.5222   21.1868 C   0  0  0  0  0  0
  -22.1662   -4.2151   21.0980 F   0  0  0  0  0  0
  -21.5628   -3.4539   25.7736 F   0  0  0  0  0  0
  -29.9913  -13.5133   20.4026 N   0  0  0  0  0  0
  -26.2946  -12.9407   20.3293 N   0  0  0  0  0  0
  -25.9331  -11.6549   20.5761 N   0  0  0  0  0  0
  -22.0474  -12.8211   22.0423 N   0  0  0  0  0  0
  -25.4197  -15.1924   20.4109 N   0  0  0  0  0  0
  -31.8200  -14.8169   20.1479 O   0  0  0  0  0  0
  -21.6641   -6.8881   21.4241 O   0  0  0  0  0  0
  -22.3511  -14.5528   20.6715 O   0  0  0  0  0  0
  -24.6338  -31.8563   23.2017 C   0  0  0  0  0  0
  -25.9162  -32.4760   23.8354 C   0  0  1  0  0  0
  -27.2083  -27.2470   20.1175 C   0  0  0  0  0  0
  -25.5955  -33.8563   24.2270 N   0  0  0  0  0  0
  -23.4301  -30.4841   21.5461 C   0  0  2  0  0  0
  -24.8754  -28.9421   20.1075 C   0  0  0  0  0  0
  -22.7517  -29.4613   22.4905 C   0  0  0  0  0  0
  -18.0296  -28.1389   22.8483 C   0  0  0  0  0  0
  -24.1491  -36.7280   23.2638 C   0  0  0  0  0  0
  -25.9815  -30.7628   21.3887 C   0  0  0  0  0  0
  -26.0513  -29.3879   20.7243 C   0  0  0  0  0  0
  -27.2197  -28.5527   20.7238 C   0  0  0  0  0  0
  -26.0075  -26.8968   19.4487 C   0  0  0  0  0  0
  -24.8603  -27.7043   19.4588 C   0  0  0  0  0  0
  -23.6485  -29.8299   20.1592 C   0  0  0  0  0  0
  -25.4118  -36.3070   24.0326 C   0  0  1  0  0  0
  -20.5903  -28.3706   23.1257 C   0  0  2  0  0  0
  -20.6786  -26.9421   22.5401 C   0  0  0  0  0  0
  -19.5757  -26.6384   21.5210 C   0  0  0  0  0  0
  -18.1938  -26.7930   22.1625 C   0  0  0  0  0  0
  -19.1551  -28.8864   23.2865 C   0  0  0  0  0  0
  -18.9471  -30.1464   23.8886 C   0  0  0  0  0  0
  -17.6469  -30.6589   24.0562 C   0  0  0  0  0  0
  -25.9062  -34.9441   23.5096 C   0  0  0  0  0  0
  -16.5360  -29.9085   23.6334 C   0  0  0  0  0  0
  -16.7282  -28.6502   23.0355 C   0  0  0  0  0  0
  -26.4514  -31.6584   25.0747 C   0  0  0  0  0  0
  -25.3726  -31.3747   26.1460 C   0  0  0  0  0  0
  -27.0363  -30.2991   24.6261 C   0  0  0  0  0  0
  -27.6065  -32.4329   25.7520 C   0  0  0  0  0  0
  -27.5580  -37.1796   24.8464 C   0  0  0  0  0  0
  -21.4222  -29.3055   22.3647 N   0  0  0  0  0  0
  -26.4289  -37.3771   23.9410 N   0  0  0  0  0  0
  -24.7010  -31.0519   22.1009 N   0  0  0  0  0  0
  -23.4213  -28.8136   23.2993 O   0  0  0  0  0  0
  -28.2661  -26.2954   20.2001 O   0  0  0  0  0  0
  -26.5627  -34.8915   22.4660 O   0  0  0  0  0  0
  -23.5483  -32.1395   23.7298 O   0  0  0  0  0  0
  -29.2532  -22.7224   19.1304 C   0  0  0  0  0  0
  -29.0020  -21.5950   21.5327 C   0  0  0  0  0  0
  -28.7300  -23.5313   20.1845 C   0  0  0  0  0  0
  -29.5138  -20.7628   20.4781 C   0  0  0  0  0  0
  -29.6424  -18.3824   21.6237 C   0  0  0  0  0  0
  -29.9391  -18.3127   19.5776 C   0  0  0  0  0  0
  -30.3779  -17.3252   20.7198 C   0  0  0  0  0  0
  -27.8990  -24.8642   19.8806 C   0  0  0  0  0  0
  -28.6134  -22.9164   21.4018 N   0  0  0  0  0  0
  -29.6301  -21.4029   19.2747 N   0  0  0  0  0  0
  -30.0312  -19.3754   20.6020 N   0  0  0  0  0  0
  -29.8922  -15.8744   20.7136 N   0  0  0  0  0  0
  -31.4726  -12.5693   19.1657 H   0  0  0  0  0  0
  -30.3730  -11.4728   19.9531 H   0  0  0  0  0  0
  -29.7887  -11.7335   17.5169 H   0  0  0  0  0  0
  -29.6358  -13.4611   17.7214 H   0  0  0  0  0  0
  -27.8920  -11.2831   18.9128 H   0  0  0  0  0  0
  -27.3767  -12.5238   17.8017 H   0  0  0  0  0  0
  -27.6379  -14.2538   19.4715 H   0  0  0  0  0  0
  -28.7224  -12.1691   21.4276 H   0  0  0  0  0  0
  -28.4265  -13.8497   21.7949 H   0  0  0  0  0  0
  -25.2768   -9.5684   22.4761 H   0  0  0  0  0  0
  -24.0005   -7.4635   22.7473 H   0  0  0  0  0  0
  -21.0848   -8.8777   19.8952 H   0  0  0  0  0  0
  -22.3705  -10.9676   19.6166 H   0  0  0  0  0  0
  -21.2008   -7.6149   23.9716 H   0  0  0  0  0  0
  -21.1481   -6.0523   25.9077 H   0  0  0  0  0  0
  -22.0598   -2.7610   23.2844 H   0  0  0  0  0  0
  -22.4094  -11.9873   22.4809 H   0  0  0  0  0  0
  -21.1091  -13.1232   22.2630 H   0  0  0  0  0  0
  -24.6480  -15.8422   20.5155 H   0  0  0  0  0  0
  -26.2596  -15.6318   20.0573 H   0  0  0  0  0  0
  -26.7227  -32.5401   23.1092 H   0  0  0  0  0  0
  -25.0108  -33.9703   25.0419 H   0  0  0  0  0  0
  -22.7272  -31.3079   21.4051 H   0  0  0  0  0  0
  -23.3759  -35.9606   23.3293 H   0  0  0  0  0  0
  -24.3582  -36.8909   22.2053 H   0  0  0  0  0  0
  -23.7238  -37.6476   23.6667 H   0  0  0  0  0  0
  -26.1295  -31.5261   20.6235 H   0  0  0  0  0  0
  -26.8560  -30.8044   22.0262 H   0  0  0  0  0  0
  -28.1124  -28.8845   21.2353 H   0  0  0  0  0  0
  -25.8928  -25.9663   18.9158 H   0  0  0  0  0  0
  -23.9642  -27.3619   18.9593 H   0  0  0  0  0  0
  -23.7759  -30.6120   19.4099 H   0  0  0  0  0  0
  -22.7655  -29.2682   19.8487 H   0  0  0  0  0  0
  -25.1298  -36.1915   25.0818 H   0  0  0  0  0  0
  -20.9997  -28.3285   24.1378 H   0  0  0  0  0  0
  -20.5690  -26.2317   23.3609 H   0  0  0  0  0  0
  -21.6651  -26.7445   22.1191 H   0  0  0  0  0  0
  -19.6919  -25.6292   21.1246 H   0  0  0  0  0  0
  -19.6690  -27.3189   20.6736 H   0  0  0  0  0  0
  -17.4206  -26.6676   21.4030 H   0  0  0  0  0  0
  -18.0341  -26.0074   22.9024 H   0  0  0  0  0  0
  -19.7947  -30.7285   24.2247 H   0  0  0  0  0  0
  -17.5023  -31.6268   24.5166 H   0  0  0  0  0  0
  -15.5360  -30.2984   23.7665 H   0  0  0  0  0  0
  -15.8681  -28.0818   22.7078 H   0  0  0  0  0  0
  -24.5908  -30.7087   25.7789 H   0  0  0  0  0  0
  -24.8911  -32.2921   26.4855 H   0  0  0  0  0  0
  -25.8033  -30.8946   27.0256 H   0  0  0  0  0  0
  -26.2959  -29.6735   24.1261 H   0  0  0  0  0  0
  -27.4000  -29.7261   25.4800 H   0  0  0  0  0  0
  -27.8861  -30.4247   23.9547 H   0  0  0  0  0  0
  -27.2675  -33.3643   26.2066 H   0  0  0  0  0  0
  -28.3892  -32.6864   25.0357 H   0  0  0  0  0  0
  -28.0714  -31.8473   26.5462 H   0  0  0  0  0  0
  -28.2589  -38.0101   24.7521 H   0  0  0  0  0  0
  -28.1084  -36.2632   24.6277 H   0  0  0  0  0  0
  -27.2299  -37.1427   25.8867 H   0  0  0  0  0  0
  -20.9408  -29.8792   21.6864 H   0  0  0  0  0  0
  -26.0165  -38.2842   24.1419 H   0  0  0  0  0  0
  -29.2908  -23.1101   18.1227 H   0  0  0  0  0  0
  -28.9089  -21.1857   22.5281 H   0  0  0  0  0  0
  -30.1038  -18.5391   22.5999 H   0  0  0  0  0  0
  -28.5611  -18.2452   21.6953 H   0  0  0  0  0  0
  -28.9213  -18.1614   19.2113 H   0  0  0  0  0  0
  -30.6595  -18.4127   18.7645 H   0  0  0  0  0  0
  -31.4586  -17.3817   20.8775 H   0  0  0  0  0  0
  -26.9413  -24.6603   20.3619 H   0  0  0  0  0  0
  -27.7154  -24.8301   18.8061 H   0  0  0  0  0  0
  -28.9152  -15.7297   20.9172 H   0  0  0  0  0  0
  1 25  1  0  0  0
  1 30  2  0  0  0
  1 82  1  0  0  0
  2  3  1  0  0  0
  2 25  1  0  0  0
  2 83  1  0  0  0
  2 84  1  0  0  0
  3  4  1  0  0  0
  3 85  1  0  0  0
  3 86  1  0  0  0
  4  5  1  0  0  0
  4 87  1  0  0  0
  4 88  1  0  0  0
  5  6  1  0  0  0
  5 26  1  0  0  0
  5 89  1  0  0  0
  6 25  1  0  0  0
  6 90  1  0  0  0
  6 91  1  0  0  0
  7  8  2  0  0  0
  7 26  1  0  0  0
  7 29  1  0  0  0
  8  9  1  0  0  0
  8 22  1  0  0  0
  9 10  1  0  0  0
  9 27  2  0  0  0
 10 11  2  0  0  0
 10 15  1  0  0  0
 11 12  1  0  0  0
 11 92  1  0  0  0
 12 13  2  0  0  0
 12 93  1  0  0  0
 13 14  1  0  0  0
 13 31  1  0  0  0
 14 15  2  0  0  0
 14 94  1  0  0  0
 15 95  1  0  0  0
 16 17  2  0  0  0
 16 21  1  0  0  0
 16 31  1  0  0  0
 17 18  1  0  0  0
 17 96  1  0  0  0
 18 19  2  0  0  0
 18 97  1  0  0  0
 19 20  1  0  0  0
 19 24  1  0  0  0
 20 21  2  0  0  0
 20 98  1  0  0  0
 21 23  1  0  0  0
 22 28  1  0  0  0
 22 32  2  0  0  0
 26 27  1  0  0  0
 28 99  1  0  0  0
 28100  1  0  0  0
 29101  1  0  0  0
 29102  1  0  0  0
 33 34  1  0  0  0
 33 66  1  0  0  0
 33 70  2  0  0  0
 34 36  1  0  0  0
 34 59  1  0  0  0
 34103  1  0  0  0
 35 44  2  0  0  0
 35 45  1  0  0  0
 35 68  1  0  0  0
 36 56  1  0  0  0
 36104  1  0  0  0
 37 39  1  0  0  0
 37 47  1  0  0  0
 37 66  1  0  0  0
 37105  1  0  0  0
 38 43  2  0  0  0
 38 46  1  0  0  0
 38 47  1  0  0  0
 39 64  1  0  0  0
 39 67  2  0  0  0
 40 52  1  0  0  0
 40 53  2  0  0  0
 40 58  1  0  0  0
 41106  1  0  0  0
 41107  1  0  0  0
 41108  1  0  0  0
 41 48  1  0  0  0
 42 43  1  0  0  0
 42 66  1  0  0  0
 42109  1  0  0  0
 42110  1  0  0  0
 43 44  1  0  0  0
 44111  1  0  0  0
 45 46  2  0  0  0
 45112  1  0  0  0
 46113  1  0  0  0
 47114  1  0  0  0
 47115  1  0  0  0
 48 56  1  0  0  0
 48 65  1  0  0  0
 48116  1  0  0  0
 49 50  1  0  0  0
 49 53  1  0  0  0
 49 64  1  0  0  0
 49117  1  0  0  0
 50 51  1  0  0  0
 50118  1  0  0  0
 50119  1  0  0  0
 51 52  1  0  0  0
 51120  1  0  0  0
 51121  1  0  0  0
 52122  1  0  0  0
 52123  1  0  0  0
 53 54  1  0  0  0
 54 55  2  0  0  0
 54124  1  0  0  0
 55 57  1  0  0  0
 55125  1  0  0  0
 56 69  2  0  0  0
 57 58  2  0  0  0
 57126  1  0  0  0
 58127  1  0  0  0
 59 60  1  0  0  0
 59 61  1  0  0  0
 59 62  1  0  0  0
 60128  1  0  0  0
 60129  1  0  0  0
 60130  1  0  0  0
 61131  1  0  0  0
 61132  1  0  0  0
 61133  1  0  0  0
 62134  1  0  0  0
 62135  1  0  0  0
 62136  1  0  0  0
 63 65  1  0  0  0
 63137  1  0  0  0
 63138  1  0  0  0
 63139  1  0  0  0
 64140  1  0  0  0
 65141  1  0  0  0
 68 78  1  0  0  0
 71 73  2  0  0  0
 71 80  1  0  0  0
 71142  1  0  0  0
 72 74  1  0  0  0
 72 79  2  0  0  0
 72143  1  0  0  0
 73 78  1  0  0  0
 73 79  1  0  0  0
 74 80  2  0  0  0
 74 81  1  0  0  0
 75 77  1  0  0  0
 75 81  1  0  0  0
 75144  1  0  0  0
 75145  1  0  0  0
 76 77  1  0  0  0
 76 81  1  0  0  0
 76146  1  0  0  0
 76147  1  0  0  0
 77 82  1  0  0  0
 77148  1  0  0  0
 78149  1  0  0  0
 78150  1  0  0  0
 82151  1  0  0  0
M  ISO  4   1 100  68 101  78 101  82 100
M  END
> <chiral flag>
0

> <version>
0

> <s_m_source_file>
/data/baiqing/PycharmProjects/Reinvent-master-3.2/result/LINK_invent/BTK/process_docking_weight1_custom_sum_contain_oxygen_bond_distance_aromatic_linkinvent_7_9_3/rearranged_h_0193.sdf

> <i_m_source_file_index>
48

> <r_mmod_Potential_Energy-OPLS-2005>
287.054077148438

> <r_mmod_Stretch_Energy-OPLS-2005>
116.905014038086

> <r_mmod_Bend_Energy-OPLS-2005>
235.230712890625

> <r_mmod_Torsional_Energy-OPLS-2005>
237.103607177734

> <r_mmod_Improper_Torsional_Energy-OPLS-2005>
14.625581741333

> <r_mmod_Van_der_Waal_Energy-OPLS-2005>
154.40104675293

> <r_mmod_Electrostatic_Energy-OPLS-2005>
-306.324249267578

> <r_mmod_Solvation_Energy-OPLS-2005>
-256.564514160156

> <b_mmod_Minimization_Converged-OPLS-2005>
0

> <r_mmod_RMS_Derivative-OPLS-2005>
0.136369794607162

$$$$
48
                    3D
 Structure written by MMmdl.
158167  0  0  1  0            999 V2000
  -30.7208  -14.5786   20.5009 C   0  0  0  0  0  0
  -30.3760  -12.3611   19.4463 C   0  0  0  0  0  0
  -29.4728  -12.5323   18.2087 C   0  0  0  0  0  0
  -27.9978  -12.3799   18.6183 C   0  0  0  0  0  0
  -27.6343  -13.2393   19.8585 C   0  0  2  0  0  0
  -28.6791  -13.1207   20.9916 C   0  0  0  0  0  0
  -25.2432  -13.8217   20.5746 C   0  0  0  0  0  0
  -24.1738  -13.0439   20.9242 C   0  0  0  0  0  0
  -24.6346  -11.6928   20.8757 C   0  0  0  0  0  0
  -23.9020  -10.4297   21.0409 C   0  0  0  0  0  0
  -24.3585   -9.4221   21.9184 C   0  0  0  0  0  0
  -23.6273   -8.2253   22.0749 C   0  0  0  0  0  0
  -22.4254   -8.0268   21.3550 C   0  0  0  0  0  0
  -21.9875   -9.0238   20.4659 C   0  0  0  0  0  0
  -22.7186  -10.2126   20.3067 C   0  0  0  0  0  0
  -21.6864   -6.0719   22.5285 C   0  0  0  0  0  0
  -21.4018   -6.5619   23.8208 C   0  0  0  0  0  0
  -21.3673   -5.6782   24.9175 C   0  0  0  0  0  0
  -21.6042   -4.3044   24.7236 C   0  0  0  0  0  0
  -21.8811   -3.8140   23.4360 C   0  0  0  0  0  0
  -21.9200   -4.6951   22.3412 C   0  0  0  0  0  0
  -22.7777  -13.5236   21.1917 C   0  0  0  0  0  0
  -22.1667   -4.2143   21.0993 F   0  0  0  0  0  0
  -21.5637   -3.4523   25.7751 F   0  0  0  0  0  0
  -29.9984  -13.4138   20.4191 N   0  0  0  0  0  0
  -26.2855  -12.9434   20.3301 N   0  0  0  0  0  0
  -25.9272  -11.6548   20.5737 N   0  0  0  0  0  0
  -22.0421  -12.8216   22.0453 N   0  0  0  0  0  0
  -25.4132  -15.1934   20.4226 N   0  0  0  0  0  0
  -31.8755  -14.5850   20.0650 O   0  0  0  0  0  0
  -21.6630   -6.8854   21.4237 O   0  0  0  0  0  0
  -22.3483  -14.5544   20.6773 O   0  0  0  0  0  0
  -24.6202  -31.8627   23.2066 C   0  0  0  0  0  0
  -25.9073  -32.4792   23.8373 C   0  0  1  0  0  0
  -27.2252  -27.3627   20.1080 C   0  0  0  0  0  0
  -25.5909  -33.8592   24.2310 N   0  0  0  0  0  0
  -23.4116  -30.4867   21.5467 C   0  0  2  0  0  0
  -24.8567  -28.9492   20.1038 C   0  0  0  0  0  0
  -22.7450  -29.4628   22.4953 C   0  0  0  0  0  0
  -18.0279  -28.1379   22.8494 C   0  0  0  0  0  0
  -24.1483  -36.7291   23.2647 C   0  0  0  0  0  0
  -25.9470  -30.8055   21.3733 C   0  0  0  0  0  0
  -26.0187  -29.4382   20.7120 C   0  0  0  0  0  0
  -27.2001  -28.6512   20.7123 C   0  0  0  0  0  0
  -26.0387  -26.9027   19.4923 C   0  0  0  0  0  0
  -24.8666  -27.6862   19.4867 C   0  0  0  0  0  0
  -23.6217  -29.8234   20.1593 C   0  0  0  0  0  0
  -25.4111  -36.3098   24.0342 C   0  0  1  0  0  0
  -20.5874  -28.3669   23.1307 C   0  0  2  0  0  0
  -20.6767  -26.9399   22.5422 C   0  0  0  0  0  0
  -19.5743  -26.6378   21.5221 C   0  0  0  0  0  0
  -18.1920  -26.7926   22.1627 C   0  0  0  0  0  0
  -19.1531  -28.8846   23.2891 C   0  0  0  0  0  0
  -18.9453  -30.1453   23.8894 C   0  0  0  0  0  0
  -17.6454  -30.6587   24.0560 C   0  0  0  0  0  0
  -25.9035  -34.9466   23.5127 C   0  0  0  0  0  0
  -16.5343  -29.9081   23.6335 C   0  0  0  0  0  0
  -16.7264  -28.6500   23.0352 C   0  0  0  0  0  0
  -26.4475  -31.6600   25.0729 C   0  0  0  0  0  0
  -25.3736  -31.3725   26.1480 C   0  0  0  0  0  0
  -27.0326  -30.3036   24.6176 C   0  0  0  0  0  0
  -27.6046  -32.4335   25.7483 C   0  0  0  0  0  0
  -27.5573  -37.1814   24.8472 C   0  0  0  0  0  0
  -21.4171  -29.3026   22.3702 N   0  0  0  0  0  0
  -26.4297  -37.3780   23.9396 N   0  0  0  0  0  0
  -24.6775  -31.0677   22.0991 N   0  0  0  0  0  0
  -23.4196  -28.8170   23.3016 O   0  0  0  0  0  0
  -28.3697  -26.5726   20.2057 O   0  0  0  0  0  0
  -26.5595  -34.8923   22.4686 O   0  0  0  0  0  0
  -23.5381  -32.1403   23.7425 O   0  0  0  0  0  0
  -31.8570  -19.4229   20.7926 C   0  0  0  0  0  0
  -30.4373  -19.3951   20.7316 C   0  0  0  0  0  0
  -30.6241  -17.0528   20.9220 C   0  0  0  0  0  0
  -28.5848  -23.9633   19.7430 C   0  0  0  0  0  0
  -31.1293  -24.1616   20.3273 C   0  0  0  0  0  0
  -30.0803  -25.8178   18.8625 C   0  0  0  0  0  0
  -29.8162  -23.3199   20.5153 C   0  0  2  0  0  0
  -28.6530  -25.4859   19.2749 C   0  0  2  0  0  0
  -30.2591  -21.8138   20.1861 C   0  0  0  0  0  0
  -32.5847  -18.3061   20.9867 N   0  0  0  0  0  0
  -29.8208  -18.1559   20.7963 N   0  0  0  0  0  0
  -31.9591  -17.1362   21.0842 N   0  0  0  0  0  0
  -30.0910  -15.7462   20.8724 N   0  0  0  0  0  0
  -30.9433  -25.5955   20.0356 N   0  3  0  0  0  0
  -29.6276  -20.5589   20.6339 O   0  0  0  0  0  0
  -31.4243  -12.3961   19.1465 H   0  0  0  0  0  0
  -30.2252  -11.3710   19.8804 H   0  0  0  0  0  0
  -29.7194  -11.8037   17.4360 H   0  0  0  0  0  0
  -29.6326  -13.5172   17.7632 H   0  0  0  0  0  0
  -27.8095  -11.3247   18.8208 H   0  0  0  0  0  0
  -27.3492  -12.6404   17.7793 H   0  0  0  0  0  0
  -27.6429  -14.2757   19.5195 H   0  0  0  0  0  0
  -28.6619  -12.1138   21.4114 H   0  0  0  0  0  0
  -28.4343  -13.7944   21.8150 H   0  0  0  0  0  0
  -25.2709   -9.5707   22.4789 H   0  0  0  0  0  0
  -23.9991   -7.4628   22.7447 H   0  0  0  0  0  0
  -21.0819   -8.8736   19.8965 H   0  0  0  0  0  0
  -22.3601  -10.9663   19.6215 H   0  0  0  0  0  0
  -21.1986   -7.6131   23.9701 H   0  0  0  0  0  0
  -21.1511   -6.0523   25.9072 H   0  0  0  0  0  0
  -22.0581   -2.7607   23.2863 H   0  0  0  0  0  0
  -22.3983  -11.9855   22.4823 H   0  0  0  0  0  0
  -21.1042  -13.1283   22.2614 H   0  0  0  0  0  0
  -24.6611  -15.8567   20.5732 H   0  0  0  0  0  0
  -26.2530  -15.6266   20.0635 H   0  0  0  0  0  0
  -26.7142  -32.5477   23.1122 H   0  0  0  0  0  0
  -25.0073  -33.9739   25.0471 H   0  0  0  0  0  0
  -22.7023  -31.3054   21.4089 H   0  0  0  0  0  0
  -23.3742  -35.9627   23.3351 H   0  0  0  0  0  0
  -24.3564  -36.8859   22.2048 H   0  0  0  0  0  0
  -23.7244  -37.6517   23.6627 H   0  0  0  0  0  0
  -26.0811  -31.5760   20.6128 H   0  0  0  0  0  0
  -26.8265  -30.8454   22.0047 H   0  0  0  0  0  0
  -28.0918  -29.0205   21.1985 H   0  0  0  0  0  0
  -25.9833  -25.9193   19.0486 H   0  0  0  0  0  0
  -23.9701  -27.3045   19.0169 H   0  0  0  0  0  0
  -23.7314  -30.6005   19.4017 H   0  0  0  0  0  0
  -22.7429  -29.2472   19.8636 H   0  0  0  0  0  0
  -25.1291  -36.1967   25.0834 H   0  0  0  0  0  0
  -20.9960  -28.3243   24.1429 H   0  0  0  0  0  0
  -20.5673  -26.2273   23.3611 H   0  0  0  0  0  0
  -21.6636  -26.7434   22.1211 H   0  0  0  0  0  0
  -19.6897  -25.6290   21.1244 H   0  0  0  0  0  0
  -19.6684  -27.3196   20.6756 H   0  0  0  0  0  0
  -17.4190  -26.6688   21.4022 H   0  0  0  0  0  0
  -18.0302  -26.0067   22.9021 H   0  0  0  0  0  0
  -19.7926  -30.7272   24.2255 H   0  0  0  0  0  0
  -17.5006  -31.6270   24.5159 H   0  0  0  0  0  0
  -15.5341  -30.2976   23.7666 H   0  0  0  0  0  0
  -15.8668  -28.0817   22.7068 H   0  0  0  0  0  0
  -24.5881  -30.7101   25.7816 H   0  0  0  0  0  0
  -24.8960  -32.2890   26.4958 H   0  0  0  0  0  0
  -25.8077  -30.8861   27.0226 H   0  0  0  0  0  0
  -26.2900  -29.6783   24.1205 H   0  0  0  0  0  0
  -27.4044  -29.7286   25.4666 H   0  0  0  0  0  0
  -27.8755  -30.4331   23.9385 H   0  0  0  0  0  0
  -27.2662  -33.3628   26.2077 H   0  0  0  0  0  0
  -28.3833  -32.6917   25.0293 H   0  0  0  0  0  0
  -28.0748  -31.8466   26.5384 H   0  0  0  0  0  0
  -28.2633  -38.0071   24.7474 H   0  0  0  0  0  0
  -28.1028  -36.2603   24.6358 H   0  0  0  0  0  0
  -27.2282  -37.1543   25.8878 H   0  0  0  0  0  0
  -20.9339  -29.8734   21.6909 H   0  0  0  0  0  0
  -26.0193  -38.2869   24.1364 H   0  0  0  0  0  0
  -32.4719  -20.3041   20.7335 H   0  0  0  0  0  0
  -27.6717  -23.8039   20.3171 H   0  0  0  0  0  0
  -28.4462  -23.3792   18.8338 H   0  0  0  0  0  0
  -31.7226  -23.7627   19.5021 H   0  0  0  0  0  0
  -31.7585  -24.0692   21.2140 H   0  0  0  0  0  0
  -30.1512  -26.8578   18.5392 H   0  0  0  0  0  0
  -30.4029  -25.2040   18.0185 H   0  0  0  0  0  0
  -29.5716  -23.3697   21.5771 H   0  0  0  0  0  0
  -28.0350  -25.5979   18.3828 H   0  0  0  0  0  0
  -31.2342  -21.8166   20.6502 H   0  0  0  0  0  0
  -30.4408  -21.7225   19.1149 H   0  0  0  0  0  0
  -29.1132  -15.6750   21.0916 H   0  0  0  0  0  0
  -31.8470  -26.0122   19.8734 H   0  0  0  0  0  0
  -30.5326  -26.0610   20.8312 H   0  0  0  0  0  0
  1 25  1  0  0  0
  1 30  2  0  0  0
  1 83  1  0  0  0
  2  3  1  0  0  0
  2 25  1  0  0  0
  2 86  1  0  0  0
  2 87  1  0  0  0
  3  4  1  0  0  0
  3 88  1  0  0  0
  3 89  1  0  0  0
  4  5  1  0  0  0
  4 90  1  0  0  0
  4 91  1  0  0  0
  5  6  1  0  0  0
  5 26  1  0  0  0
  5 92  1  0  0  0
  6 25  1  0  0  0
  6 93  1  0  0  0
  6 94  1  0  0  0
  7  8  2  0  0  0
  7 26  1  0  0  0
  7 29  1  0  0  0
  8  9  1  0  0  0
  8 22  1  0  0  0
  9 10  1  0  0  0
  9 27  2  0  0  0
 10 11  2  0  0  0
 10 15  1  0  0  0
 11 12  1  0  0  0
 11 95  1  0  0  0
 12 13  2  0  0  0
 12 96  1  0  0  0
 13 14  1  0  0  0
 13 31  1  0  0  0
 14 15  2  0  0  0
 14 97  1  0  0  0
 15 98  1  0  0  0
 16 17  2  0  0  0
 16 21  1  0  0  0
 16 31  1  0  0  0
 17 18  1  0  0  0
 17 99  1  0  0  0
 18 19  2  0  0  0
 18100  1  0  0  0
 19 20  1  0  0  0
 19 24  1  0  0  0
 20 21  2  0  0  0
 20101  1  0  0  0
 21 23  1  0  0  0
 22 28  1  0  0  0
 22 32  2  0  0  0
 26 27  1  0  0  0
 28102  1  0  0  0
 28103  1  0  0  0
 29104  1  0  0  0
 29105  1  0  0  0
 33 34  1  0  0  0
 33 66  1  0  0  0
 33 70  2  0  0  0
 34 36  1  0  0  0
 34 59  1  0  0  0
 34106  1  0  0  0
 35 44  2  0  0  0
 35 45  1  0  0  0
 35 68  1  0  0  0
 36 56  1  0  0  0
 36107  1  0  0  0
 37 39  1  0  0  0
 37 47  1  0  0  0
 37 66  1  0  0  0
 37108  1  0  0  0
 38 43  2  0  0  0
 38 46  1  0  0  0
 38 47  1  0  0  0
 39 64  1  0  0  0
 39 67  2  0  0  0
 40 52  1  0  0  0
 40 53  2  0  0  0
 40 58  1  0  0  0
 41109  1  0  0  0
 41110  1  0  0  0
 41111  1  0  0  0
 41 48  1  0  0  0
 42 43  1  0  0  0
 42 66  1  0  0  0
 42112  1  0  0  0
 42113  1  0  0  0
 43 44  1  0  0  0
 44114  1  0  0  0
 45 46  2  0  0  0
 45115  1  0  0  0
 46116  1  0  0  0
 47117  1  0  0  0
 47118  1  0  0  0
 48 56  1  0  0  0
 48 65  1  0  0  0
 48119  1  0  0  0
 49 50  1  0  0  0
 49 53  1  0  0  0
 49 64  1  0  0  0
 49120  1  0  0  0
 50 51  1  0  0  0
 50121  1  0  0  0
 50122  1  0  0  0
 51 52  1  0  0  0
 51123  1  0  0  0
 51124  1  0  0  0
 52125  1  0  0  0
 52126  1  0  0  0
 53 54  1  0  0  0
 54 55  2  0  0  0
 54127  1  0  0  0
 55 57  1  0  0  0
 55128  1  0  0  0
 56 69  2  0  0  0
 57 58  2  0  0  0
 57129  1  0  0  0
 58130  1  0  0  0
 59 60  1  0  0  0
 59 61  1  0  0  0
 59 62  1  0  0  0
 60131  1  0  0  0
 60132  1  0  0  0
 60133  1  0  0  0
 61134  1  0  0  0
 61135  1  0  0  0
 61136  1  0  0  0
 62137  1  0  0  0
 62138  1  0  0  0
 62139  1  0  0  0
 63 65  1  0  0  0
 63140  1  0  0  0
 63141  1  0  0  0
 63142  1  0  0  0
 64143  1  0  0  0
 65144  1  0  0  0
 68 78  1  0  0  0
 71 72  2  0  0  0
 71 80  1  0  0  0
 71145  1  0  0  0
 72 81  1  0  0  0
 72 85  1  0  0  0
 73 81  2  0  0  0
 73 82  1  0  0  0
 73 83  1  0  0  0
 74 77  1  0  0  0
 74 78  1  0  0  0
 74146  1  0  0  0
 74147  1  0  0  0
 75 77  1  0  0  0
 75 84  1  0  0  0
 75148  1  0  0  0
 75149  1  0  0  0
 76 78  1  0  0  0
 76 84  1  0  0  0
 76150  1  0  0  0
 76151  1  0  0  0
 77 79  1  0  0  0
 77152  1  0  0  0
 78153  1  0  0  0
 79 85  1  0  0  0
 79154  1  0  0  0
 79155  1  0  0  0
 80 82  2  0  0  0
 83156  1  0  0  0
 84157  1  0  0  0
 84158  1  0  0  0
M  CHG  1  84   1
M  ISO  4   1 100  68 101  78 101  83 100
M  END
> <chiral flag>
0

> <version>
0

> <s_m_source_file>
/data/baiqing/PycharmProjects/Reinvent-master-3.2/result/LINK_invent/BTK/process_docking_weight1_custom_sum_contain_oxygen_bond_distance_aromatic_linkinvent_7_9_3/rearranged_h_0193.sdf

> <i_m_source_file_index>
49

> <r_mmod_Potential_Energy-OPLS-2005>
-50.888500213623

> <r_mmod_Stretch_Energy-OPLS-2005>
86.2031478881836

> <r_mmod_Bend_Energy-OPLS-2005>
194.832977294922

> <r_mmod_Torsional_Energy-OPLS-2005>
267.524627685547

> <r_mmod_Improper_Torsional_Energy-OPLS-2005>
4.53852128982544

> <r_mmod_Van_der_Waal_Energy-OPLS-2005>
189.374313354492

> <r_mmod_Electrostatic_Energy-OPLS-2005>
-333.483306884766

> <r_mmod_Solvation_Energy-OPLS-2005>
-496.898345947266

> <b_mmod_Minimization_Converged-OPLS-2005>
0

> <r_mmod_RMS_Derivative-OPLS-2005>
3.25503921508789

$$$$
49
                    3D
 Structure written by MMmdl.
154163  0  0  1  0            999 V2000
  -30.4365  -15.3778   20.3629 C   0  0  0  0  0  0
  -30.4139  -12.9030   19.5021 C   0  0  0  0  0  0
  -29.5190  -12.5997   18.2752 C   0  0  0  0  0  0
  -28.0822  -12.2930   18.7196 C   0  0  0  0  0  0
  -27.5940  -13.2863   19.8026 C   0  0  2  0  0  0
  -28.6228  -13.5264   20.9251 C   0  0  0  0  0  0
  -25.2393  -13.8293   20.5852 C   0  0  0  0  0  0
  -24.1722  -13.0485   20.9259 C   0  0  0  0  0  0
  -24.6384  -11.6974   20.8695 C   0  0  0  0  0  0
  -23.9075  -10.4351   21.0341 C   0  0  0  0  0  0
  -24.3619   -9.4291   21.9170 C   0  0  0  0  0  0
  -23.6307   -8.2322   22.0734 C   0  0  0  0  0  0
  -22.4303   -8.0320   21.3514 C   0  0  0  0  0  0
  -21.9946   -9.0268   20.4594 C   0  0  0  0  0  0
  -22.7262  -10.2152   20.2982 C   0  0  0  0  0  0
  -21.6912   -6.0769   22.5285 C   0  0  0  0  0  0
  -21.4028   -6.5676   23.8196 C   0  0  0  0  0  0
  -21.3649   -5.6838   24.9166 C   0  0  0  0  0  0
  -21.6036   -4.3090   24.7244 C   0  0  0  0  0  0
  -21.8818   -3.8173   23.4379 C   0  0  0  0  0  0
  -21.9209   -4.6983   22.3430 C   0  0  0  0  0  0
  -22.7748  -13.5220   21.1871 C   0  0  0  0  0  0
  -22.1701   -4.2159   21.1008 F   0  0  0  0  0  0
  -21.5599   -3.4591   25.7769 F   0  0  0  0  0  0
  -29.8200  -14.0804   20.2654 N   0  0  0  0  0  0
  -26.2746  -12.9563   20.3150 N   0  0  0  0  0  0
  -25.9302  -11.6657   20.5583 N   0  0  0  0  0  0
  -22.0322  -12.8110   22.0236 N   0  0  0  0  0  0
  -25.4222  -15.1998   20.4500 N   0  0  0  0  0  0
  -31.6673  -15.2508   20.2393 O   0  0  0  0  0  0
  -21.6681   -6.8908   21.4240 O   0  0  0  0  0  0
  -22.3460  -14.5584   20.6807 O   0  0  0  0  0  0
  -24.6693  -31.8151   23.1600 C   0  0  0  0  0  0
  -25.9324  -32.4532   23.8108 C   0  0  1  0  0  0
  -27.1974  -26.8084   20.2200 C   0  0  0  0  0  0
  -25.5948  -33.8358   24.1997 N   0  0  0  0  0  0
  -23.4894  -30.4215   21.5111 C   0  0  2  0  0  0
  -24.9394  -28.7799   20.1231 C   0  0  0  0  0  0
  -22.7696  -29.4384   22.4737 C   0  0  0  0  0  0
  -18.0335  -28.1392   22.8469 C   0  0  0  0  0  0
  -24.1480  -36.7205   23.2664 C   0  0  0  0  0  0
  -26.0658  -30.5765   21.4151 C   0  0  0  0  0  0
  -26.1256  -29.1554   20.7644 C   0  0  0  0  0  0
  -27.2491  -28.1937   20.7816 C   0  0  0  0  0  0
  -25.9799  -26.6099   19.5327 C   0  0  0  0  0  0
  -24.8968  -27.5297   19.4865 C   0  0  0  0  0  0
  -23.7367  -29.7290   20.1422 C   0  0  0  0  0  0
  -25.4137  -36.2951   24.0291 C   0  0  1  0  0  0
  -20.5960  -28.3758   23.1157 C   0  0  2  0  0  0
  -20.6810  -26.9442   22.5387 C   0  0  0  0  0  0
  -19.5773  -26.6359   21.5211 C   0  0  0  0  0  0
  -18.1954  -26.7926   22.1625 C   0  0  0  0  0  0
  -19.1594  -28.8902   23.2798 C   0  0  0  0  0  0
  -18.9513  -30.1490   23.8833 C   0  0  0  0  0  0
  -17.6502  -30.6591   24.0551 C   0  0  0  0  0  0
  -25.9098  -34.9329   23.4976 C   0  0  0  0  0  0
  -16.5389  -29.9069   23.6351 C   0  0  0  0  0  0
  -16.7319  -28.6486   23.0380 C   0  0  0  0  0  0
  -26.4572  -31.6543   25.0693 C   0  0  0  0  0  0
  -25.3676  -31.3819   26.1317 C   0  0  0  0  0  0
  -27.0544  -30.2894   24.6608 C   0  0  0  0  0  0
  -27.6001  -32.4449   25.7498 C   0  0  0  0  0  0
  -27.5565  -37.1771   24.8469 C   0  0  0  0  0  0
  -21.4364  -29.3021   22.3487 N   0  0  0  0  0  0
  -26.4280  -37.3694   23.9389 N   0  0  0  0  0  0
  -24.7637  -30.9704   22.0793 N   0  0  0  0  0  0
  -23.4208  -28.7991   23.3039 O   0  0  0  0  0  0
  -28.1908  -25.6604   20.2219 O   0  0  0  0  0  0
  -26.5757  -34.8893   22.4601 O   0  0  0  0  0  0
  -23.5729  -32.1174   23.6616 O   0  0  0  0  0  0
  -28.2433  -19.1928   20.8614 C   0  0  0  0  0  0
  -30.2867  -19.6354   19.7995 C   0  0  0  0  0  0
  -28.4866  -17.5360   20.4240 C   0  0  0  0  0  0
  -30.7078  -18.0995   20.4005 C   0  0  0  0  0  0
  -27.4980  -21.7673   18.9555 C   0  0  0  0  0  0
  -28.5903  -22.3501   19.8558 C   0  0  2  0  0  0
  -28.8990  -20.4996   20.0654 C   0  0  0  0  0  0
  -28.0262  -23.9934   20.5427 C   0  0  0  0  0  0
  -29.8611  -16.7963   20.3742 N   0  0  0  0  0  0
  -28.2219  -20.5169   18.7569 N   0  3  0  0  0  0
  -31.4256  -13.1101   19.1494 H   0  0  0  0  0  0
  -30.5117  -12.0212   20.1354 H   0  0  0  0  0  0
  -29.9204  -11.7655   17.6980 H   0  0  0  0  0  0
  -29.5171  -13.4624   17.6040 H   0  0  0  0  0  0
  -28.0711  -11.2807   19.1211 H   0  0  0  0  0  0
  -27.4077  -12.2881   17.8623 H   0  0  0  0  0  0
  -27.4807  -14.2331   19.2698 H   0  0  0  0  0  0
  -28.8363  -12.6068   21.4734 H   0  0  0  0  0  0
  -28.2340  -14.2410   21.6502 H   0  0  0  0  0  0
  -25.2704   -9.5870   22.4822 H   0  0  0  0  0  0
  -24.0000   -7.4799   22.7553 H   0  0  0  0  0  0
  -21.0849   -8.8807   19.8940 H   0  0  0  0  0  0
  -22.3651  -10.9721   19.6131 H   0  0  0  0  0  0
  -21.2017   -7.6187   23.9702 H   0  0  0  0  0  0
  -21.1450   -6.0579   25.9058 H   0  0  0  0  0  0
  -22.0567   -2.7640   23.2899 H   0  0  0  0  0  0
  -22.3832  -11.9612   22.4442 H   0  0  0  0  0  0
  -21.0875  -13.1063   22.2246 H   0  0  0  0  0  0
  -24.6950  -15.8785   20.6542 H   0  0  0  0  0  0
  -26.2963  -15.6233   20.1718 H   0  0  0  0  0  0
  -26.7394  -32.5031   23.0809 H   0  0  0  0  0  0
  -24.9946  -33.9424   25.0047 H   0  0  0  0  0  0
  -22.8081  -31.2548   21.3310 H   0  0  0  0  0  0
  -23.3742  -35.9530   23.3305 H   0  0  0  0  0  0
  -24.3531  -36.8884   22.2083 H   0  0  0  0  0  0
  -23.7239  -37.6386   23.6745 H   0  0  0  0  0  0
  -26.2734  -31.3127   20.6383 H   0  0  0  0  0  0
  -26.9107  -30.6275   22.0881 H   0  0  0  0  0  0
  -28.1451  -28.4796   21.3094 H   0  0  0  0  0  0
  -25.8398  -25.6603   19.0367 H   0  0  0  0  0  0
  -23.9974  -27.2355   18.9621 H   0  0  0  0  0  0
  -23.9115  -30.4904   19.3820 H   0  0  0  0  0  0
  -22.8423  -29.1923   19.8163 H   0  0  0  0  0  0
  -25.1342  -36.1746   25.0786 H   0  0  0  0  0  0
  -21.0056  -28.3372   24.1281 H   0  0  0  0  0  0
  -20.5671  -26.2397   23.3649 H   0  0  0  0  0  0
  -21.6679  -26.7390   22.1213 H   0  0  0  0  0  0
  -19.6942  -25.6255   21.1295 H   0  0  0  0  0  0
  -19.6695  -27.3122   20.6715 H   0  0  0  0  0  0
  -17.4230  -26.6667   21.4030 H   0  0  0  0  0  0
  -18.0356  -26.0067   22.9027 H   0  0  0  0  0  0
  -19.7983  -30.7320   24.2159 H   0  0  0  0  0  0
  -17.5052  -31.6269   24.5160 H   0  0  0  0  0  0
  -15.5383  -30.2953   23.7696 H   0  0  0  0  0  0
  -15.8721  -28.0769   22.7139 H   0  0  0  0  0  0
  -24.5792  -30.7277   25.7572 H   0  0  0  0  0  0
  -24.8958  -32.3047   26.4712 H   0  0  0  0  0  0
  -25.7857  -30.8942   27.0129 H   0  0  0  0  0  0
  -26.3257  -29.6435   24.1700 H   0  0  0  0  0  0
  -27.4070  -29.7426   25.5369 H   0  0  0  0  0  0
  -27.9200  -30.4012   24.0068 H   0  0  0  0  0  0
  -27.2456  -33.3730   26.1997 H   0  0  0  0  0  0
  -28.3821  -32.7083   25.0360 H   0  0  0  0  0  0
  -28.0683  -31.8693   26.5490 H   0  0  0  0  0  0
  -28.2582  -38.0071   24.7472 H   0  0  0  0  0  0
  -28.1061  -36.2588   24.6335 H   0  0  0  0  0  0
  -27.2276  -37.1463   25.8876 H   0  0  0  0  0  0
  -20.9620  -29.8725   21.6620 H   0  0  0  0  0  0
  -26.0126  -38.2755   24.1357 H   0  0  0  0  0  0
  -28.5842  -19.2574   21.8964 H   0  0  0  0  0  0
  -27.1670  -19.3433   20.9549 H   0  0  0  0  0  0
  -30.4213  -19.5208   18.7236 H   0  0  0  0  0  0
  -31.1182  -20.2853   20.0688 H   0  0  0  0  0  0
  -28.0449  -17.3895   19.4378 H   0  0  0  0  0  0
  -27.8599  -16.9332   21.0840 H   0  0  0  0  0  0
  -30.9974  -18.2332   21.4456 H   0  0  0  0  0  0
  -31.6490  -17.8476   19.9094 H   0  0  0  0  0  0
  -27.3321  -22.3175   18.0271 H   0  0  0  0  0  0
  -26.5558  -21.6073   19.4820 H   0  0  0  0  0  0
  -29.4527  -22.6274   19.2470 H   0  0  0  0  0  0
  -28.3064  -23.9538   21.5972 H   0  0  0  0  0  0
  -26.9407  -23.8982   20.6033 H   0  0  0  0  0  0
  -28.8710  -20.6107   17.9916 H   0  0  0  0  0  0
  -27.6013  -19.7409   18.5900 H   0  0  0  0  0  0
  1 25  1  0  0  0
  1 30  2  0  0  0
  1 79  1  0  0  0
  2  3  1  0  0  0
  2 25  1  0  0  0
  2 81  1  0  0  0
  2 82  1  0  0  0
  3  4  1  0  0  0
  3 83  1  0  0  0
  3 84  1  0  0  0
  4  5  1  0  0  0
  4 85  1  0  0  0
  4 86  1  0  0  0
  5  6  1  0  0  0
  5 26  1  0  0  0
  5 87  1  0  0  0
  6 25  1  0  0  0
  6 88  1  0  0  0
  6 89  1  0  0  0
  7  8  2  0  0  0
  7 26  1  0  0  0
  7 29  1  0  0  0
  8  9  1  0  0  0
  8 22  1  0  0  0
  9 10  1  0  0  0
  9 27  2  0  0  0
 10 11  2  0  0  0
 10 15  1  0  0  0
 11 12  1  0  0  0
 11 90  1  0  0  0
 12 13  2  0  0  0
 12 91  1  0  0  0
 13 14  1  0  0  0
 13 31  1  0  0  0
 14 15  2  0  0  0
 14 92  1  0  0  0
 15 93  1  0  0  0
 16 17  2  0  0  0
 16 21  1  0  0  0
 16 31  1  0  0  0
 17 18  1  0  0  0
 17 94  1  0  0  0
 18 19  2  0  0  0
 18 95  1  0  0  0
 19 20  1  0  0  0
 19 24  1  0  0  0
 20 21  2  0  0  0
 20 96  1  0  0  0
 21 23  1  0  0  0
 22 28  1  0  0  0
 22 32  2  0  0  0
 26 27  1  0  0  0
 28 97  1  0  0  0
 28 98  1  0  0  0
 29 99  1  0  0  0
 29100  1  0  0  0
 33 34  1  0  0  0
 33 66  1  0  0  0
 33 70  2  0  0  0
 34 36  1  0  0  0
 34 59  1  0  0  0
 34101  1  0  0  0
 35 44  2  0  0  0
 35 45  1  0  0  0
 35 68  1  0  0  0
 36 56  1  0  0  0
 36102  1  0  0  0
 37 39  1  0  0  0
 37 47  1  0  0  0
 37 66  1  0  0  0
 37103  1  0  0  0
 38 43  2  0  0  0
 38 46  1  0  0  0
 38 47  1  0  0  0
 39 64  1  0  0  0
 39 67  2  0  0  0
 40 52  1  0  0  0
 40 53  2  0  0  0
 40 58  1  0  0  0
 41104  1  0  0  0
 41105  1  0  0  0
 41106  1  0  0  0
 41 48  1  0  0  0
 42 43  1  0  0  0
 42 66  1  0  0  0
 42107  1  0  0  0
 42108  1  0  0  0
 43 44  1  0  0  0
 44109  1  0  0  0
 45 46  2  0  0  0
 45110  1  0  0  0
 46111  1  0  0  0
 47112  1  0  0  0
 47113  1  0  0  0
 48 56  1  0  0  0
 48 65  1  0  0  0
 48114  1  0  0  0
 49 50  1  0  0  0
 49 53  1  0  0  0
 49 64  1  0  0  0
 49115  1  0  0  0
 50 51  1  0  0  0
 50116  1  0  0  0
 50117  1  0  0  0
 51 52  1  0  0  0
 51118  1  0  0  0
 51119  1  0  0  0
 52120  1  0  0  0
 52121  1  0  0  0
 53 54  1  0  0  0
 54 55  2  0  0  0
 54122  1  0  0  0
 55 57  1  0  0  0
 55123  1  0  0  0
 56 69  2  0  0  0
 57 58  2  0  0  0
 57124  1  0  0  0
 58125  1  0  0  0
 59 60  1  0  0  0
 59 61  1  0  0  0
 59 62  1  0  0  0
 60126  1  0  0  0
 60127  1  0  0  0
 60128  1  0  0  0
 61129  1  0  0  0
 61130  1  0  0  0
 61131  1  0  0  0
 62132  1  0  0  0
 62133  1  0  0  0
 62134  1  0  0  0
 63 65  1  0  0  0
 63135  1  0  0  0
 63136  1  0  0  0
 63137  1  0  0  0
 64138  1  0  0  0
 65139  1  0  0  0
 68 78  1  0  0  0
 71 73  1  0  0  0
 71140  1  0  0  0
 71141  1  0  0  0
 71 77  1  0  0  0
 72 74  1  0  0  0
 72 77  1  0  0  0
 72142  1  0  0  0
 72143  1  0  0  0
 73 79  1  0  0  0
 73144  1  0  0  0
 73145  1  0  0  0
 74 79  1  0  0  0
 74146  1  0  0  0
 74147  1  0  0  0
 75 76  1  0  0  0
 75 80  1  0  0  0
 75148  1  0  0  0
 75149  1  0  0  0
 76 77  1  0  0  0
 76 78  1  0  0  0
 76150  1  0  0  0
 77 80  1  0  0  0
 78151  1  0  0  0
 78152  1  0  0  0
 80153  1  0  0  0
 80154  1  0  0  0
M  CHG  1  80   1
M  ISO  4   1 100  68 101  78 101  79 100
M  END
> <chiral flag>
0

> <version>
0

> <s_m_source_file>
/data/baiqing/PycharmProjects/Reinvent-master-3.2/result/LINK_invent/BTK/process_docking_weight1_custom_sum_contain_oxygen_bond_distance_aromatic_linkinvent_7_9_3/rearranged_h_0193.sdf

> <i_m_source_file_index>
50

> <r_mmod_Potential_Energy-OPLS-2005>
1901.71313476562

> <r_mmod_Stretch_Energy-OPLS-2005>
774.910217285156

> <r_mmod_Bend_Energy-OPLS-2005>
694.855285644531

> <r_mmod_Torsional_Energy-OPLS-2005>
363.405426025391

> <r_mmod_Improper_Torsional_Energy-OPLS-2005>
4.67773056030273

> <r_mmod_Van_der_Waal_Energy-OPLS-2005>
119.640762329102

> <r_mmod_Electrostatic_Energy-OPLS-2005>
-161.283004760742

> <r_mmod_Solvation_Energy-OPLS-2005>
-497.784362792969

> <b_mmod_Minimization_Converged-OPLS-2005>
0

> <r_mmod_RMS_Derivative-OPLS-2005>
4.6806492805481

$$$$
50
                    3D
 Structure written by MMmdl.
158167  0  0  1  0            999 V2000
  -30.6266  -14.8475   20.4639 C   0  0  0  0  0  0
  -30.4300  -12.5326   19.4833 C   0  0  0  0  0  0
  -29.5090  -12.5201   18.2432 C   0  0  0  0  0  0
  -28.0393  -12.3259   18.6606 C   0  0  0  0  0  0
  -27.6341  -13.2403   19.8463 C   0  0  2  0  0  0
  -28.6839  -13.2143   20.9786 C   0  0  0  0  0  0
  -25.2433  -13.8185   20.5652 C   0  0  0  0  0  0
  -24.1768  -13.0416   20.9224 C   0  0  0  0  0  0
  -24.6392  -11.6909   20.8781 C   0  0  0  0  0  0
  -23.9079  -10.4282   21.0425 C   0  0  0  0  0  0
  -24.3628   -9.4193   21.9195 C   0  0  0  0  0  0
  -23.6297   -8.2232   22.0757 C   0  0  0  0  0  0
  -22.4279   -8.0278   21.3547 C   0  0  0  0  0  0
  -21.9921   -9.0253   20.4651 C   0  0  0  0  0  0
  -22.7255  -10.2128   20.3065 C   0  0  0  0  0  0
  -21.6849   -6.0738   22.5280 C   0  0  0  0  0  0
  -21.4012   -6.5643   23.8213 C   0  0  0  0  0  0
  -21.3660   -5.6795   24.9174 C   0  0  0  0  0  0
  -21.6044   -4.3057   24.7224 C   0  0  0  0  0  0
  -21.8820   -3.8147   23.4345 C   0  0  0  0  0  0
  -21.9190   -4.6965   22.3402 C   0  0  0  0  0  0
  -22.7788  -13.5190   21.1877 C   0  0  0  0  0  0
  -22.1658   -4.2151   21.0980 F   0  0  0  0  0  0
  -21.5628   -3.4543   25.7736 F   0  0  0  0  0  0
  -29.9636  -13.6255   20.3831 N   0  0  0  0  0  0
  -26.2897  -12.9428   20.3286 N   0  0  0  0  0  0
  -25.9329  -11.6564   20.5794 N   0  0  0  0  0  0
  -22.0449  -12.8184   22.0445 N   0  0  0  0  0  0
  -25.3988  -15.1896   20.3932 N   0  0  0  0  0  0
  -31.8201  -14.8587   20.1420 O   0  0  0  0  0  0
  -21.6635   -6.8882   21.4243 O   0  0  0  0  0  0
  -22.3471  -14.5493   20.6720 O   0  0  0  0  0  0
  -24.6388  -31.8502   23.1958 C   0  0  0  0  0  0
  -25.9186  -32.4725   23.8318 C   0  0  1  0  0  0
  -27.2090  -27.1940   20.1290 C   0  0  0  0  0  0
  -25.5961  -33.8530   24.2230 N   0  0  0  0  0  0
  -23.4387  -30.4754   21.5400 C   0  0  2  0  0  0
  -24.8853  -28.9200   20.1075 C   0  0  0  0  0  0
  -22.7542  -29.4583   22.4875 C   0  0  0  0  0  0
  -18.0302  -28.1398   22.8479 C   0  0  0  0  0  0
  -24.1488  -36.7267   23.2641 C   0  0  0  0  0  0
  -25.9926  -30.7410   21.3886 C   0  0  0  0  0  0
  -26.0626  -29.3599   20.7263 C   0  0  0  0  0  0
  -27.2269  -28.5108   20.7276 C   0  0  0  0  0  0
  -26.0074  -26.8555   19.4618 C   0  0  0  0  0  0
  -24.8673  -27.6785   19.4624 C   0  0  0  0  0  0
  -23.6612  -29.8157   20.1553 C   0  0  0  0  0  0
  -25.4118  -36.3048   24.0322 C   0  0  1  0  0  0
  -20.5911  -28.3717   23.1247 C   0  0  2  0  0  0
  -20.6784  -26.9424   22.5411 C   0  0  0  0  0  0
  -19.5763  -26.6384   21.5211 C   0  0  0  0  0  0
  -18.1941  -26.7941   22.1611 C   0  0  0  0  0  0
  -19.1559  -28.8874   23.2857 C   0  0  0  0  0  0
  -18.9478  -30.1471   23.8883 C   0  0  0  0  0  0
  -17.6474  -30.6591   24.0568 C   0  0  0  0  0  0
  -25.9068  -34.9424   23.5075 C   0  0  0  0  0  0
  -16.5366  -29.9088   23.6335 C   0  0  0  0  0  0
  -16.7289  -28.6510   23.0352 C   0  0  0  0  0  0
  -26.4523  -31.6576   25.0737 C   0  0  0  0  0  0
  -25.3724  -31.3775   26.1447 C   0  0  0  0  0  0
  -27.0375  -30.2972   24.6289 C   0  0  0  0  0  0
  -27.6065  -32.4334   25.7509 C   0  0  0  0  0  0
  -27.5577  -37.1787   24.8462 C   0  0  0  0  0  0
  -21.4242  -29.3056   22.3626 N   0  0  0  0  0  0
  -26.4283  -37.3758   23.9415 N   0  0  0  0  0  0
  -24.7095  -31.0412   22.0968 N   0  0  0  0  0  0
  -23.4214  -28.8114   23.2989 O   0  0  0  0  0  0
  -28.2533  -26.2157   20.2089 O   0  0  0  0  0  0
  -26.5641  -34.8912   22.4644 O   0  0  0  0  0  0
  -23.5519  -32.1353   23.7211 O   0  0  0  0  0  0
  -28.8290  -23.5095   20.3285 C   0  0  0  0  0  0
  -29.6801  -21.4950   20.6420 C   0  0  0  0  0  0
  -28.7032  -18.0159   21.5298 C   0  0  0  0  0  0
  -28.7675  -16.4594   21.3452 C   0  0  0  0  0  0
  -30.4910  -17.4563   20.1162 C   0  0  0  0  0  0
  -29.4679  -18.6797   20.3748 C   0  0  2  0  0  0
  -30.1213  -25.3204   22.7718 C   0  0  0  0  0  0
  -27.8865  -24.7517   19.9356 C   0  0  0  0  0  0
  -30.7082  -24.7879   21.4572 C   0  0  0  0  0  0
  -28.5817  -22.1630   20.0919 N   0  0  0  0  0  0
  -30.5375  -22.3614   21.1844 N   0  0  0  0  0  0
  -29.9989  -23.6117   20.9795 N   0  0  0  0  0  0
  -29.9551  -16.0956   20.5559 N   0  0  0  0  0  0
  -30.0579  -20.0563   20.6949 N   0  0  0  0  0  0
  -31.4667  -12.6598   19.1677 H   0  0  0  0  0  0
  -30.4005  -11.5701   19.9964 H   0  0  0  0  0  0
  -29.8107  -11.7289   17.5556 H   0  0  0  0  0  0
  -29.6154  -13.4589   17.6968 H   0  0  0  0  0  0
  -27.9154  -11.2802   18.9446 H   0  0  0  0  0  0
  -27.3766  -12.4892   17.8101 H   0  0  0  0  0  0
  -27.6126  -14.2520   19.4420 H   0  0  0  0  0  0
  -28.7606  -12.2160   21.4118 H   0  0  0  0  0  0
  -28.3925  -13.8651   21.7995 H   0  0  0  0  0  0
  -25.2772   -9.5665   22.4772 H   0  0  0  0  0  0
  -24.0008   -7.4617   22.7469 H   0  0  0  0  0  0
  -21.0855   -8.8775   19.8950 H   0  0  0  0  0  0
  -22.3719  -10.9670   19.6177 H   0  0  0  0  0  0
  -21.2005   -7.6151   23.9720 H   0  0  0  0  0  0
  -21.1482   -6.0522   25.9078 H   0  0  0  0  0  0
  -22.0598   -2.7609   23.2840 H   0  0  0  0  0  0
  -22.4082  -11.9852   22.4832 H   0  0  0  0  0  0
  -21.1063  -13.1200   22.2657 H   0  0  0  0  0  0
  -24.6151  -15.8281   20.4768 H   0  0  0  0  0  0
  -26.2262  -15.6263   20.0094 H   0  0  0  0  0  0
  -26.7253  -32.5342   23.1054 H   0  0  0  0  0  0
  -25.0119  -33.9656   25.0383 H   0  0  0  0  0  0
  -22.7387  -31.3008   21.3936 H   0  0  0  0  0  0
  -23.3753  -35.9595   23.3295 H   0  0  0  0  0  0
  -24.3579  -36.8898   22.2057 H   0  0  0  0  0  0
  -23.7235  -37.6462   23.6676 H   0  0  0  0  0  0
  -26.1448  -31.5003   20.6202 H   0  0  0  0  0  0
  -26.8650  -30.7858   22.0290 H   0  0  0  0  0  0
  -28.1210  -28.8389   21.2393 H   0  0  0  0  0  0
  -25.8955  -25.9172   18.9419 H   0  0  0  0  0  0
  -23.9705  -27.3396   18.9622 H   0  0  0  0  0  0
  -23.7967  -30.5955   19.4047 H   0  0  0  0  0  0
  -22.7762  -29.2589   19.8419 H   0  0  0  0  0  0
  -25.1300  -36.1881   25.0814 H   0  0  0  0  0  0
  -21.0006  -28.3301   24.1365 H   0  0  0  0  0  0
  -20.5657  -26.2337   23.3630 H   0  0  0  0  0  0
  -21.6654  -26.7419   22.1223 H   0  0  0  0  0  0
  -19.6925  -25.6288   21.1255 H   0  0  0  0  0  0
  -19.6707  -27.3184   20.6735 H   0  0  0  0  0  0
  -17.4216  -26.6703   21.4007 H   0  0  0  0  0  0
  -18.0327  -26.0081   22.9001 H   0  0  0  0  0  0
  -19.7952  -30.7296   24.2239 H   0  0  0  0  0  0
  -17.5029  -31.6265   24.5180 H   0  0  0  0  0  0
  -15.5366  -30.2989   23.7671 H   0  0  0  0  0  0
  -15.8687  -28.0831   22.7064 H   0  0  0  0  0  0
  -24.5906  -30.7105   25.7798 H   0  0  0  0  0  0
  -24.8910  -32.2964   26.4805 H   0  0  0  0  0  0
  -25.8023  -30.9012   27.0267 H   0  0  0  0  0  0
  -26.2984  -29.6710   24.1279 H   0  0  0  0  0  0
  -27.3981  -29.7253   25.4849 H   0  0  0  0  0  0
  -27.8899  -30.4216   23.9607 H   0  0  0  0  0  0
  -27.2665  -33.3652   26.2044 H   0  0  0  0  0  0
  -28.3898  -32.6861   25.0350 H   0  0  0  0  0  0
  -28.0713  -31.8488   26.5459 H   0  0  0  0  0  0
  -28.2589  -38.0088   24.7499 H   0  0  0  0  0  0
  -28.1070  -36.2615   24.6279 H   0  0  0  0  0  0
  -27.2306  -37.1432   25.8868 H   0  0  0  0  0  0
  -20.9435  -29.8806   21.6848 H   0  0  0  0  0  0
  -26.0149  -38.2824   24.1425 H   0  0  0  0  0  0
  -29.1854  -18.2683   22.4754 H   0  0  0  0  0  0
  -27.6753  -18.3756   21.5978 H   0  0  0  0  0  0
  -27.8851  -16.1198   20.8105 H   0  0  0  0  0  0
  -28.7773  -15.9720   22.3208 H   0  0  0  0  0  0
  -31.4126  -17.6270   20.6743 H   0  0  0  0  0  0
  -30.7769  -17.4163   19.0642 H   0  0  0  0  0  0
  -28.8017  -18.7717   19.5150 H   0  0  0  0  0  0
  -30.6648  -26.2047   23.1049 H   0  0  0  0  0  0
  -30.1822  -24.5725   23.5628 H   0  0  0  0  0  0
  -29.0747  -25.6039   22.6590 H   0  0  0  0  0  0
  -26.9357  -24.5501   20.4303 H   0  0  0  0  0  0
  -27.7058  -24.6595   18.8645 H   0  0  0  0  0  0
  -31.7615  -24.5389   21.5953 H   0  0  0  0  0  0
  -30.6776  -25.5555   20.6833 H   0  0  0  0  0  0
  -30.9665  -19.9582   21.1348 H   0  0  0  0  0  0
  1 25  1  0  0  0
  1 30  2  0  0  0
  1 83  1  0  0  0
  2  3  1  0  0  0
  2 25  1  0  0  0
  2 85  1  0  0  0
  2 86  1  0  0  0
  3  4  1  0  0  0
  3 87  1  0  0  0
  3 88  1  0  0  0
  4  5  1  0  0  0
  4 89  1  0  0  0
  4 90  1  0  0  0
  5  6  1  0  0  0
  5 26  1  0  0  0
  5 91  1  0  0  0
  6 25  1  0  0  0
  6 92  1  0  0  0
  6 93  1  0  0  0
  7  8  2  0  0  0
  7 26  1  0  0  0
  7 29  1  0  0  0
  8  9  1  0  0  0
  8 22  1  0  0  0
  9 10  1  0  0  0
  9 27  2  0  0  0
 10 11  2  0  0  0
 10 15  1  0  0  0
 11 12  1  0  0  0
 11 94  1  0  0  0
 12 13  2  0  0  0
 12 95  1  0  0  0
 13 14  1  0  0  0
 13 31  1  0  0  0
 14 15  2  0  0  0
 14 96  1  0  0  0
 15 97  1  0  0  0
 16 17  2  0  0  0
 16 21  1  0  0  0
 16 31  1  0  0  0
 17 18  1  0  0  0
 17 98  1  0  0  0
 18 19  2  0  0  0
 18 99  1  0  0  0
 19 20  1  0  0  0
 19 24  1  0  0  0
 20 21  2  0  0  0
 20100  1  0  0  0
 21 23  1  0  0  0
 22 28  1  0  0  0
 22 32  2  0  0  0
 26 27  1  0  0  0
 28101  1  0  0  0
 28102  1  0  0  0
 29103  1  0  0  0
 29104  1  0  0  0
 33 34  1  0  0  0
 33 66  1  0  0  0
 33 70  2  0  0  0
 34 36  1  0  0  0
 34 59  1  0  0  0
 34105  1  0  0  0
 35 44  2  0  0  0
 35 45  1  0  0  0
 35 68  1  0  0  0
 36 56  1  0  0  0
 36106  1  0  0  0
 37 39  1  0  0  0
 37 47  1  0  0  0
 37 66  1  0  0  0
 37107  1  0  0  0
 38 43  2  0  0  0
 38 46  1  0  0  0
 38 47  1  0  0  0
 39 64  1  0  0  0
 39 67  2  0  0  0
 40 52  1  0  0  0
 40 53  2  0  0  0
 40 58  1  0  0  0
 41108  1  0  0  0
 41109  1  0  0  0
 41110  1  0  0  0
 41 48  1  0  0  0
 42 43  1  0  0  0
 42 66  1  0  0  0
 42111  1  0  0  0
 42112  1  0  0  0
 43 44  1  0  0  0
 44113  1  0  0  0
 45 46  2  0  0  0
 45114  1  0  0  0
 46115  1  0  0  0
 47116  1  0  0  0
 47117  1  0  0  0
 48 56  1  0  0  0
 48 65  1  0  0  0
 48118  1  0  0  0
 49 50  1  0  0  0
 49 53  1  0  0  0
 49 64  1  0  0  0
 49119  1  0  0  0
 50 51  1  0  0  0
 50120  1  0  0  0
 50121  1  0  0  0
 51 52  1  0  0  0
 51122  1  0  0  0
 51123  1  0  0  0
 52124  1  0  0  0
 52125  1  0  0  0
 53 54  1  0  0  0
 54 55  2  0  0  0
 54126  1  0  0  0
 55 57  1  0  0  0
 55127  1  0  0  0
 56 69  2  0  0  0
 57 58  2  0  0  0
 57128  1  0  0  0
 58129  1  0  0  0
 59 60  1  0  0  0
 59 61  1  0  0  0
 59 62  1  0  0  0
 60130  1  0  0  0
 60131  1  0  0  0
 60132  1  0  0  0
 61133  1  0  0  0
 61134  1  0  0  0
 61135  1  0  0  0
 62136  1  0  0  0
 62137  1  0  0  0
 62138  1  0  0  0
 63 65  1  0  0  0
 63139  1  0  0  0
 63140  1  0  0  0
 63141  1  0  0  0
 64142  1  0  0  0
 65143  1  0  0  0
 68 78  1  0  0  0
 71 78  1  0  0  0
 71 80  2  0  0  0
 71 82  1  0  0  0
 72 80  1  0  0  0
 72 81  2  0  0  0
 72 84  1  0  0  0
 73 74  1  0  0  0
 73 76  1  0  0  0
 73144  1  0  0  0
 73145  1  0  0  0
 74 83  1  0  0  0
 74146  1  0  0  0
 74147  1  0  0  0
 75 76  1  0  0  0
 75 83  1  0  0  0
 75148  1  0  0  0
 75149  1  0  0  0
 76 84  1  0  0  0
 76150  1  0  0  0
 77 79  1  0  0  0
 77151  1  0  0  0
 77152  1  0  0  0
 77153  1  0  0  0
 78154  1  0  0  0
 78155  1  0  0  0
 79 82  1  0  0  0
 79156  1  0  0  0
 79157  1  0  0  0
 81 82  1  0  0  0
 84158  1  0  0  0
M  ISO  4   1 100  68 101  78 101  83 100
M  END
> <chiral flag>
0

> <version>
0

> <s_m_source_file>
/data/baiqing/PycharmProjects/Reinvent-master-3.2/result/LINK_invent/BTK/process_docking_weight1_custom_sum_contain_oxygen_bond_distance_aromatic_linkinvent_7_9_3/rearranged_h_0193.sdf

> <i_m_source_file_index>
51

> <r_mmod_Potential_Energy-OPLS-2005>
359.751953125

> <r_mmod_Stretch_Energy-OPLS-2005>
160.84831237793

> <r_mmod_Bend_Energy-OPLS-2005>
295.295379638672

> <r_mmod_Torsional_Energy-OPLS-2005>
304.933044433594

> <r_mmod_Improper_Torsional_Energy-OPLS-2005>
9.75203704833984

> <r_mmod_Van_der_Waal_Energy-OPLS-2005>
113.983879089355

> <r_mmod_Electrostatic_Energy-OPLS-2005>
-433.666259765625

> <r_mmod_Solvation_Energy-OPLS-2005>
-227.416305541992

> <b_mmod_Minimization_Converged-OPLS-2005>
0

> <r_mmod_RMS_Derivative-OPLS-2005>
0.799720585346222

$$$$
51
                    3D
 Structure written by MMmdl.
158168  0  0  1  0            999 V2000
  -30.6504  -14.5691   20.5173 C   0  0  0  0  0  0
  -30.4362  -12.3476   19.4525 C   0  0  0  0  0  0
  -29.5089  -12.5059   18.2263 C   0  0  0  0  0  0
  -28.0291  -12.3577   18.6325 C   0  0  0  0  0  0
  -27.6616  -13.2123   19.8756 C   0  0  2  0  0  0
  -28.7043  -13.0295   21.0050 C   0  0  0  0  0  0
  -25.2564  -13.8143   20.5656 C   0  0  0  0  0  0
  -24.1833  -13.0421   20.9183 C   0  0  0  0  0  0
  -24.6402  -11.6897   20.8743 C   0  0  0  0  0  0
  -23.9067  -10.4285   21.0409 C   0  0  0  0  0  0
  -24.3618   -9.4199   21.9187 C   0  0  0  0  0  0
  -23.6290   -8.2237   22.0754 C   0  0  0  0  0  0
  -22.4273   -8.0277   21.3542 C   0  0  0  0  0  0
  -21.9909   -9.0251   20.4646 C   0  0  0  0  0  0
  -22.7239  -10.2130   20.3057 C   0  0  0  0  0  0
  -21.6850   -6.0735   22.5279 C   0  0  0  0  0  0
  -21.4012   -6.5639   23.8213 C   0  0  0  0  0  0
  -21.3656   -5.6791   24.9174 C   0  0  0  0  0  0
  -21.6046   -4.3054   24.7224 C   0  0  0  0  0  0
  -21.8821   -3.8146   23.4345 C   0  0  0  0  0  0
  -21.9191   -4.6964   22.3401 C   0  0  0  0  0  0
  -22.7856  -13.5224   21.1842 C   0  0  0  0  0  0
  -22.1663   -4.2151   21.0979 F   0  0  0  0  0  0
  -21.5626   -3.4537   25.7736 F   0  0  0  0  0  0
  -30.0336  -13.3507   20.4564 N   0  0  0  0  0  0
  -26.3024  -12.9338   20.3361 N   0  0  0  0  0  0
  -25.9337  -11.6495   20.5780 N   0  0  0  0  0  0
  -22.0494  -12.8224   22.0403 N   0  0  0  0  0  0
  -25.4216  -15.1847   20.3990 N   0  0  0  0  0  0
  -31.7726  -14.7659   20.0437 O   0  0  0  0  0  0
  -21.6633   -6.8879   21.4241 O   0  0  0  0  0  0
  -22.3546  -14.5529   20.6685 O   0  0  0  0  0  0
  -24.6217  -31.8633   23.2060 C   0  0  0  0  0  0
  -25.9084  -32.4797   23.8379 C   0  0  1  0  0  0
  -27.2336  -27.3835   20.1034 C   0  0  0  0  0  0
  -25.5920  -33.8596   24.2310 N   0  0  0  0  0  0
  -23.4144  -30.4862   21.5468 C   0  0  2  0  0  0
  -24.8653  -28.9510   20.1062 C   0  0  0  0  0  0
  -22.7458  -29.4636   22.4954 C   0  0  0  0  0  0
  -18.0282  -28.1382   22.8486 C   0  0  0  0  0  0
  -24.1492  -36.7306   23.2637 C   0  0  0  0  0  0
  -25.9498  -30.8133   21.3688 C   0  0  0  0  0  0
  -26.0302  -29.4473   20.7078 C   0  0  0  0  0  0
  -27.2219  -28.6725   20.7011 C   0  0  0  0  0  0
  -26.0554  -26.9232   19.4791 C   0  0  0  0  0  0
  -24.8765  -27.6919   19.4832 C   0  0  0  0  0  0
  -23.6272  -29.8208   20.1609 C   0  0  0  0  0  0
  -25.4114  -36.3097   24.0333 C   0  0  1  0  0  0
  -20.5880  -28.3685   23.1294 C   0  0  2  0  0  0
  -20.6773  -26.9413   22.5412 C   0  0  0  0  0  0
  -19.5751  -26.6389   21.5209 C   0  0  0  0  0  0
  -18.1929  -26.7927   22.1619 C   0  0  0  0  0  0
  -19.1533  -28.8849   23.2887 C   0  0  0  0  0  0
  -18.9456  -30.1450   23.8905 C   0  0  0  0  0  0
  -17.6457  -30.6585   24.0566 C   0  0  0  0  0  0
  -25.9042  -34.9462   23.5118 C   0  0  0  0  0  0
  -16.5349  -29.9084   23.6326 C   0  0  0  0  0  0
  -16.7270  -28.6501   23.0348 C   0  0  0  0  0  0
  -26.4492  -31.6581   25.0721 C   0  0  0  0  0  0
  -25.3746  -31.3689   26.1460 C   0  0  0  0  0  0
  -27.0321  -30.3014   24.6121 C   0  0  0  0  0  0
  -27.6063  -32.4301   25.7489 C   0  0  0  0  0  0
  -27.5582  -37.1809   24.8465 C   0  0  0  0  0  0
  -21.4175  -29.3042   22.3695 N   0  0  0  0  0  0
  -26.4299  -37.3785   23.9402 N   0  0  0  0  0  0
  -24.6802  -31.0688   22.0985 N   0  0  0  0  0  0
  -23.4199  -28.8177   23.3022 O   0  0  0  0  0  0
  -28.3099  -26.5089   20.1984 O   0  0  0  0  0  0
  -26.5605  -34.8920   22.4679 O   0  0  0  0  0  0
  -23.5391  -32.1409   23.7414 O   0  0  0  0  0  0
  -30.9657  -20.9927   19.5681 C   0  0  0  0  0  0
  -29.8879  -20.6546   20.3829 C   0  0  0  0  0  0
  -31.1432  -22.3506   19.2684 C   0  0  0  0  0  0
  -29.3481  -22.9230   20.5573 C   0  0  0  0  0  0
  -28.2298  -17.3907   20.3426 C   0  0  0  0  0  0
  -29.2432  -25.2268   21.9320 C   0  0  0  0  0  0
  -28.2290  -18.8393   20.8632 C   0  0  0  0  0  0
  -30.5123  -18.1485   20.7583 C   0  0  0  0  0  0
  -28.6064  -23.9934   21.3765 C   0  0  1  0  0  0
  -29.7008  -16.9202   20.2414 C   0  0  2  0  0  0
  -27.9796  -25.3917   21.0843 C   0  0  2  0  0  0
  -29.0846  -21.6351   20.8624 N   0  0  0  0  0  0
  -30.3428  -23.3123   19.7706 N   0  0  0  0  0  0
  -29.5946  -19.3029   20.7239 N   0  0  0  0  0  0
  -29.8654  -15.6004   20.9181 N   0  0  0  0  0  0
  -32.4418  -22.8213   18.2358 Cl  0  0  0  0  0  0
  -31.4804  -12.4575   19.1541 H   0  0  0  0  0  0
  -30.3520  -11.3439   19.8714 H   0  0  0  0  0  0
  -29.7624  -11.7659   17.4662 H   0  0  0  0  0  0
  -29.6680  -13.4828   17.7670 H   0  0  0  0  0  0
  -27.8498  -11.3028   18.8439 H   0  0  0  0  0  0
  -27.3806  -12.6133   17.7937 H   0  0  0  0  0  0
  -27.6924  -14.2542   19.5573 H   0  0  0  0  0  0
  -28.6940  -12.0009   21.3681 H   0  0  0  0  0  0
  -28.4568  -13.6484   21.8683 H   0  0  0  0  0  0
  -25.2769   -9.5670   22.4758 H   0  0  0  0  0  0
  -23.9996   -7.4628   22.7473 H   0  0  0  0  0  0
  -21.0838   -8.8775   19.8952 H   0  0  0  0  0  0
  -22.3703  -10.9670   19.6163 H   0  0  0  0  0  0
  -21.2005   -7.6148   23.9716 H   0  0  0  0  0  0
  -21.1477   -6.0521   25.9076 H   0  0  0  0  0  0
  -22.0602   -2.7609   23.2845 H   0  0  0  0  0  0
  -22.4106  -11.9892   22.4807 H   0  0  0  0  0  0
  -21.1113  -13.1254   22.2602 H   0  0  0  0  0  0
  -24.6467  -15.8326   20.4899 H   0  0  0  0  0  0
  -26.2563  -15.6143   20.0245 H   0  0  0  0  0  0
  -26.7157  -32.5494   23.1139 H   0  0  0  0  0  0
  -25.0087  -33.9753   25.0468 H   0  0  0  0  0  0
  -22.7065  -31.3054   21.4055 H   0  0  0  0  0  0
  -23.3747  -35.9646   23.3311 H   0  0  0  0  0  0
  -24.3588  -36.8911   22.2049 H   0  0  0  0  0  0
  -23.7252  -37.6517   23.6646 H   0  0  0  0  0  0
  -26.0731  -31.5806   20.6034 H   0  0  0  0  0  0
  -26.8334  -30.8631   21.9934 H   0  0  0  0  0  0
  -28.1126  -29.0380   21.1927 H   0  0  0  0  0  0
  -26.0402  -25.9455   19.0179 H   0  0  0  0  0  0
  -23.9827  -27.3043   19.0136 H   0  0  0  0  0  0
  -23.7385  -30.5987   19.4047 H   0  0  0  0  0  0
  -22.7501  -29.2445   19.8607 H   0  0  0  0  0  0
  -25.1290  -36.1961   25.0827 H   0  0  0  0  0  0
  -20.9974  -28.3259   24.1416 H   0  0  0  0  0  0
  -20.5673  -26.2297   23.3609 H   0  0  0  0  0  0
  -21.6642  -26.7448   22.1207 H   0  0  0  0  0  0
  -19.6919  -25.6302   21.1232 H   0  0  0  0  0  0
  -19.6687  -27.3204   20.6742 H   0  0  0  0  0  0
  -17.4201  -26.6675   21.4021 H   0  0  0  0  0  0
  -18.0334  -26.0065   22.9012 H   0  0  0  0  0  0
  -19.7933  -30.7262   24.2282 H   0  0  0  0  0  0
  -17.5011  -31.6265   24.5166 H   0  0  0  0  0  0
  -15.5349  -30.2989   23.7644 H   0  0  0  0  0  0
  -15.8671  -28.0822   22.7059 H   0  0  0  0  0  0
  -24.5937  -30.7017   25.7794 H   0  0  0  0  0  0
  -24.8918  -32.2841   26.4900 H   0  0  0  0  0  0
  -25.8099  -30.8870   27.0223 H   0  0  0  0  0  0
  -26.2875  -29.6782   24.1155 H   0  0  0  0  0  0
  -27.4055  -29.7244   25.4591 H   0  0  0  0  0  0
  -27.8732  -30.4317   23.9305 H   0  0  0  0  0  0
  -27.2684  -33.3597   26.2081 H   0  0  0  0  0  0
  -28.3869  -32.6863   25.0313 H   0  0  0  0  0  0
  -28.0736  -31.8412   26.5392 H   0  0  0  0  0  0
  -28.2603  -38.0103   24.7505 H   0  0  0  0  0  0
  -28.1074  -36.2633   24.6300 H   0  0  0  0  0  0
  -27.2301  -37.1472   25.8870 H   0  0  0  0  0  0
  -20.9350  -29.8770   21.6912 H   0  0  0  0  0  0
  -26.0185  -38.2864   24.1392 H   0  0  0  0  0  0
  -31.6307  -20.2566   19.1462 H   0  0  0  0  0  0
  -27.7570  -17.3440   19.3598 H   0  0  0  0  0  0
  -27.6360  -16.7663   21.0100 H   0  0  0  0  0  0
  -30.1931  -25.5256   21.4934 H   0  0  0  0  0  0
  -29.1583  -25.3951   23.0030 H   0  0  0  0  0  0
  -27.9416  -18.8776   21.9149 H   0  0  0  0  0  0
  -27.5290  -19.4602   20.3011 H   0  0  0  0  0  0
  -31.4068  -18.3100   20.1562 H   0  0  0  0  0  0
  -30.8359  -17.9929   21.7882 H   0  0  0  0  0  0
  -28.0148  -23.4342   22.0994 H   0  0  0  0  0  0
  -29.9342  -16.7903   19.1823 H   0  0  0  0  0  0
  -27.0612  -25.5786   21.6416 H   0  0  0  0  0  0
  -29.0493  -15.2968   21.4267 H   0  0  0  0  0  0
  1 25  1  0  0  0
  1 30  2  0  0  0
  1 85  1  0  0  0
  2  3  1  0  0  0
  2 25  1  0  0  0
  2 87  1  0  0  0
  2 88  1  0  0  0
  3  4  1  0  0  0
  3 89  1  0  0  0
  3 90  1  0  0  0
  4  5  1  0  0  0
  4 91  1  0  0  0
  4 92  1  0  0  0
  5  6  1  0  0  0
  5 26  1  0  0  0
  5 93  1  0  0  0
  6 25  1  0  0  0
  6 94  1  0  0  0
  6 95  1  0  0  0
  7  8  2  0  0  0
  7 26  1  0  0  0
  7 29  1  0  0  0
  8  9  1  0  0  0
  8 22  1  0  0  0
  9 10  1  0  0  0
  9 27  2  0  0  0
 10 11  2  0  0  0
 10 15  1  0  0  0
 11 12  1  0  0  0
 11 96  1  0  0  0
 12 13  2  0  0  0
 12 97  1  0  0  0
 13 14  1  0  0  0
 13 31  1  0  0  0
 14 15  2  0  0  0
 14 98  1  0  0  0
 15 99  1  0  0  0
 16 17  2  0  0  0
 16 21  1  0  0  0
 16 31  1  0  0  0
 17 18  1  0  0  0
 17100  1  0  0  0
 18 19  2  0  0  0
 18101  1  0  0  0
 19 20  1  0  0  0
 19 24  1  0  0  0
 20 21  2  0  0  0
 20102  1  0  0  0
 21 23  1  0  0  0
 22 28  1  0  0  0
 22 32  2  0  0  0
 26 27  1  0  0  0
 28103  1  0  0  0
 28104  1  0  0  0
 29105  1  0  0  0
 29106  1  0  0  0
 33 34  1  0  0  0
 33 66  1  0  0  0
 33 70  2  0  0  0
 34 36  1  0  0  0
 34 59  1  0  0  0
 34107  1  0  0  0
 35 44  2  0  0  0
 35 45  1  0  0  0
 35 68  1  0  0  0
 36 56  1  0  0  0
 36108  1  0  0  0
 37 39  1  0  0  0
 37 47  1  0  0  0
 37 66  1  0  0  0
 37109  1  0  0  0
 38 43  2  0  0  0
 38 46  1  0  0  0
 38 47  1  0  0  0
 39 64  1  0  0  0
 39 67  2  0  0  0
 40 52  1  0  0  0
 40 53  2  0  0  0
 40 58  1  0  0  0
 41110  1  0  0  0
 41111  1  0  0  0
 41112  1  0  0  0
 41 48  1  0  0  0
 42 43  1  0  0  0
 42 66  1  0  0  0
 42113  1  0  0  0
 42114  1  0  0  0
 43 44  1  0  0  0
 44115  1  0  0  0
 45 46  2  0  0  0
 45116  1  0  0  0
 46117  1  0  0  0
 47118  1  0  0  0
 47119  1  0  0  0
 48 56  1  0  0  0
 48 65  1  0  0  0
 48120  1  0  0  0
 49 50  1  0  0  0
 49 53  1  0  0  0
 49 64  1  0  0  0
 49121  1  0  0  0
 50 51  1  0  0  0
 50122  1  0  0  0
 50123  1  0  0  0
 51 52  1  0  0  0
 51124  1  0  0  0
 51125  1  0  0  0
 52126  1  0  0  0
 52127  1  0  0  0
 53 54  1  0  0  0
 54 55  2  0  0  0
 54128  1  0  0  0
 55 57  1  0  0  0
 55129  1  0  0  0
 56 69  2  0  0  0
 57 58  2  0  0  0
 57130  1  0  0  0
 58131  1  0  0  0
 59 60  1  0  0  0
 59 61  1  0  0  0
 59 62  1  0  0  0
 60132  1  0  0  0
 60133  1  0  0  0
 60134  1  0  0  0
 61135  1  0  0  0
 61136  1  0  0  0
 61137  1  0  0  0
 62138  1  0  0  0
 62139  1  0  0  0
 62140  1  0  0  0
 63 65  1  0  0  0
 63141  1  0  0  0
 63142  1  0  0  0
 63143  1  0  0  0
 64144  1  0  0  0
 65145  1  0  0  0
 68 81  1  0  0  0
 71 72  2  0  0  0
 71 73  1  0  0  0
 71146  1  0  0  0
 72 82  1  0  0  0
 72 84  1  0  0  0
 73 83  2  0  0  0
 73 86  1  0  0  0
 74 82  2  0  0  0
 74 83  1  0  0  0
 74 79  1  0  0  0
 75 77  1  0  0  0
 75 80  1  0  0  0
 75147  1  0  0  0
 75148  1  0  0  0
 76 79  1  0  0  0
 76 81  1  0  0  0
 76149  1  0  0  0
 76150  1  0  0  0
 77 84  1  0  0  0
 77151  1  0  0  0
 77152  1  0  0  0
 78 80  1  0  0  0
 78 84  1  0  0  0
 78153  1  0  0  0
 78154  1  0  0  0
 79 81  1  0  0  0
 79155  1  0  0  0
 80 85  1  0  0  0
 80156  1  0  0  0
 81157  1  0  0  0
 85158  1  0  0  0
M  ISO  4   1 100  68 101  81 101  85 100
M  END
> <chiral flag>
0

> <version>
0

> <s_m_source_file>
/data/baiqing/PycharmProjects/Reinvent-master-3.2/result/LINK_invent/BTK/process_docking_weight1_custom_sum_contain_oxygen_bond_distance_aromatic_linkinvent_7_9_3/rearranged_h_0193.sdf

> <i_m_source_file_index>
52

> <r_mmod_Potential_Energy-OPLS-2005>
-415.421264648438

> <r_mmod_Stretch_Energy-OPLS-2005>
53.9620399475098

> <r_mmod_Bend_Energy-OPLS-2005>
214.383041381836

> <r_mmod_Torsional_Energy-OPLS-2005>
316.364837646484

> <r_mmod_Improper_Torsional_Energy-OPLS-2005>
9.50058746337891

> <r_mmod_Van_der_Waal_Energy-OPLS-2005>
148.489486694336

> <r_mmod_Electrostatic_Energy-OPLS-2005>
-944.534423828125

> <r_mmod_Solvation_Energy-OPLS-2005>
-246.337585449219

> <b_mmod_Minimization_Converged-OPLS-2005>
0

> <r_mmod_RMS_Derivative-OPLS-2005>
0.656523406505585

$$$$
52
                    3D
 Structure written by MMmdl.
156165  0  0  1  0            999 V2000
  -30.5996  -14.9004   20.4643 C   0  0  0  0  0  0
  -30.4362  -12.5689   19.4887 C   0  0  0  0  0  0
  -29.5139  -12.5320   18.2487 C   0  0  0  0  0  0
  -28.0461  -12.3229   18.6660 C   0  0  0  0  0  0
  -27.6330  -13.2407   19.8456 C   0  0  2  0  0  0
  -28.6826  -13.2242   20.9791 C   0  0  0  0  0  0
  -25.2420  -13.8179   20.5656 C   0  0  0  0  0  0
  -24.1759  -13.0409   20.9225 C   0  0  0  0  0  0
  -24.6391  -11.6904   20.8774 C   0  0  0  0  0  0
  -23.9079  -10.4277   21.0418 C   0  0  0  0  0  0
  -24.3626   -9.4191   21.9194 C   0  0  0  0  0  0
  -23.6295   -8.2231   22.0759 C   0  0  0  0  0  0
  -22.4277   -8.0275   21.3546 C   0  0  0  0  0  0
  -21.9919   -9.0251   20.4648 C   0  0  0  0  0  0
  -22.7253  -10.2126   20.3061 C   0  0  0  0  0  0
  -21.6851   -6.0733   22.5280 C   0  0  0  0  0  0
  -21.4013   -6.5639   23.8213 C   0  0  0  0  0  0
  -21.3659   -5.6792   24.9175 C   0  0  0  0  0  0
  -21.6044   -4.3055   24.7226 C   0  0  0  0  0  0
  -21.8819   -3.8145   23.4348 C   0  0  0  0  0  0
  -21.9192   -4.6961   22.3404 C   0  0  0  0  0  0
  -22.7780  -13.5183   21.1879 C   0  0  0  0  0  0
  -22.1661   -4.2146   21.0982 F   0  0  0  0  0  0
  -21.5629   -3.4539   25.7740 F   0  0  0  0  0  0
  -29.9561  -13.6618   20.3861 N   0  0  0  0  0  0
  -26.2890  -12.9425   20.3278 N   0  0  0  0  0  0
  -25.9328  -11.6560   20.5784 N   0  0  0  0  0  0
  -22.0438  -12.8178   22.0446 N   0  0  0  0  0  0
  -25.3949  -15.1895   20.3950 N   0  0  0  0  0  0
  -31.7909  -14.9225   20.1336 O   0  0  0  0  0  0
  -21.6637   -6.8876   21.4242 O   0  0  0  0  0  0
  -22.3459  -14.5487   20.6724 O   0  0  0  0  0  0
  -24.6426  -31.8476   23.1934 C   0  0  0  0  0  0
  -25.9209  -32.4714   23.8306 C   0  0  1  0  0  0
  -27.2106  -27.1562   20.1356 C   0  0  0  0  0  0
  -25.5966  -33.8519   24.2218 N   0  0  0  0  0  0
  -23.4444  -30.4717   21.5394 C   0  0  2  0  0  0
  -24.8926  -28.9124   20.1087 C   0  0  0  0  0  0
  -22.7565  -29.4568   22.4870 C   0  0  0  0  0  0
  -18.0305  -28.1395   22.8478 C   0  0  0  0  0  0
  -24.1493  -36.7260   23.2640 C   0  0  0  0  0  0
  -26.0023  -30.7261   21.3932 C   0  0  0  0  0  0
  -26.0722  -29.3422   20.7298 C   0  0  0  0  0  0
  -27.2324  -28.4796   20.7317 C   0  0  0  0  0  0
  -26.0033  -26.8400   19.4645 C   0  0  0  0  0  0
  -24.8705  -27.6731   19.4616 C   0  0  0  0  0  0
  -23.6694  -29.8113   20.1557 C   0  0  0  0  0  0
  -25.4123  -36.3043   24.0318 C   0  0  1  0  0  0
  -20.5918  -28.3721   23.1235 C   0  0  2  0  0  0
  -20.6792  -26.9427   22.5400 C   0  0  0  0  0  0
  -19.5762  -26.6383   21.5211 C   0  0  0  0  0  0
  -18.1945  -26.7933   22.1625 C   0  0  0  0  0  0
  -19.1562  -28.8876   23.2849 C   0  0  0  0  0  0
  -18.9478  -30.1473   23.8874 C   0  0  0  0  0  0
  -17.6474  -30.6591   24.0559 C   0  0  0  0  0  0
  -25.9074  -34.9416   23.5071 C   0  0  0  0  0  0
  -16.5365  -29.9084   23.6337 C   0  0  0  0  0  0
  -16.7290  -28.6503   23.0357 C   0  0  0  0  0  0
  -26.4531  -31.6571   25.0737 C   0  0  0  0  0  0
  -25.3716  -31.3755   26.1431 C   0  0  0  0  0  0
  -27.0397  -30.2967   24.6315 C   0  0  0  0  0  0
  -27.6061  -32.4335   25.7522 C   0  0  0  0  0  0
  -27.5578  -37.1788   24.8465 C   0  0  0  0  0  0
  -21.4259  -29.3054   22.3614 N   0  0  0  0  0  0
  -26.4288  -37.3753   23.9409 N   0  0  0  0  0  0
  -24.7162  -31.0350   22.0967 N   0  0  0  0  0  0
  -23.4218  -28.8102   23.3001 O   0  0  0  0  0  0
  -28.2404  -26.1458   20.2167 O   0  0  0  0  0  0
  -26.5650  -34.8906   22.4644 O   0  0  0  0  0  0
  -23.5547  -32.1348   23.7160 O   0  0  0  0  0  0
  -29.0709  -22.4781   19.0422 C   0  0  0  0  0  0
  -29.3523  -21.0624   19.1096 C   0  0  0  0  0  0
  -28.6142  -23.2470   20.1602 C   0  0  0  0  0  0
  -29.2069  -20.3011   20.3051 C   0  0  0  0  0  0
  -28.5708  -22.4211   21.3383 C   0  0  0  0  0  0
  -28.4583  -17.9733   21.5113 C   0  0  0  0  0  0
  -28.6955  -16.4268   21.3855 C   0  0  0  0  0  0
  -30.3696  -17.5705   20.2041 C   0  0  0  0  0  0
  -29.1680  -18.6509   20.3348 C   0  0  2  0  0  0
  -28.0717  -23.0145   22.6398 C   0  0  0  0  0  0
  -27.8290  -24.6789   19.9557 C   0  0  0  0  0  0
  -28.8630  -21.0553   21.4040 N   0  0  0  0  0  0
  -29.9097  -16.1462   20.5955 N   0  0  0  0  0  0
  -31.4694  -12.7134   19.1696 H   0  0  0  0  0  0
  -30.4260  -11.6089   20.0073 H   0  0  0  0  0  0
  -29.8259  -11.7399   17.5666 H   0  0  0  0  0  0
  -29.6073  -13.4677   17.6953 H   0  0  0  0  0  0
  -27.9328  -11.2779   18.9568 H   0  0  0  0  0  0
  -27.3826  -12.4756   17.8140 H   0  0  0  0  0  0
  -27.6065  -14.2480   19.4314 H   0  0  0  0  0  0
  -28.7732  -12.2229   21.4029 H   0  0  0  0  0  0
  -28.3813  -13.8579   21.8094 H   0  0  0  0  0  0
  -25.2769   -9.5665   22.4773 H   0  0  0  0  0  0
  -23.9999   -7.4620   22.7478 H   0  0  0  0  0  0
  -21.0851   -8.8776   19.8951 H   0  0  0  0  0  0
  -22.3717  -10.9670   19.6172 H   0  0  0  0  0  0
  -21.2006   -7.6148   23.9715 H   0  0  0  0  0  0
  -21.1480   -6.0523   25.9078 H   0  0  0  0  0  0
  -22.0599   -2.7607   23.2849 H   0  0  0  0  0  0
  -22.4067  -11.9847   22.4839 H   0  0  0  0  0  0
  -21.1053  -13.1193   22.2654 H   0  0  0  0  0  0
  -24.6154  -15.8304   20.4958 H   0  0  0  0  0  0
  -26.2270  -15.6332   20.0302 H   0  0  0  0  0  0
  -26.7274  -32.5325   23.1036 H   0  0  0  0  0  0
  -25.0102  -33.9642   25.0357 H   0  0  0  0  0  0
  -22.7458  -31.2977   21.3908 H   0  0  0  0  0  0
  -23.3761  -35.9586   23.3292 H   0  0  0  0  0  0
  -24.3578  -36.8901   22.2057 H   0  0  0  0  0  0
  -23.7241  -37.6452   23.6680 H   0  0  0  0  0  0
  -26.1602  -31.4841   20.6248 H   0  0  0  0  0  0
  -26.8721  -30.7707   22.0368 H   0  0  0  0  0  0
  -28.1264  -28.8010   21.2476 H   0  0  0  0  0  0
  -25.8726  -25.9052   18.9440 H   0  0  0  0  0  0
  -23.9725  -27.3409   18.9586 H   0  0  0  0  0  0
  -23.8055  -30.5907   19.4050 H   0  0  0  0  0  0
  -22.7841  -29.2550   19.8423 H   0  0  0  0  0  0
  -25.1310  -36.1874   25.0810 H   0  0  0  0  0  0
  -21.0009  -28.3309   24.1357 H   0  0  0  0  0  0
  -20.5691  -26.2334   23.3617 H   0  0  0  0  0  0
  -21.6657  -26.7438   22.1193 H   0  0  0  0  0  0
  -19.6923  -25.6288   21.1254 H   0  0  0  0  0  0
  -19.6695  -27.3181   20.6731 H   0  0  0  0  0  0
  -17.4212  -26.6676   21.4031 H   0  0  0  0  0  0
  -18.0346  -26.0082   22.9028 H   0  0  0  0  0  0
  -19.7953  -30.7297   24.2231 H   0  0  0  0  0  0
  -17.5026  -31.6269   24.5166 H   0  0  0  0  0  0
  -15.5364  -30.2977   23.7675 H   0  0  0  0  0  0
  -15.8691  -28.0813   22.7084 H   0  0  0  0  0  0
  -24.5905  -30.7093   25.7751 H   0  0  0  0  0  0
  -24.8895  -32.2934   26.4802 H   0  0  0  0  0  0
  -25.8001  -30.8965   27.0244 H   0  0  0  0  0  0
  -26.3017  -29.6691   24.1304 H   0  0  0  0  0  0
  -27.3991  -29.7263   25.4890 H   0  0  0  0  0  0
  -27.8935  -30.4203   23.9650 H   0  0  0  0  0  0
  -27.2654  -33.3653   26.2047 H   0  0  0  0  0  0
  -28.3900  -32.6867   25.0370 H   0  0  0  0  0  0
  -28.0699  -31.8495   26.5482 H   0  0  0  0  0  0
  -28.2585  -38.0095   24.7518 H   0  0  0  0  0  0
  -28.1084  -36.2624   24.6287 H   0  0  0  0  0  0
  -27.2294  -37.1428   25.8867 H   0  0  0  0  0  0
  -20.9465  -29.8779   21.6807 H   0  0  0  0  0  0
  -26.0157  -38.2821   24.1414 H   0  0  0  0  0  0
  -29.1059  -22.9529   18.0721 H   0  0  0  0  0  0
  -29.5973  -20.5421   18.1933 H   0  0  0  0  0  0
  -28.9008  -18.3310   22.4421 H   0  0  0  0  0  0
  -27.3976  -18.2247   21.5474 H   0  0  0  0  0  0
  -27.8472  -15.9813   20.8775 H   0  0  0  0  0  0
  -28.7632  -15.9788   22.3776 H   0  0  0  0  0  0
  -31.1849  -17.8518   20.8717 H   0  0  0  0  0  0
  -30.7777  -17.5720   19.1930 H   0  0  0  0  0  0
  -28.5372  -18.4380   19.4703 H   0  0  0  0  0  0
  -28.4374  -24.0341   22.7639 H   0  0  0  0  0  0
  -28.4102  -22.4336   23.4982 H   0  0  0  0  0  0
  -26.9821  -23.0373   22.6522 H   0  0  0  0  0  0
  -26.8896  -24.5299   20.4898 H   0  0  0  0  0  0
  -27.5703  -24.6505   18.8973 H   0  0  0  0  0  0
  1 25  1  0  0  0
  1 30  2  0  0  0
  1 83  1  0  0  0
  2  3  1  0  0  0
  2 25  1  0  0  0
  2 84  1  0  0  0
  2 85  1  0  0  0
  3  4  1  0  0  0
  3 86  1  0  0  0
  3 87  1  0  0  0
  4  5  1  0  0  0
  4 88  1  0  0  0
  4 89  1  0  0  0
  5  6  1  0  0  0
  5 26  1  0  0  0
  5 90  1  0  0  0
  6 25  1  0  0  0
  6 91  1  0  0  0
  6 92  1  0  0  0
  7  8  2  0  0  0
  7 26  1  0  0  0
  7 29  1  0  0  0
  8  9  1  0  0  0
  8 22  1  0  0  0
  9 10  1  0  0  0
  9 27  2  0  0  0
 10 11  2  0  0  0
 10 15  1  0  0  0
 11 12  1  0  0  0
 11 93  1  0  0  0
 12 13  2  0  0  0
 12 94  1  0  0  0
 13 14  1  0  0  0
 13 31  1  0  0  0
 14 15  2  0  0  0
 14 95  1  0  0  0
 15 96  1  0  0  0
 16 17  2  0  0  0
 16 21  1  0  0  0
 16 31  1  0  0  0
 17 18  1  0  0  0
 17 97  1  0  0  0
 18 19  2  0  0  0
 18 98  1  0  0  0
 19 20  1  0  0  0
 19 24  1  0  0  0
 20 21  2  0  0  0
 20 99  1  0  0  0
 21 23  1  0  0  0
 22 28  1  0  0  0
 22 32  2  0  0  0
 26 27  1  0  0  0
 28100  1  0  0  0
 28101  1  0  0  0
 29102  1  0  0  0
 29103  1  0  0  0
 33 34  1  0  0  0
 33 66  1  0  0  0
 33 70  2  0  0  0
 34 36  1  0  0  0
 34 59  1  0  0  0
 34104  1  0  0  0
 35 44  2  0  0  0
 35 45  1  0  0  0
 35 68  1  0  0  0
 36 56  1  0  0  0
 36105  1  0  0  0
 37 39  1  0  0  0
 37 47  1  0  0  0
 37 66  1  0  0  0
 37106  1  0  0  0
 38 43  2  0  0  0
 38 46  1  0  0  0
 38 47  1  0  0  0
 39 64  1  0  0  0
 39 67  2  0  0  0
 40 52  1  0  0  0
 40 53  2  0  0  0
 40 58  1  0  0  0
 41107  1  0  0  0
 41108  1  0  0  0
 41109  1  0  0  0
 41 48  1  0  0  0
 42 43  1  0  0  0
 42 66  1  0  0  0
 42110  1  0  0  0
 42111  1  0  0  0
 43 44  1  0  0  0
 44112  1  0  0  0
 45 46  2  0  0  0
 45113  1  0  0  0
 46114  1  0  0  0
 47115  1  0  0  0
 47116  1  0  0  0
 48 56  1  0  0  0
 48 65  1  0  0  0
 48117  1  0  0  0
 49 50  1  0  0  0
 49 53  1  0  0  0
 49 64  1  0  0  0
 49118  1  0  0  0
 50 51  1  0  0  0
 50119  1  0  0  0
 50120  1  0  0  0
 51 52  1  0  0  0
 51121  1  0  0  0
 51122  1  0  0  0
 52123  1  0  0  0
 52124  1  0  0  0
 53 54  1  0  0  0
 54 55  2  0  0  0
 54125  1  0  0  0
 55 57  1  0  0  0
 55126  1  0  0  0
 56 69  2  0  0  0
 57 58  2  0  0  0
 57127  1  0  0  0
 58128  1  0  0  0
 59 60  1  0  0  0
 59 61  1  0  0  0
 59 62  1  0  0  0
 60129  1  0  0  0
 60130  1  0  0  0
 60131  1  0  0  0
 61132  1  0  0  0
 61133  1  0  0  0
 61134  1  0  0  0
 62135  1  0  0  0
 62136  1  0  0  0
 62137  1  0  0  0
 63 65  1  0  0  0
 63138  1  0  0  0
 63139  1  0  0  0
 63140  1  0  0  0
 64141  1  0  0  0
 65142  1  0  0  0
 68 81  1  0  0  0
 71 72  2  0  0  0
 71 73  1  0  0  0
 71143  1  0  0  0
 72 74  1  0  0  0
 72144  1  0  0  0
 73 75  2  0  0  0
 73 81  1  0  0  0
 74 82  2  0  0  0
 74 79  1  0  0  0
 75 80  1  0  0  0
 75 82  1  0  0  0
 76 77  1  0  0  0
 76 79  1  0  0  0
 76145  1  0  0  0
 76146  1  0  0  0
 77 83  1  0  0  0
 77147  1  0  0  0
 77148  1  0  0  0
 78 79  1  0  0  0
 78 83  1  0  0  0
 78149  1  0  0  0
 78150  1  0  0  0
 79151  1  0  0  0
 80152  1  0  0  0
 80153  1  0  0  0
 80154  1  0  0  0
 81155  1  0  0  0
 81156  1  0  0  0
M  ISO  4   1 100  68 101  81 101  83 100
M  END
> <chiral flag>
0

> <version>
0

> <s_m_source_file>
/data/baiqing/PycharmProjects/Reinvent-master-3.2/result/LINK_invent/BTK/process_docking_weight1_custom_sum_contain_oxygen_bond_distance_aromatic_linkinvent_7_9_3/rearranged_h_0193.sdf

> <i_m_source_file_index>
53

> <r_mmod_Potential_Energy-OPLS-2005>
507.730987548828

> <r_mmod_Stretch_Energy-OPLS-2005>
202.679489135742

> <r_mmod_Bend_Energy-OPLS-2005>
291.161834716797

> <r_mmod_Torsional_Energy-OPLS-2005>
330.398193359375

> <r_mmod_Improper_Torsional_Energy-OPLS-2005>
14.0657825469971

> <r_mmod_Van_der_Waal_Energy-OPLS-2005>
140.283645629883

> <r_mmod_Electrostatic_Energy-OPLS-2005>
-419.833953857422

> <r_mmod_Solvation_Energy-OPLS-2005>
-217.278457641602

> <b_mmod_Minimization_Converged-OPLS-2005>
0

> <r_mmod_RMS_Derivative-OPLS-2005>
0.14482370018959

$$$$
53
                    3D
 Structure written by MMmdl.
171180  0  0  1  0            999 V2000
  -30.7470  -14.4100   20.6501 C   0  0  0  0  0  0
  -30.4195  -12.2934   19.4197 C   0  0  0  0  0  0
  -29.4918  -12.5043   18.2072 C   0  0  0  0  0  0
  -28.0109  -12.3811   18.6134 C   0  0  0  0  0  0
  -27.6651  -13.2081   19.8804 C   0  0  2  0  0  0
  -28.7012  -12.9703   21.0015 C   0  0  0  0  0  0
  -25.2562  -13.8179   20.5628 C   0  0  0  0  0  0
  -24.1838  -13.0443   20.9198 C   0  0  0  0  0  0
  -24.6399  -11.6925   20.8758 C   0  0  0  0  0  0
  -23.9050  -10.4303   21.0403 C   0  0  0  0  0  0
  -24.3614   -9.4222   21.9183 C   0  0  0  0  0  0
  -23.6303   -8.2250   22.0746 C   0  0  0  0  0  0
  -22.4280   -8.0283   21.3535 C   0  0  0  0  0  0
  -21.9932   -9.0248   20.4633 C   0  0  0  0  0  0
  -22.7244  -10.2132   20.3039 C   0  0  0  0  0  0
  -21.6869   -6.0728   22.5277 C   0  0  0  0  0  0
  -21.4018   -6.5631   23.8209 C   0  0  0  0  0  0
  -21.3655   -5.6781   24.9173 C   0  0  0  0  0  0
  -21.6044   -4.3038   24.7226 C   0  0  0  0  0  0
  -21.8831   -3.8133   23.4342 C   0  0  0  0  0  0
  -21.9202   -4.6952   22.3394 C   0  0  0  0  0  0
  -22.7867  -13.5226   21.1855 C   0  0  0  0  0  0
  -22.1667   -4.2137   21.0972 F   0  0  0  0  0  0
  -21.5629   -3.4522   25.7730 F   0  0  0  0  0  0
  -30.0446  -13.2597   20.4639 N   0  0  0  0  0  0
  -26.3032  -12.9380   20.3392 N   0  0  0  0  0  0
  -25.9321  -11.6526   20.5806 N   0  0  0  0  0  0
  -22.0485  -12.8196   22.0378 N   0  0  0  0  0  0
  -25.4162  -15.1888   20.3754 N   0  0  0  0  0  0
  -31.7799  -14.6771   20.0315 O   0  0  0  0  0  0
  -21.6658   -6.8868   21.4238 O   0  0  0  0  0  0
  -22.3598  -14.5552   20.6716 O   0  0  0  0  0  0
  -24.6085  -31.8688   23.2100 C   0  0  0  0  0  0
  -25.8994  -32.4825   23.8353 C   0  0  1  0  0  0
  -27.2297  -27.4381   20.0899 C   0  0  0  0  0  0
  -25.5900  -33.8613   24.2334 N   0  0  0  0  0  0
  -23.3949  -30.4915   21.5510 C   0  0  2  0  0  0
  -24.8405  -28.9584   20.1105 C   0  0  0  0  0  0
  -22.7380  -29.4630   22.4984 C   0  0  0  0  0  0
  -18.0275  -28.1389   22.8469 C   0  0  0  0  0  0
  -24.1487  -36.7217   23.2634 C   0  0  0  0  0  0
  -25.9195  -30.8319   21.3630 C   0  0  0  0  0  0
  -25.9969  -29.4653   20.7140 C   0  0  0  0  0  0
  -27.1908  -28.7040   20.7164 C   0  0  0  0  0  0
  -26.0522  -26.9439   19.4838 C   0  0  0  0  0  0
  -24.8597  -27.6938   19.4996 C   0  0  0  0  0  0
  -23.6015  -29.8224   20.1652 C   0  0  0  0  0  0
  -25.4112  -36.3088   24.0377 C   0  0  1  0  0  0
  -20.5860  -28.3621   23.1313 C   0  0  2  0  0  0
  -20.6771  -26.9359   22.5421 C   0  0  0  0  0  0
  -19.5789  -26.6390   21.5181 C   0  0  0  0  0  0
  -18.1944  -26.7936   22.1571 C   0  0  0  0  0  0
  -19.1524  -28.8825   23.2897 C   0  0  0  0  0  0
  -18.9472  -30.1434   23.8901 C   0  0  0  0  0  0
  -17.6486  -30.6613   24.0539 C   0  0  0  0  0  0
  -25.9034  -34.9473   23.5150 C   0  0  0  0  0  0
  -16.5364  -29.9115   23.6332 C   0  0  0  0  0  0
  -16.7259  -28.6525   23.0358 C   0  0  0  0  0  0
  -26.4499  -31.6580   25.0641 C   0  0  0  0  0  0
  -25.3783  -31.3631   26.1392 C   0  0  0  0  0  0
  -27.0349  -30.3049   24.5929 C   0  0  0  0  0  0
  -27.6077  -32.4285   25.7408 C   0  0  0  0  0  0
  -27.5590  -37.1769   24.8495 C   0  0  0  0  0  0
  -21.4113  -29.2991   22.3712 N   0  0  0  0  0  0
  -26.4278  -37.3799   23.9469 N   0  0  0  0  0  0
  -24.6594  -31.0780   22.1008 N   0  0  0  0  0  0
  -23.4170  -28.8158   23.3012 O   0  0  0  0  0  0
  -28.4066  -26.7129   20.1198 O   0  0  0  0  0  0
  -26.5564  -34.8932   22.4677 O   0  0  0  0  0  0
  -23.5289  -32.1412   23.7514 O   0  0  0  0  0  0
  -28.3660  -17.3924   21.0974 C   0  0  0  0  0  0
  -29.7364  -17.6670   21.2304 C   0  0  0  0  0  0
  -27.5688  -18.4248   20.6153 C   0  0  0  0  0  0
  -29.3919  -19.7882   20.4424 C   0  0  0  0  0  0
  -23.9168  -19.0309   19.7449 C   0  0  0  0  0  0
  -23.2326  -20.4003   19.8500 C   0  0  0  0  0  0
  -25.1265  -20.3682   21.3109 C   0  0  0  0  0  0
  -25.3420  -19.3875   20.1493 C   0  0  1  0  0  0
  -30.6887  -16.6240   21.8045 C   0  0  0  0  0  0
  -29.3268  -23.4824   19.8050 C   0  0  0  0  0  0
  -28.3871  -24.4281   19.0149 C   0  0  0  0  0  0
  -29.2024  -22.0210   19.2993 C   0  0  0  0  0  0
  -28.7527  -25.9325   18.9722 C   0  0  0  0  0  0
  -30.2465  -18.8775   20.8936 N   0  0  0  0  0  0
  -28.0880  -19.6187   20.2948 N   0  0  0  0  0  0
  -26.1927  -18.2421   20.4653 N   0  0  0  0  0  0
  -29.9050  -21.0321   20.1262 N   0  0  0  0  0  0
  -30.2422  -15.2504   21.5582 N   0  0  0  0  0  0
  -23.9127  -21.1223   20.9474 N   0  3  0  0  0  0
  -31.4641  -12.3918   19.1193 H   0  0  0  0  0  0
  -30.3195  -11.2788   19.8089 H   0  0  0  0  0  0
  -29.7242  -11.7737   17.4300 H   0  0  0  0  0  0
  -29.6742  -13.4866   17.7692 H   0  0  0  0  0  0
  -27.7972  -11.3259   18.7900 H   0  0  0  0  0  0
  -27.3688  -12.6829   17.7841 H   0  0  0  0  0  0
  -27.7186  -14.2607   19.6004 H   0  0  0  0  0  0
  -28.6658  -11.9344   21.3402 H   0  0  0  0  0  0
  -28.4472  -13.5637   21.8794 H   0  0  0  0  0  0
  -25.2765   -9.5712   22.4746 H   0  0  0  0  0  0
  -24.0022   -7.4648   22.7460 H   0  0  0  0  0  0
  -21.0869   -8.8755   19.8927 H   0  0  0  0  0  0
  -22.3714  -10.9655   19.6119 H   0  0  0  0  0  0
  -21.2014   -7.6143   23.9715 H   0  0  0  0  0  0
  -21.1450   -6.0501   25.9077 H   0  0  0  0  0  0
  -22.0609   -2.7597   23.2842 H   0  0  0  0  0  0
  -22.4079  -11.9817   22.4702 H   0  0  0  0  0  0
  -21.1079  -13.1191   22.2542 H   0  0  0  0  0  0
  -24.5430  -15.6744   20.1969 H   0  0  0  0  0  0
  -26.1500  -15.4751   19.7387 H   0  0  0  0  0  0
  -26.7015  -32.5565   23.1074 H   0  0  0  0  0  0
  -25.0266  -33.9766   25.0637 H   0  0  0  0  0  0
  -22.6828  -31.3083   21.4155 H   0  0  0  0  0  0
  -23.3834  -35.9464   23.3301 H   0  0  0  0  0  0
  -24.3605  -36.8789   22.2049 H   0  0  0  0  0  0
  -23.7124  -37.6383   23.6616 H   0  0  0  0  0  0
  -26.0256  -31.5958   20.5903 H   0  0  0  0  0  0
  -26.8094  -30.8879   21.9777 H   0  0  0  0  0  0
  -28.0776  -29.0828   21.2042 H   0  0  0  0  0  0
  -26.0246  -25.9743   19.0128 H   0  0  0  0  0  0
  -23.9634  -27.2958   19.0403 H   0  0  0  0  0  0
  -23.7022  -30.5983   19.4066 H   0  0  0  0  0  0
  -22.7244  -29.2387   19.8757 H   0  0  0  0  0  0
  -25.1285  -36.1940   25.0867 H   0  0  0  0  0  0
  -20.9940  -28.3185   24.1442 H   0  0  0  0  0  0
  -20.5675  -26.2197   23.3613 H   0  0  0  0  0  0
  -21.6639  -26.7477   22.1189 H   0  0  0  0  0  0
  -19.6971  -25.6302   21.1197 H   0  0  0  0  0  0
  -19.6775  -27.3196   20.6721 H   0  0  0  0  0  0
  -17.4234  -26.6674   21.3954 H   0  0  0  0  0  0
  -18.0359  -26.0093   22.8988 H   0  0  0  0  0  0
  -19.7966  -30.7226   24.2266 H   0  0  0  0  0  0
  -17.5078  -31.6292   24.5142 H   0  0  0  0  0  0
  -15.5366  -30.3040   23.7699 H   0  0  0  0  0  0
  -15.8649  -28.0867   22.7096 H   0  0  0  0  0  0
  -24.6050  -30.6871   25.7734 H   0  0  0  0  0  0
  -24.8865  -32.2746   26.4779 H   0  0  0  0  0  0
  -25.8171  -30.8894   27.0174 H   0  0  0  0  0  0
  -26.2849  -29.6761   24.1092 H   0  0  0  0  0  0
  -27.4335  -29.7314   25.4300 H   0  0  0  0  0  0
  -27.8590  -30.4467   23.8925 H   0  0  0  0  0  0
  -27.2760  -33.3654   26.1893 H   0  0  0  0  0  0
  -28.3947  -32.6687   25.0252 H   0  0  0  0  0  0
  -28.0651  -31.8430   26.5403 H   0  0  0  0  0  0
  -28.2587  -38.0095   24.7621 H   0  0  0  0  0  0
  -28.1115  -36.2630   24.6246 H   0  0  0  0  0  0
  -27.2313  -37.1287   25.8895 H   0  0  0  0  0  0
  -20.9258  -29.8660   21.6907 H   0  0  0  0  0  0
  -26.0175  -38.2862   24.1572 H   0  0  0  0  0  0
  -27.9400  -16.4413   21.3833 H   0  0  0  0  0  0
  -23.8549  -18.6063   18.7435 H   0  0  0  0  0  0
  -23.4656  -18.3252   20.4445 H   0  0  0  0  0  0
  -22.1553  -20.3272   20.0065 H   0  0  0  0  0  0
  -23.3942  -20.9561   18.9245 H   0  0  0  0  0  0
  -25.9787  -21.0292   21.4719 H   0  0  0  0  0  0
  -24.9353  -19.8336   22.2443 H   0  0  0  0  0  0
  -25.7894  -19.9338   19.3172 H   0  0  0  0  0  0
  -30.7327  -16.7681   22.8836 H   0  0  0  0  0  0
  -31.6980  -16.7894   21.4255 H   0  0  0  0  0  0
  -29.0755  -23.5380   20.8634 H   0  0  0  0  0  0
  -30.3640  -23.8093   19.7161 H   0  0  0  0  0  0
  -27.3661  -24.2772   19.3576 H   0  0  0  0  0  0
  -28.3943  -24.1023   17.9749 H   0  0  0  0  0  0
  -29.6118  -21.9522   18.2895 H   0  0  0  0  0  0
  -28.1455  -21.7733   19.2003 H   0  0  0  0  0  0
  -28.3109  -26.3817   18.0804 H   0  0  0  0  0  0
  -29.8290  -26.0334   18.8312 H   0  0  0  0  0  0
  -25.7807  -17.3531   20.7369 H   0  0  0  0  0  0
  -30.9173  -21.0899   20.1546 H   0  0  0  0  0  0
  -29.4141  -14.9570   22.0474 H   0  0  0  0  0  0
  -23.3119  -21.1970   21.7515 H   0  0  0  0  0  0
  -24.1529  -22.0523   20.6446 H   0  0  0  0  0  0
  1 25  1  0  0  0
  1 30  2  0  0  0
  1 88  1  0  0  0
  2  3  1  0  0  0
  2 25  1  0  0  0
  2 90  1  0  0  0
  2 91  1  0  0  0
  3  4  1  0  0  0
  3 92  1  0  0  0
  3 93  1  0  0  0
  4  5  1  0  0  0
  4 94  1  0  0  0
  4 95  1  0  0  0
  5  6  1  0  0  0
  5 26  1  0  0  0
  5 96  1  0  0  0
  6 25  1  0  0  0
  6 97  1  0  0  0
  6 98  1  0  0  0
  7  8  2  0  0  0
  7 26  1  0  0  0
  7 29  1  0  0  0
  8  9  1  0  0  0
  8 22  1  0  0  0
  9 10  1  0  0  0
  9 27  2  0  0  0
 10 11  2  0  0  0
 10 15  1  0  0  0
 11 12  1  0  0  0
 11 99  1  0  0  0
 12 13  2  0  0  0
 12100  1  0  0  0
 13 14  1  0  0  0
 13 31  1  0  0  0
 14 15  2  0  0  0
 14101  1  0  0  0
 15102  1  0  0  0
 16 17  2  0  0  0
 16 21  1  0  0  0
 16 31  1  0  0  0
 17 18  1  0  0  0
 17103  1  0  0  0
 18 19  2  0  0  0
 18104  1  0  0  0
 19 20  1  0  0  0
 19 24  1  0  0  0
 20 21  2  0  0  0
 20105  1  0  0  0
 21 23  1  0  0  0
 22 28  1  0  0  0
 22 32  2  0  0  0
 26 27  1  0  0  0
 28106  1  0  0  0
 28107  1  0  0  0
 29108  1  0  0  0
 29109  1  0  0  0
 33 34  1  0  0  0
 33 66  1  0  0  0
 33 70  2  0  0  0
 34 36  1  0  0  0
 34 59  1  0  0  0
 34110  1  0  0  0
 35 44  2  0  0  0
 35 45  1  0  0  0
 35 68  1  0  0  0
 36 56  1  0  0  0
 36111  1  0  0  0
 37 39  1  0  0  0
 37 47  1  0  0  0
 37 66  1  0  0  0
 37112  1  0  0  0
 38 43  2  0  0  0
 38 46  1  0  0  0
 38 47  1  0  0  0
 39 64  1  0  0  0
 39 67  2  0  0  0
 40 52  1  0  0  0
 40 53  2  0  0  0
 40 58  1  0  0  0
 41113  1  0  0  0
 41114  1  0  0  0
 41115  1  0  0  0
 41 48  1  0  0  0
 42 43  1  0  0  0
 42 66  1  0  0  0
 42116  1  0  0  0
 42117  1  0  0  0
 43 44  1  0  0  0
 44118  1  0  0  0
 45 46  2  0  0  0
 45119  1  0  0  0
 46120  1  0  0  0
 47121  1  0  0  0
 47122  1  0  0  0
 48 56  1  0  0  0
 48 65  1  0  0  0
 48123  1  0  0  0
 49 50  1  0  0  0
 49 53  1  0  0  0
 49 64  1  0  0  0
 49124  1  0  0  0
 50 51  1  0  0  0
 50125  1  0  0  0
 50126  1  0  0  0
 51 52  1  0  0  0
 51127  1  0  0  0
 51128  1  0  0  0
 52129  1  0  0  0
 52130  1  0  0  0
 53 54  1  0  0  0
 54 55  2  0  0  0
 54131  1  0  0  0
 55 57  1  0  0  0
 55132  1  0  0  0
 56 69  2  0  0  0
 57 58  2  0  0  0
 57133  1  0  0  0
 58134  1  0  0  0
 59 60  1  0  0  0
 59 61  1  0  0  0
 59 62  1  0  0  0
 60135  1  0  0  0
 60136  1  0  0  0
 60137  1  0  0  0
 61138  1  0  0  0
 61139  1  0  0  0
 61140  1  0  0  0
 62141  1  0  0  0
 62142  1  0  0  0
 62143  1  0  0  0
 63 65  1  0  0  0
 63144  1  0  0  0
 63145  1  0  0  0
 63146  1  0  0  0
 64147  1  0  0  0
 65148  1  0  0  0
 68 83  1  0  0  0
 71 72  2  0  0  0
 71 73  1  0  0  0
 71149  1  0  0  0
 72 79  1  0  0  0
 72 84  1  0  0  0
 73 85  2  0  0  0
 73 86  1  0  0  0
 74 84  2  0  0  0
 74 85  1  0  0  0
 74 87  1  0  0  0
 75 76  1  0  0  0
 75 78  1  0  0  0
 75150  1  0  0  0
 75151  1  0  0  0
 76 89  1  0  0  0
 76152  1  0  0  0
 76153  1  0  0  0
 77 78  1  0  0  0
 77 89  1  0  0  0
 77154  1  0  0  0
 77155  1  0  0  0
 78 86  1  0  0  0
 78156  1  0  0  0
 79 88  1  0  0  0
 79157  1  0  0  0
 79158  1  0  0  0
 80 81  1  0  0  0
 80 82  1  0  0  0
 80159  1  0  0  0
 80160  1  0  0  0
 81 83  1  0  0  0
 81161  1  0  0  0
 81162  1  0  0  0
 82 87  1  0  0  0
 82163  1  0  0  0
 82164  1  0  0  0
 83165  1  0  0  0
 83166  1  0  0  0
 86167  1  0  0  0
 87168  1  0  0  0
 88169  1  0  0  0
 89170  1  0  0  0
 89171  1  0  0  0
M  CHG  1  89   1
M  ISO  4   1 100  68 101  83 101  88 100
M  END
> <chiral flag>
0

> <version>
0

> <s_m_source_file>
/data/baiqing/PycharmProjects/Reinvent-master-3.2/result/LINK_invent/BTK/process_docking_weight1_custom_sum_contain_oxygen_bond_distance_aromatic_linkinvent_7_9_3/rearranged_h_0193.sdf

> <i_m_source_file_index>
54

> <r_mmod_Potential_Energy-OPLS-2005>
-1008.365234375

> <r_mmod_Stretch_Energy-OPLS-2005>
34.9625282287598

> <r_mmod_Bend_Energy-OPLS-2005>
140.452728271484

> <r_mmod_Torsional_Energy-OPLS-2005>
248.376831054688

> <r_mmod_Improper_Torsional_Energy-OPLS-2005>
8.27954292297363

> <r_mmod_Van_der_Waal_Energy-OPLS-2005>
165.064193725586

> <r_mmod_Electrostatic_Energy-OPLS-2005>
-1122.41247558594

> <r_mmod_Solvation_Energy-OPLS-2005>
-492.443023681641

> <b_mmod_Minimization_Converged-OPLS-2005>
0

> <r_mmod_RMS_Derivative-OPLS-2005>
4.42188405990601

$$$$
54
                    3D
 Structure written by MMmdl.
149158  0  0  1  0            999 V2000
  -30.4063  -15.3491   20.3680 C   0  0  0  0  0  0
  -30.4402  -12.8768   19.5113 C   0  0  0  0  0  0
  -29.5367  -12.5874   18.2852 C   0  0  0  0  0  0
  -28.0915  -12.2932   18.7240 C   0  0  0  0  0  0
  -27.6071  -13.2791   19.8146 C   0  0  2  0  0  0
  -28.6426  -13.4936   20.9384 C   0  0  0  0  0  0
  -25.2384  -13.8249   20.5762 C   0  0  0  0  0  0
  -24.1742  -13.0433   20.9272 C   0  0  0  0  0  0
  -24.6406  -11.6932   20.8771 C   0  0  0  0  0  0
  -23.9100  -10.4292   21.0412 C   0  0  0  0  0  0
  -24.3644   -9.4203   21.9189 C   0  0  0  0  0  0
  -23.6309   -8.2244   22.0757 C   0  0  0  0  0  0
  -22.4290   -8.0287   21.3547 C   0  0  0  0  0  0
  -21.9933   -9.0262   20.4647 C   0  0  0  0  0  0
  -22.7271  -10.2135   20.3056 C   0  0  0  0  0  0
  -21.6855   -6.0743   22.5281 C   0  0  0  0  0  0
  -21.4015   -6.5645   23.8215 C   0  0  0  0  0  0
  -21.3658   -5.6796   24.9177 C   0  0  0  0  0  0
  -21.6044   -4.3058   24.7226 C   0  0  0  0  0  0
  -21.8819   -3.8152   23.4346 C   0  0  0  0  0  0
  -21.9193   -4.6971   22.3403 C   0  0  0  0  0  0
  -22.7758  -13.5184   21.1915 C   0  0  0  0  0  0
  -22.1662   -4.2156   21.0981 F   0  0  0  0  0  0
  -21.5627   -3.4543   25.7739 F   0  0  0  0  0  0
  -29.8524  -14.0317   20.2912 N   0  0  0  0  0  0
  -26.2810  -12.9528   20.3213 N   0  0  0  0  0  0
  -25.9342  -11.6630   20.5717 N   0  0  0  0  0  0
  -22.0416  -12.8161   22.0463 N   0  0  0  0  0  0
  -25.4004  -15.1987   20.4199 N   0  0  0  0  0  0
  -31.6400  -15.3347   20.2408 O   0  0  0  0  0  0
  -21.6646   -6.8888   21.4245 O   0  0  0  0  0  0
  -22.3437  -14.5484   20.6752 O   0  0  0  0  0  0
  -24.6682  -31.8191   23.1663 C   0  0  0  0  0  0
  -25.9339  -32.4569   23.8146 C   0  0  1  0  0  0
  -27.2184  -26.8759   20.2021 C   0  0  0  0  0  0
  -25.5989  -33.8384   24.2055 N   0  0  0  0  0  0
  -23.4849  -30.4288   21.5170 C   0  0  2  0  0  0
  -24.9380  -28.8019   20.1214 C   0  0  0  0  0  0
  -22.7689  -29.4424   22.4771 C   0  0  0  0  0  0
  -18.0326  -28.1419   22.8468 C   0  0  0  0  0  0
  -24.1489  -36.7192   23.2648 C   0  0  0  0  0  0
  -26.0571  -30.6105   21.4025 C   0  0  0  0  0  0
  -26.1257  -29.1923   20.7535 C   0  0  0  0  0  0
  -27.2620  -28.2549   20.7614 C   0  0  0  0  0  0
  -25.9986  -26.6486   19.5249 C   0  0  0  0  0  0
  -24.9025  -27.5506   19.4858 C   0  0  0  0  0  0
  -23.7283  -29.7384   20.1470 C   0  0  0  0  0  0
  -25.4135  -36.2953   24.0295 C   0  0  1  0  0  0
  -20.5953  -28.3767   23.1183 C   0  0  2  0  0  0
  -20.6802  -26.9444   22.5408 C   0  0  0  0  0  0
  -19.5774  -26.6385   21.5221 C   0  0  0  0  0  0
  -18.1956  -26.7952   22.1627 C   0  0  0  0  0  0
  -19.1588  -28.8914   23.2812 C   0  0  0  0  0  0
  -18.9497  -30.1502   23.8850 C   0  0  0  0  0  0
  -17.6490  -30.6608   24.0555 C   0  0  0  0  0  0
  -25.9105  -34.9339   23.4998 C   0  0  0  0  0  0
  -16.5379  -29.9094   23.6349 C   0  0  0  0  0  0
  -16.7306  -28.6515   23.0370 C   0  0  0  0  0  0
  -26.4575  -31.6526   25.0689 C   0  0  0  0  0  0
  -25.3690  -31.3792   26.1336 C   0  0  0  0  0  0
  -27.0482  -30.2891   24.6449 C   0  0  0  0  0  0
  -27.6055  -32.4345   25.7504 C   0  0  0  0  0  0
  -27.5565  -37.1760   24.8469 C   0  0  0  0  0  0
  -21.4352  -29.3047   22.3520 N   0  0  0  0  0  0
  -26.4276  -37.3696   23.9406 N   0  0  0  0  0  0
  -24.7587  -30.9814   22.0820 N   0  0  0  0  0  0
  -23.4214  -28.8002   23.3038 O   0  0  0  0  0  0
  -28.2214  -25.7531   20.1967 O   0  0  0  0  0  0
  -26.5718  -34.8884   22.4596 O   0  0  0  0  0  0
  -23.5742  -32.1177   23.6732 O   0  0  0  0  0  0
  -29.9080  -19.2156   17.8137 C   0  0  0  0  0  0
  -29.6301  -21.1298   16.8159 C   0  0  0  0  0  0
  -29.3102  -21.3799   18.1357 C   0  0  0  0  0  0
  -28.8715  -21.1773   20.7371 C   0  0  0  0  0  0
  -29.2950  -19.8697   20.1137 C   0  0  0  0  0  0
  -28.6668  -22.5807   20.0494 C   0  0  0  0  0  0
  -29.8278  -18.2861   20.7274 C   0  0  0  0  0  0
  -27.9840  -24.1378   20.5723 C   0  0  0  0  0  0
  -29.9980  -19.8039   16.6189 N   0  0  0  0  0  0
  -28.9206  -22.5417   18.7431 N   0  0  0  0  0  0
  -29.4921  -20.0990   18.7772 N   0  0  0  0  0  0
  -29.6321  -16.6355   20.3895 N   0  0  0  0  0  0
  -29.5817  -22.3182   15.5988 Cl  0  0  0  0  0  0
  -31.4484  -13.1079   19.1652 H   0  0  0  0  0  0
  -30.5419  -11.9901   20.1394 H   0  0  0  0  0  0
  -29.9328  -11.7504   17.7087 H   0  0  0  0  0  0
  -29.5453  -13.4511   17.6184 H   0  0  0  0  0  0
  -28.0679  -11.2761   19.1168 H   0  0  0  0  0  0
  -27.4186  -12.3062   17.8658 H   0  0  0  0  0  0
  -27.5063  -14.2337   19.2967 H   0  0  0  0  0  0
  -28.8410  -12.5719   21.4874 H   0  0  0  0  0  0
  -28.2683  -14.2153   21.6664 H   0  0  0  0  0  0
  -25.2786   -9.5678   22.4769 H   0  0  0  0  0  0
  -24.0015   -7.4634   22.7476 H   0  0  0  0  0  0
  -21.0865   -8.8787   19.8950 H   0  0  0  0  0  0
  -22.3734  -10.9679   19.6168 H   0  0  0  0  0  0
  -21.2006   -7.6154   23.9719 H   0  0  0  0  0  0
  -21.1479   -6.0527   25.9079 H   0  0  0  0  0  0
  -22.0597   -2.7615   23.2844 H   0  0  0  0  0  0
  -22.4052  -11.9830   22.4850 H   0  0  0  0  0  0
  -21.1027  -13.1165   22.2669 H   0  0  0  0  0  0
  -24.6273  -15.8456   20.5333 H   0  0  0  0  0  0
  -26.2365  -15.6422   20.0645 H   0  0  0  0  0  0
  -26.7411  -32.5097   23.0861 H   0  0  0  0  0  0
  -25.0086  -33.9447   25.0173 H   0  0  0  0  0  0
  -22.8011  -31.2617   21.3416 H   0  0  0  0  0  0
  -23.3765  -35.9509   23.3287 H   0  0  0  0  0  0
  -24.3561  -36.8864   22.2067 H   0  0  0  0  0  0
  -23.7234  -37.6369   23.6721 H   0  0  0  0  0  0
  -26.2400  -31.3460   20.6177 H   0  0  0  0  0  0
  -26.9161  -30.6740   22.0584 H   0  0  0  0  0  0
  -28.1669  -28.5614   21.2674 H   0  0  0  0  0  0
  -25.8685  -25.6972   19.0288 H   0  0  0  0  0  0
  -24.0025  -27.2454   18.9694 H   0  0  0  0  0  0
  -23.8915  -30.5028   19.3865 H   0  0  0  0  0  0
  -22.8361  -29.1971   19.8273 H   0  0  0  0  0  0
  -25.1340  -36.1743   25.0788 H   0  0  0  0  0  0
  -21.0043  -28.3379   24.1307 H   0  0  0  0  0  0
  -20.5682  -26.2388   23.3655 H   0  0  0  0  0  0
  -21.6664  -26.7418   22.1214 H   0  0  0  0  0  0
  -19.6929  -25.6283   21.1286 H   0  0  0  0  0  0
  -19.6711  -27.3165   20.6725 H   0  0  0  0  0  0
  -17.4226  -26.6696   21.4028 H   0  0  0  0  0  0
  -18.0343  -26.0110   22.9038 H   0  0  0  0  0  0
  -19.7969  -30.7332   24.2200 H   0  0  0  0  0  0
  -17.5040  -31.6281   24.5168 H   0  0  0  0  0  0
  -15.5377  -30.2982   23.7701 H   0  0  0  0  0  0
  -15.8705  -28.0814   22.7120 H   0  0  0  0  0  0
  -24.5887  -30.7123   25.7652 H   0  0  0  0  0  0
  -24.8860  -32.2997   26.4622 H   0  0  0  0  0  0
  -25.7912  -30.9054   27.0206 H   0  0  0  0  0  0
  -26.3160  -29.6558   24.1428 H   0  0  0  0  0  0
  -27.3973  -29.7271   25.5122 H   0  0  0  0  0  0
  -27.9118  -30.4070   23.9901 H   0  0  0  0  0  0
  -27.2613  -33.3691   26.1949 H   0  0  0  0  0  0
  -28.3943  -32.6837   25.0391 H   0  0  0  0  0  0
  -28.0640  -31.8559   26.5532 H   0  0  0  0  0  0
  -28.2578  -38.0059   24.7505 H   0  0  0  0  0  0
  -28.1065  -36.2587   24.6315 H   0  0  0  0  0  0
  -27.2280  -37.1429   25.8872 H   0  0  0  0  0  0
  -20.9620  -29.8721   21.6624 H   0  0  0  0  0  0
  -26.0120  -38.2754   24.1408 H   0  0  0  0  0  0
  -30.1324  -18.1732   17.9933 H   0  0  0  0  0  0
  -28.6871  -21.1524   21.8086 H   0  0  0  0  0  0
  -29.5681  -18.3436   21.7843 H   0  0  0  0  0  0
  -30.9128  -18.3937   20.7297 H   0  0  0  0  0  0
  -28.1060  -24.1126   21.6551 H   0  0  0  0  0  0
  -26.9130  -23.9916   20.4332 H   0  0  0  0  0  0
  -28.6481  -16.4202   20.3303 H   0  0  0  0  0  0
  1 25  1  0  0  0
  1 30  2  0  0  0
  1 82  1  0  0  0
  2  3  1  0  0  0
  2 25  1  0  0  0
  2 84  1  0  0  0
  2 85  1  0  0  0
  3  4  1  0  0  0
  3 86  1  0  0  0
  3 87  1  0  0  0
  4  5  1  0  0  0
  4 88  1  0  0  0
  4 89  1  0  0  0
  5  6  1  0  0  0
  5 26  1  0  0  0
  5 90  1  0  0  0
  6 25  1  0  0  0
  6 91  1  0  0  0
  6 92  1  0  0  0
  7  8  2  0  0  0
  7 26  1  0  0  0
  7 29  1  0  0  0
  8  9  1  0  0  0
  8 22  1  0  0  0
  9 10  1  0  0  0
  9 27  2  0  0  0
 10 11  2  0  0  0
 10 15  1  0  0  0
 11 12  1  0  0  0
 11 93  1  0  0  0
 12 13  2  0  0  0
 12 94  1  0  0  0
 13 14  1  0  0  0
 13 31  1  0  0  0
 14 15  2  0  0  0
 14 95  1  0  0  0
 15 96  1  0  0  0
 16 17  2  0  0  0
 16 21  1  0  0  0
 16 31  1  0  0  0
 17 18  1  0  0  0
 17 97  1  0  0  0
 18 19  2  0  0  0
 18 98  1  0  0  0
 19 20  1  0  0  0
 19 24  1  0  0  0
 20 21  2  0  0  0
 20 99  1  0  0  0
 21 23  1  0  0  0
 22 28  1  0  0  0
 22 32  2  0  0  0
 26 27  1  0  0  0
 28100  1  0  0  0
 28101  1  0  0  0
 29102  1  0  0  0
 29103  1  0  0  0
 33 34  1  0  0  0
 33 66  1  0  0  0
 33 70  2  0  0  0
 34 36  1  0  0  0
 34 59  1  0  0  0
 34104  1  0  0  0
 35 44  2  0  0  0
 35 45  1  0  0  0
 35 68  1  0  0  0
 36 56  1  0  0  0
 36105  1  0  0  0
 37 39  1  0  0  0
 37 47  1  0  0  0
 37 66  1  0  0  0
 37106  1  0  0  0
 38 43  2  0  0  0
 38 46  1  0  0  0
 38 47  1  0  0  0
 39 64  1  0  0  0
 39 67  2  0  0  0
 40 52  1  0  0  0
 40 53  2  0  0  0
 40 58  1  0  0  0
 41107  1  0  0  0
 41108  1  0  0  0
 41109  1  0  0  0
 41 48  1  0  0  0
 42 43  1  0  0  0
 42 66  1  0  0  0
 42110  1  0  0  0
 42111  1  0  0  0
 43 44  1  0  0  0
 44112  1  0  0  0
 45 46  2  0  0  0
 45113  1  0  0  0
 46114  1  0  0  0
 47115  1  0  0  0
 47116  1  0  0  0
 48 56  1  0  0  0
 48 65  1  0  0  0
 48117  1  0  0  0
 49 50  1  0  0  0
 49 53  1  0  0  0
 49 64  1  0  0  0
 49118  1  0  0  0
 50 51  1  0  0  0
 50119  1  0  0  0
 50120  1  0  0  0
 51 52  1  0  0  0
 51121  1  0  0  0
 51122  1  0  0  0
 52123  1  0  0  0
 52124  1  0  0  0
 53 54  1  0  0  0
 54 55  2  0  0  0
 54125  1  0  0  0
 55 57  1  0  0  0
 55126  1  0  0  0
 56 69  2  0  0  0
 57 58  2  0  0  0
 57127  1  0  0  0
 58128  1  0  0  0
 59 60  1  0  0  0
 59 61  1  0  0  0
 59 62  1  0  0  0
 60129  1  0  0  0
 60130  1  0  0  0
 60131  1  0  0  0
 61132  1  0  0  0
 61133  1  0  0  0
 61134  1  0  0  0
 62135  1  0  0  0
 62136  1  0  0  0
 62137  1  0  0  0
 63 65  1  0  0  0
 63138  1  0  0  0
 63139  1  0  0  0
 63140  1  0  0  0
 64141  1  0  0  0
 65142  1  0  0  0
 68 78  1  0  0  0
 71 79  2  0  0  0
 71 81  1  0  0  0
 71143  1  0  0  0
 72 73  2  0  0  0
 72 79  1  0  0  0
 72 83  1  0  0  0
 73 80  1  0  0  0
 73 81  1  0  0  0
 74 75  2  0  0  0
 74 76  1  0  0  0
 74144  1  0  0  0
 75 77  1  0  0  0
 75 81  1  0  0  0
 76 78  1  0  0  0
 76 80  2  0  0  0
 77 82  1  0  0  0
 77145  1  0  0  0
 77146  1  0  0  0
 78147  1  0  0  0
 78148  1  0  0  0
 82149  1  0  0  0
M  ISO  4   1 100  68 101  78 101  82 100
M  END
> <chiral flag>
0

> <version>
0

> <s_m_source_file>
/data/baiqing/PycharmProjects/Reinvent-master-3.2/result/LINK_invent/BTK/process_docking_weight1_custom_sum_contain_oxygen_bond_distance_aromatic_linkinvent_7_9_3/rearranged_h_0193.sdf

> <i_m_source_file_index>
55

> <r_mmod_Potential_Energy-OPLS-2005>
1376.13403320312

> <r_mmod_Stretch_Energy-OPLS-2005>
657.073913574219

> <r_mmod_Bend_Energy-OPLS-2005>
467.157531738281

> <r_mmod_Torsional_Energy-OPLS-2005>
232.753494262695

> <r_mmod_Improper_Torsional_Energy-OPLS-2005>
5.82788705825806

> <r_mmod_Van_der_Waal_Energy-OPLS-2005>
122.283081054688

> <r_mmod_Electrostatic_Energy-OPLS-2005>
-398.447814941406

> <r_mmod_Solvation_Energy-OPLS-2005>
-254.504821777344

> <b_mmod_Minimization_Converged-OPLS-2005>
0

> <r_mmod_RMS_Derivative-OPLS-2005>
0.621157348155975

$$$$
55
                    3D
 Structure written by MMmdl.
162172  0  0  1  0            999 V2000
  -30.5515  -14.9563   20.4330 C   0  0  0  0  0  0
  -30.4309  -12.5923   19.5105 C   0  0  0  0  0  0
  -29.5193  -12.5282   18.2632 C   0  0  0  0  0  0
  -28.0498  -12.3214   18.6773 C   0  0  0  0  0  0
  -27.6273  -13.2476   19.8480 C   0  0  2  0  0  0
  -28.6710  -13.2602   20.9856 C   0  0  0  0  0  0
  -25.2422  -13.8191   20.5739 C   0  0  0  0  0  0
  -24.1747  -13.0411   20.9253 C   0  0  0  0  0  0
  -24.6364  -11.6898   20.8760 C   0  0  0  0  0  0
  -23.9046  -10.4263   21.0404 C   0  0  0  0  0  0
  -24.3600   -9.4184   21.9180 C   0  0  0  0  0  0
  -23.6289   -8.2214   22.0751 C   0  0  0  0  0  0
  -22.4266   -8.0254   21.3549 C   0  0  0  0  0  0
  -21.9902   -9.0219   20.4644 C   0  0  0  0  0  0
  -22.7223  -10.2099   20.3050 C   0  0  0  0  0  0
  -21.6850   -6.0729   22.5271 C   0  0  0  0  0  0
  -21.4008   -6.5634   23.8205 C   0  0  0  0  0  0
  -21.3660   -5.6789   24.9165 C   0  0  0  0  0  0
  -21.6045   -4.3054   24.7221 C   0  0  0  0  0  0
  -21.8817   -3.8142   23.4341 C   0  0  0  0  0  0
  -21.9183   -4.6955   22.3392 C   0  0  0  0  0  0
  -22.7759  -13.5182   21.1877 C   0  0  0  0  0  0
  -22.1655   -4.2133   21.0978 F   0  0  0  0  0  0
  -21.5638   -3.4542   25.7741 F   0  0  0  0  0  0
  -29.9338  -13.7023   20.3808 N   0  0  0  0  0  0
  -26.2859  -12.9434   20.3297 N   0  0  0  0  0  0
  -25.9297  -11.6555   20.5760 N   0  0  0  0  0  0
  -22.0417  -12.8164   22.0434 N   0  0  0  0  0  0
  -25.4049  -15.1920   20.4218 N   0  0  0  0  0  0
  -31.7486  -14.9730   20.1174 O   0  0  0  0  0  0
  -21.6633   -6.8857   21.4232 O   0  0  0  0  0  0
  -22.3435  -14.5488   20.6720 O   0  0  0  0  0  0
  -24.6412  -31.8450   23.1866 C   0  0  0  0  0  0
  -25.9194  -32.4690   23.8255 C   0  0  1  0  0  0
  -27.2168  -27.1305   20.1665 C   0  0  0  0  0  0
  -25.5953  -33.8493   24.2187 N   0  0  0  0  0  0
  -23.4446  -30.4631   21.5299 C   0  0  2  0  0  0
  -24.8907  -28.8801   20.1128 C   0  0  0  0  0  0
  -22.7556  -29.4575   22.4854 C   0  0  0  0  0  0
  -18.0316  -28.1404   22.8489 C   0  0  0  0  0  0
  -24.1486  -36.7251   23.2647 C   0  0  0  0  0  0
  -25.9964  -30.7178   21.3823 C   0  0  0  0  0  0
  -26.0640  -29.3237   20.7377 C   0  0  0  0  0  0
  -27.2202  -28.4622   20.7508 C   0  0  0  0  0  0
  -26.0246  -26.7943   19.4863 C   0  0  0  0  0  0
  -24.8838  -27.6290   19.4735 C   0  0  0  0  0  0
  -23.6695  -29.7844   20.1502 C   0  0  0  0  0  0
  -25.4117  -36.3032   24.0320 C   0  0  1  0  0  0
  -20.5933  -28.3737   23.1247 C   0  0  2  0  0  0
  -20.6792  -26.9437   22.5407 C   0  0  0  0  0  0
  -19.5761  -26.6402   21.5218 C   0  0  0  0  0  0
  -18.1944  -26.7945   22.1623 C   0  0  0  0  0  0
  -19.1571  -28.8886   23.2863 C   0  0  0  0  0  0
  -18.9483  -30.1479   23.8894 C   0  0  0  0  0  0
  -17.6473  -30.6585   24.0569 C   0  0  0  0  0  0
  -25.9072  -34.9409   23.5068 C   0  0  0  0  0  0
  -16.5369  -29.9084   23.6338 C   0  0  0  0  0  0
  -16.7296  -28.6508   23.0355 C   0  0  0  0  0  0
  -26.4518  -31.6558   25.0691 C   0  0  0  0  0  0
  -25.3706  -31.3732   26.1388 C   0  0  0  0  0  0
  -27.0385  -30.2968   24.6244 C   0  0  0  0  0  0
  -27.6060  -32.4317   25.7471 C   0  0  0  0  0  0
  -27.5563  -37.1789   24.8460 C   0  0  0  0  0  0
  -21.4253  -29.3057   22.3614 N   0  0  0  0  0  0
  -26.4272  -37.3744   23.9407 N   0  0  0  0  0  0
  -24.7141  -31.0320   22.0880 N   0  0  0  0  0  0
  -23.4212  -28.8140   23.3008 O   0  0  0  0  0  0
  -28.3366  -26.2210   20.2104 O   0  0  0  0  0  0
  -26.5651  -34.8910   22.4642 O   0  0  0  0  0  0
  -23.5543  -32.1327   23.7110 O   0  0  0  0  0  0
  -29.6450  -22.8105   20.7356 C   0  0  0  0  0  0
  -28.7719  -21.8702   20.1044 C   0  0  0  0  0  0
  -27.6225  -22.6022   19.6261 C   0  0  0  0  0  0
  -28.3500  -24.7775   20.2892 C   0  0  0  0  0  0
  -26.7440  -21.5757   17.4013 C   0  0  0  0  0  0
  -25.7039  -22.5919   17.7916 C   0  0  0  0  0  0
  -28.3510  -18.1290   21.1900 C   0  0  0  0  0  0
  -28.7485  -16.6082   21.3985 C   0  0  0  0  0  0
  -30.1905  -17.5711   19.8573 C   0  0  0  0  0  0
  -26.5313  -21.9052   18.8652 C   0  0  0  0  0  0
  -29.5132  -18.9077   20.5422 C   0  0  1  0  0  0
  -30.2682  -20.4792   18.5990 C   0  0  0  0  0  0
  -29.1547  -20.3111   19.6517 C   0  0  2  0  0  0
  -29.4506  -24.1839   20.8018 N   0  0  0  0  0  0
  -27.4272  -23.9771   19.7317 N   0  0  0  0  0  0
  -29.8296  -16.2032   20.4779 N   0  0  0  0  0  0
  -31.4709  -12.7279   19.2070 H   0  0  0  0  0  0
  -30.4106  -11.6424   20.0486 H   0  0  0  0  0  0
  -29.8417  -11.7233   17.6006 H   0  0  0  0  0  0
  -29.6082  -13.4538   17.6935 H   0  0  0  0  0  0
  -27.9402  -11.2797   18.9798 H   0  0  0  0  0  0
  -27.3879  -12.4599   17.8225 H   0  0  0  0  0  0
  -27.5961  -14.2533   19.4276 H   0  0  0  0  0  0
  -28.7695  -12.2715   21.4364 H   0  0  0  0  0  0
  -28.3736  -13.9175   21.8007 H   0  0  0  0  0  0
  -25.2737   -9.5678   22.4767 H   0  0  0  0  0  0
  -24.0006   -7.4607   22.7469 H   0  0  0  0  0  0
  -21.0834   -8.8724   19.8964 H   0  0  0  0  0  0
  -22.3662  -10.9639   19.6167 H   0  0  0  0  0  0
  -21.2005   -7.6144   23.9714 H   0  0  0  0  0  0
  -21.1499   -6.0517   25.9075 H   0  0  0  0  0  0
  -22.0603   -2.7609   23.2838 H   0  0  0  0  0  0
  -22.4062  -11.9821   22.4799 H   0  0  0  0  0  0
  -21.1041  -13.1173   22.2678 H   0  0  0  0  0  0
  -24.6469  -15.8447   20.5861 H   0  0  0  0  0  0
  -26.2594  -15.6435   20.1217 H   0  0  0  0  0  0
  -26.7260  -32.5301   23.0991 H   0  0  0  0  0  0
  -25.0078  -33.9604   25.0314 H   0  0  0  0  0  0
  -22.7480  -31.2895   21.3738 H   0  0  0  0  0  0
  -23.3747  -35.9574   23.3279 H   0  0  0  0  0  0
  -24.3596  -36.8897   22.2068 H   0  0  0  0  0  0
  -23.7221  -37.6436   23.6694 H   0  0  0  0  0  0
  -26.1476  -31.4648   20.6019 H   0  0  0  0  0  0
  -26.8705  -30.7794   22.0199 H   0  0  0  0  0  0
  -28.1161  -28.8037   21.2507 H   0  0  0  0  0  0
  -25.9476  -25.8499   18.9687 H   0  0  0  0  0  0
  -23.9895  -27.2922   18.9651 H   0  0  0  0  0  0
  -23.8084  -30.5543   19.3898 H   0  0  0  0  0  0
  -22.7830  -29.2265   19.8421 H   0  0  0  0  0  0
  -25.1300  -36.1854   25.0806 H   0  0  0  0  0  0
  -21.0047  -28.3303   24.1358 H   0  0  0  0  0  0
  -20.5706  -26.2330   23.3622 H   0  0  0  0  0  0
  -21.6647  -26.7441   22.1203 H   0  0  0  0  0  0
  -19.6908  -25.6311   21.1246 H   0  0  0  0  0  0
  -19.6686  -27.3212   20.6748 H   0  0  0  0  0  0
  -17.4223  -26.6724   21.4018 H   0  0  0  0  0  0
  -18.0324  -26.0081   22.9025 H   0  0  0  0  0  0
  -19.7955  -30.7306   24.2254 H   0  0  0  0  0  0
  -17.5021  -31.6264   24.5176 H   0  0  0  0  0  0
  -15.5365  -30.2974   23.7665 H   0  0  0  0  0  0
  -15.8707  -28.0822   22.7057 H   0  0  0  0  0  0
  -24.5900  -30.7060   25.7701 H   0  0  0  0  0  0
  -24.8867  -32.2905   26.4753 H   0  0  0  0  0  0
  -25.7991  -30.8946   27.0202 H   0  0  0  0  0  0
  -26.2989  -29.6690   24.1259 H   0  0  0  0  0  0
  -27.4032  -29.7261   25.4788 H   0  0  0  0  0  0
  -27.8877  -30.4219   23.9524 H   0  0  0  0  0  0
  -27.2672  -33.3659   26.1956 H   0  0  0  0  0  0
  -28.3910  -32.6795   25.0318 H   0  0  0  0  0  0
  -28.0673  -31.8487   26.5451 H   0  0  0  0  0  0
  -28.2570  -38.0101   24.7529 H   0  0  0  0  0  0
  -28.1076  -36.2636   24.6259 H   0  0  0  0  0  0
  -27.2308  -37.1400   25.8872 H   0  0  0  0  0  0
  -20.9466  -29.8747   21.6771 H   0  0  0  0  0  0
  -26.0134  -38.2802   24.1417 H   0  0  0  0  0  0
  -30.5912  -22.4672   21.1271 H   0  0  0  0  0  0
  -27.6506  -21.9501   16.9286 H   0  0  0  0  0  0
  -26.3959  -20.6096   17.0444 H   0  0  0  0  0  0
  -24.6597  -22.2972   17.7062 H   0  0  0  0  0  0
  -25.9117  -23.6361   17.5551 H   0  0  0  0  0  0
  -28.0427  -18.5898   22.1303 H   0  0  0  0  0  0
  -27.4866  -18.1751   20.5267 H   0  0  0  0  0  0
  -27.8687  -15.9840   21.2580 H   0  0  0  0  0  0
  -29.0938  -16.4493   22.4206 H   0  0  0  0  0  0
  -31.2737  -17.6832   19.8088 H   0  0  0  0  0  0
  -29.8472  -17.5051   18.8241 H   0  0  0  0  0  0
  -26.0361  -21.1596   19.4868 H   0  0  0  0  0  0
  -30.1995  -19.2086   21.3357 H   0  0  0  0  0  0
  -29.9953  -21.2264   17.8513 H   0  0  0  0  0  0
  -30.4650  -19.5616   18.0483 H   0  0  0  0  0  0
  -31.2069  -20.7944   19.0554 H   0  0  0  0  0  0
  -28.2890  -19.9939   19.0711 H   0  0  0  0  0  0
  1 25  1  0  0  0
  1 30  2  0  0  0
  1 86  1  0  0  0
  2  3  1  0  0  0
  2 25  1  0  0  0
  2 87  1  0  0  0
  2 88  1  0  0  0
  3  4  1  0  0  0
  3 89  1  0  0  0
  3 90  1  0  0  0
  4  5  1  0  0  0
  4 91  1  0  0  0
  4 92  1  0  0  0
  5  6  1  0  0  0
  5 26  1  0  0  0
  5 93  1  0  0  0
  6 25  1  0  0  0
  6 94  1  0  0  0
  6 95  1  0  0  0
  7  8  2  0  0  0
  7 26  1  0  0  0
  7 29  1  0  0  0
  8  9  1  0  0  0
  8 22  1  0  0  0
  9 10  1  0  0  0
  9 27  2  0  0  0
 10 11  2  0  0  0
 10 15  1  0  0  0
 11 12  1  0  0  0
 11 96  1  0  0  0
 12 13  2  0  0  0
 12 97  1  0  0  0
 13 14  1  0  0  0
 13 31  1  0  0  0
 14 15  2  0  0  0
 14 98  1  0  0  0
 15 99  1  0  0  0
 16 17  2  0  0  0
 16 21  1  0  0  0
 16 31  1  0  0  0
 17 18  1  0  0  0
 17100  1  0  0  0
 18 19  2  0  0  0
 18101  1  0  0  0
 19 20  1  0  0  0
 19 24  1  0  0  0
 20 21  2  0  0  0
 20102  1  0  0  0
 21 23  1  0  0  0
 22 28  1  0  0  0
 22 32  2  0  0  0
 26 27  1  0  0  0
 28103  1  0  0  0
 28104  1  0  0  0
 29105  1  0  0  0
 29106  1  0  0  0
 33 34  1  0  0  0
 33 66  1  0  0  0
 33 70  2  0  0  0
 34 36  1  0  0  0
 34 59  1  0  0  0
 34107  1  0  0  0
 35 44  2  0  0  0
 35 45  1  0  0  0
 35 68  1  0  0  0
 36 56  1  0  0  0
 36108  1  0  0  0
 37 39  1  0  0  0
 37 47  1  0  0  0
 37 66  1  0  0  0
 37109  1  0  0  0
 38 43  2  0  0  0
 38 46  1  0  0  0
 38 47  1  0  0  0
 39 64  1  0  0  0
 39 67  2  0  0  0
 40 52  1  0  0  0
 40 53  2  0  0  0
 40 58  1  0  0  0
 41110  1  0  0  0
 41111  1  0  0  0
 41112  1  0  0  0
 41 48  1  0  0  0
 42 43  1  0  0  0
 42 66  1  0  0  0
 42113  1  0  0  0
 42114  1  0  0  0
 43 44  1  0  0  0
 44115  1  0  0  0
 45 46  2  0  0  0
 45116  1  0  0  0
 46117  1  0  0  0
 47118  1  0  0  0
 47119  1  0  0  0
 48 56  1  0  0  0
 48 65  1  0  0  0
 48120  1  0  0  0
 49 50  1  0  0  0
 49 53  1  0  0  0
 49 64  1  0  0  0
 49121  1  0  0  0
 50 51  1  0  0  0
 50122  1  0  0  0
 50123  1  0  0  0
 51 52  1  0  0  0
 51124  1  0  0  0
 51125  1  0  0  0
 52126  1  0  0  0
 52127  1  0  0  0
 53 54  1  0  0  0
 54 55  2  0  0  0
 54128  1  0  0  0
 55 57  1  0  0  0
 55129  1  0  0  0
 56 69  2  0  0  0
 57 58  2  0  0  0
 57130  1  0  0  0
 58131  1  0  0  0
 59 60  1  0  0  0
 59 61  1  0  0  0
 59 62  1  0  0  0
 60132  1  0  0  0
 60133  1  0  0  0
 60134  1  0  0  0
 61135  1  0  0  0
 61136  1  0  0  0
 61137  1  0  0  0
 62138  1  0  0  0
 62139  1  0  0  0
 62140  1  0  0  0
 63 65  1  0  0  0
 63141  1  0  0  0
 63142  1  0  0  0
 63143  1  0  0  0
 64144  1  0  0  0
 65145  1  0  0  0
 68 74  1  0  0  0
 71 72  2  0  0  0
 71 84  1  0  0  0
 71146  1  0  0  0
 72 73  1  0  0  0
 72 83  1  0  0  0
 73 85  2  0  0  0
 73 80  1  0  0  0
 74 84  2  0  0  0
 74 85  1  0  0  0
 75 76  1  0  0  0
 75 80  1  0  0  0
 75147  1  0  0  0
 75148  1  0  0  0
 76 80  1  0  0  0
 76149  1  0  0  0
 76150  1  0  0  0
 77 78  1  0  0  0
 77151  1  0  0  0
 77152  1  0  0  0
 77 81  1  0  0  0
 78 86  1  0  0  0
 78153  1  0  0  0
 78154  1  0  0  0
 79 81  1  0  0  0
 79 86  1  0  0  0
 79155  1  0  0  0
 79156  1  0  0  0
 80157  1  0  0  0
 81 83  1  0  0  0
 81158  1  0  0  0
 82159  1  0  0  0
 82160  1  0  0  0
 82161  1  0  0  0
 82 83  1  0  0  0
 83162  1  0  0  0
M  ISO  4   1 100  68 101  74 101  86 100
M  END
> <chiral flag>
0

> <version>
0

> <s_m_source_file>
/data/baiqing/PycharmProjects/Reinvent-master-3.2/result/LINK_invent/BTK/process_docking_weight1_custom_sum_contain_oxygen_bond_distance_aromatic_linkinvent_7_9_3/rearranged_h_0193.sdf

> <i_m_source_file_index>
56

> <r_mmod_Potential_Energy-OPLS-2005>
359.083740234375

> <r_mmod_Stretch_Energy-OPLS-2005>
228.216751098633

> <r_mmod_Bend_Energy-OPLS-2005>
323.484649658203

> <r_mmod_Torsional_Energy-OPLS-2005>
363.118316650391

> <r_mmod_Improper_Torsional_Energy-OPLS-2005>
13.6057939529419

> <r_mmod_Van_der_Waal_Energy-OPLS-2005>
129.810989379883

> <r_mmod_Electrostatic_Energy-OPLS-2005>
-667.105712890625

> <r_mmod_Solvation_Energy-OPLS-2005>
-214.129364013672

> <b_mmod_Minimization_Converged-OPLS-2005>
0

> <r_mmod_RMS_Derivative-OPLS-2005>
3.1582658290863

$$$$
56
                    3D
 Structure written by MMmdl.
162171  0  0  1  0            999 V2000
  -30.6575  -14.5814   20.4738 C   0  0  0  0  0  0
  -30.4276  -12.3375   19.4663 C   0  0  0  0  0  0
  -29.5037  -12.4693   18.2357 C   0  0  0  0  0  0
  -28.0229  -12.3326   18.6397 C   0  0  0  0  0  0
  -27.6509  -13.2011   19.8707 C   0  0  2  0  0  0
  -28.6958  -13.0642   20.9976 C   0  0  0  0  0  0
  -25.2570  -13.8127   20.5720 C   0  0  0  0  0  0
  -24.1805  -13.0423   20.9190 C   0  0  0  0  0  0
  -24.6345  -11.6884   20.8760 C   0  0  0  0  0  0
  -23.9014  -10.4274   21.0420 C   0  0  0  0  0  0
  -24.3576   -9.4193   21.9189 C   0  0  0  0  0  0
  -23.6261   -8.2228   22.0752 C   0  0  0  0  0  0
  -22.4258   -8.0253   21.3535 C   0  0  0  0  0  0
  -21.9889   -9.0229   20.4646 C   0  0  0  0  0  0
  -22.7195  -10.2115   20.3062 C   0  0  0  0  0  0
  -21.6843   -6.0724   22.5285 C   0  0  0  0  0  0
  -21.3997   -6.5635   23.8215 C   0  0  0  0  0  0
  -21.3665   -5.6795   24.9182 C   0  0  0  0  0  0
  -21.6048   -4.3059   24.7246 C   0  0  0  0  0  0
  -21.8816   -3.8141   23.4369 C   0  0  0  0  0  0
  -21.9188   -4.6950   22.3418 C   0  0  0  0  0  0
  -22.7831  -13.5235   21.1854 C   0  0  0  0  0  0
  -22.1656   -4.2133   21.0997 F   0  0  0  0  0  0
  -21.5639   -3.4542   25.7765 F   0  0  0  0  0  0
  -30.0228  -13.3678   20.4388 N   0  0  0  0  0  0
  -26.2973  -12.9271   20.3392 N   0  0  0  0  0  0
  -25.9273  -11.6440   20.5818 N   0  0  0  0  0  0
  -22.0471  -12.8225   22.0412 N   0  0  0  0  0  0
  -25.4321  -15.1845   20.4153 N   0  0  0  0  0  0
  -31.8230  -14.6900   20.0912 O   0  0  0  0  0  0
  -21.6622   -6.8852   21.4235 O   0  0  0  0  0  0
  -22.3521  -14.5548   20.6715 O   0  0  0  0  0  0
  -24.6208  -31.8617   23.2072 C   0  0  0  0  0  0
  -25.9093  -32.4784   23.8354 C   0  0  1  0  0  0
  -27.2359  -27.3745   20.1009 C   0  0  0  0  0  0
  -25.5942  -33.8578   24.2283 N   0  0  0  0  0  0
  -23.4108  -30.4853   21.5498 C   0  0  2  0  0  0
  -24.8585  -28.9514   20.1085 C   0  0  0  0  0  0
  -22.7447  -29.4608   22.4976 C   0  0  0  0  0  0
  -18.0275  -28.1397   22.8490 C   0  0  0  0  0  0
  -24.1494  -36.7297   23.2634 C   0  0  0  0  0  0
  -25.9443  -30.8104   21.3675 C   0  0  0  0  0  0
  -26.0209  -29.4390   20.7166 C   0  0  0  0  0  0
  -27.2067  -28.6576   20.7146 C   0  0  0  0  0  0
  -26.0534  -26.9361   19.4541 C   0  0  0  0  0  0
  -24.8744  -27.7027   19.4704 C   0  0  0  0  0  0
  -23.6227  -29.8230   20.1626 C   0  0  0  0  0  0
  -25.4119  -36.3069   24.0315 C   0  0  1  0  0  0
  -20.5869  -28.3663   23.1331 C   0  0  2  0  0  0
  -20.6780  -26.9397   22.5430 C   0  0  0  0  0  0
  -19.5760  -26.6394   21.5231 C   0  0  0  0  0  0
  -18.1932  -26.7941   22.1633 C   0  0  0  0  0  0
  -19.1523  -28.8853   23.2901 C   0  0  0  0  0  0
  -18.9442  -30.1468   23.8897 C   0  0  0  0  0  0
  -17.6441  -30.6595   24.0570 C   0  0  0  0  0  0
  -25.9048  -34.9444   23.5086 C   0  0  0  0  0  0
  -16.5334  -29.9086   23.6347 C   0  0  0  0  0  0
  -16.7259  -28.6519   23.0337 C   0  0  0  0  0  0
  -26.4537  -31.6567   25.0680 C   0  0  0  0  0  0
  -25.3821  -31.3641   26.1430 C   0  0  0  0  0  0
  -27.0359  -30.3007   24.6046 C   0  0  0  0  0  0
  -27.6102  -32.4288   25.7464 C   0  0  0  0  0  0
  -27.5572  -37.1803   24.8471 C   0  0  0  0  0  0
  -21.4164  -29.3013   22.3731 N   0  0  0  0  0  0
  -26.4291  -37.3766   23.9396 N   0  0  0  0  0  0
  -24.6777  -31.0662   22.1014 N   0  0  0  0  0  0
  -23.4195  -28.8140   23.3026 O   0  0  0  0  0  0
  -28.3897  -26.5886   20.1623 O   0  0  0  0  0  0
  -26.5591  -34.8913   22.4637 O   0  0  0  0  0  0
  -23.5388  -32.1380   23.7452 O   0  0  0  0  0  0
  -29.7141  -17.8703   19.6693 C   0  0  0  0  0  0
  -29.6349  -16.5288   19.8481 C   0  0  0  0  0  0
  -30.0658  -19.0150   20.3118 C   0  0  0  0  0  0
  -29.2247  -17.7821   18.2282 C   0  0  0  0  0  0
  -29.0970  -16.2608   18.4497 C   0  0  0  0  0  0
  -32.3748  -21.1035   19.7310 C   0  0  0  0  0  0
  -31.3441  -20.5213   18.7664 C   0  0  0  0  0  0
  -31.5797  -21.9544   20.7346 C   0  0  0  0  0  0
  -30.0587  -20.3928   19.5971 C   0  0  2  0  0  0
  -30.0741  -21.6957   20.4793 C   0  0  2  0  0  0
  -29.3529  -24.2086   20.4365 C   0  0  0  0  0  0
  -28.3292  -25.1858   19.7582 C   0  0  0  0  0  0
  -29.8680  -15.7004   20.7829 N   0  0  0  0  0  0
  -29.4162  -22.8538   19.7725 N   0  3  0  0  0  0
  -31.4726  -12.4323   19.1631 H   0  0  0  0  0  0
  -30.3378  -11.3447   19.9122 H   0  0  0  0  0  0
  -29.7576  -11.7064   17.4991 H   0  0  0  0  0  0
  -29.6679  -13.4278   17.7466 H   0  0  0  0  0  0
  -27.8432  -11.2805   18.8649 H   0  0  0  0  0  0
  -27.3760  -12.5759   17.7959 H   0  0  0  0  0  0
  -27.6651  -14.2340   19.5446 H   0  0  0  0  0  0
  -28.6871  -12.0527   21.4092 H   0  0  0  0  0  0
  -28.4511  -13.7277   21.8290 H   0  0  0  0  0  0
  -25.2712   -9.5692   22.4762 H   0  0  0  0  0  0
  -23.9985   -7.4629   22.7480 H   0  0  0  0  0  0
  -21.0818   -8.8738   19.8952 H   0  0  0  0  0  0
  -22.3636  -10.9657   19.6183 H   0  0  0  0  0  0
  -21.1964   -7.6140   23.9714 H   0  0  0  0  0  0
  -21.1495   -6.0528   25.9089 H   0  0  0  0  0  0
  -22.0587   -2.7599   23.2882 H   0  0  0  0  0  0
  -22.4073  -11.9869   22.4782 H   0  0  0  0  0  0
  -21.1098  -13.1264   22.2638 H   0  0  0  0  0  0
  -24.6793  -15.8510   20.5447 H   0  0  0  0  0  0
  -26.3088  -15.6207   20.1572 H   0  0  0  0  0  0
  -26.7145  -32.5499   23.1092 H   0  0  0  0  0  0
  -25.0156  -33.9732   25.0469 H   0  0  0  0  0  0
  -22.7014  -31.3042   21.4123 H   0  0  0  0  0  0
  -23.3733  -35.9659   23.3315 H   0  0  0  0  0  0
  -24.3574  -36.8898   22.2047 H   0  0  0  0  0  0
  -23.7287  -37.6519   23.6646 H   0  0  0  0  0  0
  -26.0526  -31.5704   20.5920 H   0  0  0  0  0  0
  -26.8353  -30.8714   21.9806 H   0  0  0  0  0  0
  -28.0962  -29.0271   21.2053 H   0  0  0  0  0  0
  -26.0060  -26.0020   18.9170 H   0  0  0  0  0  0
  -23.9869  -27.3299   18.9759 H   0  0  0  0  0  0
  -23.7343  -30.6013   19.4070 H   0  0  0  0  0  0
  -22.7456  -29.2464   19.8640 H   0  0  0  0  0  0
  -25.1307  -36.1912   25.0807 H   0  0  0  0  0  0
  -20.9944  -28.3231   24.1460 H   0  0  0  0  0  0
  -20.5741  -26.2242   23.3602 H   0  0  0  0  0  0
  -21.6643  -26.7488   22.1186 H   0  0  0  0  0  0
  -19.6920  -25.6314   21.1243 H   0  0  0  0  0  0
  -19.6722  -27.3232   20.6789 H   0  0  0  0  0  0
  -17.4209  -26.6685   21.4029 H   0  0  0  0  0  0
  -18.0324  -26.0098   22.9046 H   0  0  0  0  0  0
  -19.7907  -30.7304   24.2248 H   0  0  0  0  0  0
  -17.4979  -31.6272   24.5173 H   0  0  0  0  0  0
  -15.5330  -30.2973   23.7682 H   0  0  0  0  0  0
  -15.8663  -28.0853   22.7013 H   0  0  0  0  0  0
  -24.6022  -30.6955   25.7768 H   0  0  0  0  0  0
  -24.8995  -32.2776   26.4909 H   0  0  0  0  0  0
  -25.8221  -30.8801   27.0157 H   0  0  0  0  0  0
  -26.2856  -29.6728   24.1220 H   0  0  0  0  0  0
  -27.4254  -29.7287   25.4477 H   0  0  0  0  0  0
  -27.8651  -30.4302   23.9086 H   0  0  0  0  0  0
  -27.2729  -33.3619   26.1990 H   0  0  0  0  0  0
  -28.3972  -32.6780   25.0331 H   0  0  0  0  0  0
  -28.0694  -31.8420   26.5430 H   0  0  0  0  0  0
  -28.2597  -38.0091   24.7486 H   0  0  0  0  0  0
  -28.1051  -36.2612   24.6341 H   0  0  0  0  0  0
  -27.2263  -37.1511   25.8866 H   0  0  0  0  0  0
  -20.9327  -29.8700   21.6925 H   0  0  0  0  0  0
  -26.0161  -38.2827   24.1420 H   0  0  0  0  0  0
  -30.4240  -18.9816   21.3314 H   0  0  0  0  0  0
  -29.9429  -18.0231   17.4451 H   0  0  0  0  0  0
  -28.2641  -18.2489   17.9998 H   0  0  0  0  0  0
  -28.0581  -15.9509   18.3398 H   0  0  0  0  0  0
  -29.7316  -15.7018   17.7612 H   0  0  0  0  0  0
  -33.1411  -21.6788   19.2079 H   0  0  0  0  0  0
  -32.8840  -20.2939   20.2594 H   0  0  0  0  0  0
  -31.6764  -19.5760   18.3309 H   0  0  0  0  0  0
  -31.1831  -21.2077   17.9343 H   0  0  0  0  0  0
  -31.8551  -23.0059   20.6432 H   0  0  0  0  0  0
  -31.8467  -21.6523   21.7476 H   0  0  0  0  0  0
  -29.1913  -20.4030   18.9355 H   0  0  0  0  0  0
  -29.5487  -21.5264   21.4215 H   0  0  0  0  0  0
  -29.0814  -24.0854   21.4856 H   0  0  0  0  0  0
  -30.3411  -24.6677   20.4256 H   0  0  0  0  0  0
  -27.3474  -24.7586   19.9624 H   0  0  0  0  0  0
  -28.4649  -25.1578   18.6757 H   0  0  0  0  0  0
  -28.4709  -22.5599   19.5822 H   0  0  0  0  0  0
  -29.8659  -22.9671   18.8751 H   0  0  0  0  0  0
  1 25  1  0  0  0
  1 30  2  0  0  0
  1 83  1  0  0  0
  2  3  1  0  0  0
  2 25  1  0  0  0
  2 85  1  0  0  0
  2 86  1  0  0  0
  3  4  1  0  0  0
  3 87  1  0  0  0
  3 88  1  0  0  0
  4  5  1  0  0  0
  4 89  1  0  0  0
  4 90  1  0  0  0
  5  6  1  0  0  0
  5 26  1  0  0  0
  5 91  1  0  0  0
  6 25  1  0  0  0
  6 92  1  0  0  0
  6 93  1  0  0  0
  7  8  2  0  0  0
  7 26  1  0  0  0
  7 29  1  0  0  0
  8  9  1  0  0  0
  8 22  1  0  0  0
  9 10  1  0  0  0
  9 27  2  0  0  0
 10 11  2  0  0  0
 10 15  1  0  0  0
 11 12  1  0  0  0
 11 94  1  0  0  0
 12 13  2  0  0  0
 12 95  1  0  0  0
 13 14  1  0  0  0
 13 31  1  0  0  0
 14 15  2  0  0  0
 14 96  1  0  0  0
 15 97  1  0  0  0
 16 17  2  0  0  0
 16 21  1  0  0  0
 16 31  1  0  0  0
 17 18  1  0  0  0
 17 98  1  0  0  0
 18 19  2  0  0  0
 18 99  1  0  0  0
 19 20  1  0  0  0
 19 24  1  0  0  0
 20 21  2  0  0  0
 20100  1  0  0  0
 21 23  1  0  0  0
 22 28  1  0  0  0
 22 32  2  0  0  0
 26 27  1  0  0  0
 28101  1  0  0  0
 28102  1  0  0  0
 29103  1  0  0  0
 29104  1  0  0  0
 33 34  1  0  0  0
 33 66  1  0  0  0
 33 70  2  0  0  0
 34 36  1  0  0  0
 34 59  1  0  0  0
 34105  1  0  0  0
 35 44  2  0  0  0
 35 45  1  0  0  0
 35 68  1  0  0  0
 36 56  1  0  0  0
 36106  1  0  0  0
 37 39  1  0  0  0
 37 47  1  0  0  0
 37 66  1  0  0  0
 37107  1  0  0  0
 38 43  2  0  0  0
 38 46  1  0  0  0
 38 47  1  0  0  0
 39 64  1  0  0  0
 39 67  2  0  0  0
 40 52  1  0  0  0
 40 53  2  0  0  0
 40 58  1  0  0  0
 41108  1  0  0  0
 41109  1  0  0  0
 41110  1  0  0  0
 41 48  1  0  0  0
 42 43  1  0  0  0
 42 66  1  0  0  0
 42111  1  0  0  0
 42112  1  0  0  0
 43 44  1  0  0  0
 44113  1  0  0  0
 45 46  2  0  0  0
 45114  1  0  0  0
 46115  1  0  0  0
 47116  1  0  0  0
 47117  1  0  0  0
 48 56  1  0  0  0
 48 65  1  0  0  0
 48118  1  0  0  0
 49 50  1  0  0  0
 49 53  1  0  0  0
 49 64  1  0  0  0
 49119  1  0  0  0
 50 51  1  0  0  0
 50120  1  0  0  0
 50121  1  0  0  0
 51 52  1  0  0  0
 51122  1  0  0  0
 51123  1  0  0  0
 52124  1  0  0  0
 52125  1  0  0  0
 53 54  1  0  0  0
 54 55  2  0  0  0
 54126  1  0  0  0
 55 57  1  0  0  0
 55127  1  0  0  0
 56 69  2  0  0  0
 57 58  2  0  0  0
 57128  1  0  0  0
 58129  1  0  0  0
 59 60  1  0  0  0
 59 61  1  0  0  0
 59 62  1  0  0  0
 60130  1  0  0  0
 60131  1  0  0  0
 60132  1  0  0  0
 61133  1  0  0  0
 61134  1  0  0  0
 61135  1  0  0  0
 62136  1  0  0  0
 62137  1  0  0  0
 62138  1  0  0  0
 63 65  1  0  0  0
 63139  1  0  0  0
 63140  1  0  0  0
 63141  1  0  0  0
 64142  1  0  0  0
 65143  1  0  0  0
 68 82  1  0  0  0
 71 72  1  0  0  0
 71 73  2  0  0  0
 71 74  1  0  0  0
 72 75  1  0  0  0
 72 83  2  0  0  0
 73144  1  0  0  0
 73 79  1  0  0  0
 74 75  1  0  0  0
 74145  1  0  0  0
 74146  1  0  0  0
 75147  1  0  0  0
 75148  1  0  0  0
 76 77  1  0  0  0
 76 78  1  0  0  0
 76149  1  0  0  0
 76150  1  0  0  0
 77 79  1  0  0  0
 77151  1  0  0  0
 77152  1  0  0  0
 78 80  1  0  0  0
 78153  1  0  0  0
 78154  1  0  0  0
 79 80  1  0  0  0
 79155  1  0  0  0
 80 84  1  0  0  0
 80156  1  0  0  0
 81 82  1  0  0  0
 81 84  1  0  0  0
 81157  1  0  0  0
 81158  1  0  0  0
 82159  1  0  0  0
 82160  1  0  0  0
 84161  1  0  0  0
 84162  1  0  0  0
M  CHG  1  84   1
M  ISO  4   1 100  68 101  82 101  83 100
M  END
> <chiral flag>
0

> <version>
0

> <s_m_source_file>
/data/baiqing/PycharmProjects/Reinvent-master-3.2/result/LINK_invent/BTK/process_docking_weight1_custom_sum_contain_oxygen_bond_distance_aromatic_linkinvent_7_9_3/rearranged_h_0193.sdf

> <i_m_source_file_index>
57

> <r_mmod_Potential_Energy-OPLS-2005>
51.7778244018555

> <r_mmod_Stretch_Energy-OPLS-2005>
53.8573608398438

> <r_mmod_Bend_Energy-OPLS-2005>
180.149871826172

> <r_mmod_Torsional_Energy-OPLS-2005>
264.740264892578

> <r_mmod_Improper_Torsional_Energy-OPLS-2005>
4.05071687698364

> <r_mmod_Van_der_Waal_Energy-OPLS-2005>
128.287475585938

> <r_mmod_Electrostatic_Energy-OPLS-2005>
-197.737182617188

> <r_mmod_Solvation_Energy-OPLS-2005>
-413.194305419922

> <b_mmod_Minimization_Converged-OPLS-2005>
0

> <r_mmod_RMS_Derivative-OPLS-2005>
3.14610314369202

$$$$
57
                    3D
 Structure written by MMmdl.
160169  0  0  1  0            999 V2000
  -30.6807  -14.4869   20.5153 C   0  0  0  0  0  0
  -30.4203  -12.2959   19.4309 C   0  0  0  0  0  0
  -29.4943  -12.4831   18.2101 C   0  0  0  0  0  0
  -28.0154  -12.3475   18.6239 C   0  0  0  0  0  0
  -27.6571  -13.2008   19.8711 C   0  0  2  0  0  0
  -28.7020  -13.0078   20.9951 C   0  0  0  0  0  0
  -25.2594  -13.8141   20.5696 C   0  0  0  0  0  0
  -24.1836  -13.0432   20.9184 C   0  0  0  0  0  0
  -24.6377  -11.6889   20.8749 C   0  0  0  0  0  0
  -23.9039  -10.4284   21.0413 C   0  0  0  0  0  0
  -24.3592   -9.4200   21.9187 C   0  0  0  0  0  0
  -23.6274   -8.2233   22.0753 C   0  0  0  0  0  0
  -22.4262   -8.0269   21.3540 C   0  0  0  0  0  0
  -21.9897   -9.0243   20.4647 C   0  0  0  0  0  0
  -22.7213  -10.2128   20.3063 C   0  0  0  0  0  0
  -21.6848   -6.0727   22.5277 C   0  0  0  0  0  0
  -21.4009   -6.5635   23.8208 C   0  0  0  0  0  0
  -21.3660   -5.6792   24.9172 C   0  0  0  0  0  0
  -21.6043   -4.3055   24.7231 C   0  0  0  0  0  0
  -21.8815   -3.8141   23.4356 C   0  0  0  0  0  0
  -21.9189   -4.6954   22.3407 C   0  0  0  0  0  0
  -22.7867  -13.5246   21.1841 C   0  0  0  0  0  0
  -22.1660   -4.2137   21.0986 F   0  0  0  0  0  0
  -21.5629   -3.4540   25.7749 F   0  0  0  0  0  0
  -30.0264  -13.2982   20.4302 N   0  0  0  0  0  0
  -26.3007  -12.9287   20.3377 N   0  0  0  0  0  0
  -25.9303  -11.6456   20.5790 N   0  0  0  0  0  0
  -22.0517  -12.8240   22.0406 N   0  0  0  0  0  0
  -25.4364  -15.1855   20.4113 N   0  0  0  0  0  0
  -31.8585  -14.6231   20.1681 O   0  0  0  0  0  0
  -21.6627   -6.8866   21.4239 O   0  0  0  0  0  0
  -22.3556  -14.5556   20.6696 O   0  0  0  0  0  0
  -24.6142  -31.8675   23.2102 C   0  0  0  0  0  0
  -25.9037  -32.4808   23.8386 C   0  0  1  0  0  0
  -27.2286  -27.4179   20.0954 C   0  0  0  0  0  0
  -25.5903  -33.8617   24.2320 N   0  0  0  0  0  0
  -23.4007  -30.4945   21.5510 C   0  0  2  0  0  0
  -24.8441  -28.9574   20.1159 C   0  0  0  0  0  0
  -22.7381  -29.4696   22.4982 C   0  0  0  0  0  0
  -18.0257  -28.1375   22.8504 C   0  0  0  0  0  0
  -24.1494  -36.7315   23.2640 C   0  0  0  0  0  0
  -25.9317  -30.8280   21.3647 C   0  0  0  0  0  0
  -26.0048  -29.4617   20.7123 C   0  0  0  0  0  0
  -27.1964  -28.7001   20.6971 C   0  0  0  0  0  0
  -26.0434  -26.9337   19.4916 C   0  0  0  0  0  0
  -24.8593  -27.6933   19.5041 C   0  0  0  0  0  0
  -23.6078  -29.8266   20.1658 C   0  0  0  0  0  0
  -25.4118  -36.3115   24.0337 C   0  0  1  0  0  0
  -20.5846  -28.3691   23.1301 C   0  0  2  0  0  0
  -20.6752  -26.9426   22.5397 C   0  0  0  0  0  0
  -19.5728  -26.6392   21.5208 C   0  0  0  0  0  0
  -18.1909  -26.7924   22.1628 C   0  0  0  0  0  0
  -19.1503  -28.8844   23.2901 C   0  0  0  0  0  0
  -18.9424  -30.1456   23.8903 C   0  0  0  0  0  0
  -17.6423  -30.6591   24.0551 C   0  0  0  0  0  0
  -25.9044  -34.9474   23.5130 C   0  0  0  0  0  0
  -16.5318  -29.9084   23.6319 C   0  0  0  0  0  0
  -16.7249  -28.6492   23.0358 C   0  0  0  0  0  0
  -26.4476  -31.6581   25.0701 C   0  0  0  0  0  0
  -25.3760  -31.3676   26.1460 C   0  0  0  0  0  0
  -27.0301  -30.3018   24.6072 C   0  0  0  0  0  0
  -27.6063  -32.4304   25.7453 C   0  0  0  0  0  0
  -27.5583  -37.1820   24.8469 C   0  0  0  0  0  0
  -21.4103  -29.3086   22.3714 N   0  0  0  0  0  0
  -26.4303  -37.3798   23.9404 N   0  0  0  0  0  0
  -24.6671  -31.0781   22.0999 N   0  0  0  0  0  0
  -23.4145  -28.8216   23.3017 O   0  0  0  0  0  0
  -28.4270  -26.7252   20.1018 O   0  0  0  0  0  0
  -26.5606  -34.8925   22.4695 O   0  0  0  0  0  0
  -23.5340  -32.1430   23.7514 O   0  0  0  0  0  0
  -26.9105  -22.2419   20.9900 C   0  0  0  0  0  0
  -26.0407  -21.1673   21.2052 C   0  0  0  0  0  0
  -28.2822  -21.9830   21.1192 C   0  0  0  0  0  0
  -27.8076  -19.7862   21.5956 C   0  0  0  0  0  0
  -29.0145  -17.6627   19.7239 C   0  0  0  0  0  0
  -29.8387  -16.4452   19.3276 C   0  0  0  0  0  0
  -29.4966  -16.3538   21.6858 C   0  0  0  0  0  0
  -29.2910  -17.8143   21.2149 C   0  0  2  0  0  0
  -29.3406  -23.0760   20.9575 C   0  0  0  0  0  0
  -28.8772  -24.5485   21.1557 C   0  0  0  0  0  0
  -28.4934  -25.3046   19.8636 C   0  0  0  0  0  0
  -26.4996  -19.9410   21.5244 N   0  0  0  0  0  0
  -28.7232  -20.7331   21.4073 N   0  0  0  0  0  0
  -29.8581  -15.5644   20.4986 N   0  0  0  0  0  0
  -28.2085  -18.5052   21.9109 N   0  0  0  0  0  0
  -31.4666  -12.3883   19.1331 H   0  0  0  0  0  0
  -30.3152  -11.2912   19.8440 H   0  0  0  0  0  0
  -29.7332  -11.7496   17.4394 H   0  0  0  0  0  0
  -29.6604  -13.4634   17.7618 H   0  0  0  0  0  0
  -27.8280  -11.2929   18.8308 H   0  0  0  0  0  0
  -27.3641  -12.6100   17.7898 H   0  0  0  0  0  0
  -27.6881  -14.2423   19.5523 H   0  0  0  0  0  0
  -28.6771  -11.9842   21.3726 H   0  0  0  0  0  0
  -28.4806  -13.6478   21.8497 H   0  0  0  0  0  0
  -25.2742   -9.5671   22.4753 H   0  0  0  0  0  0
  -23.9981   -7.4625   22.7479 H   0  0  0  0  0  0
  -21.0823   -8.8744   19.8963 H   0  0  0  0  0  0
  -22.3657  -10.9653   19.6166 H   0  0  0  0  0  0
  -21.1995   -7.6142   23.9702 H   0  0  0  0  0  0
  -21.1495   -6.0530   25.9073 H   0  0  0  0  0  0
  -22.0599   -2.7604   23.2860 H   0  0  0  0  0  0
  -22.4130  -11.9887   22.4761 H   0  0  0  0  0  0
  -21.1148  -13.1268   22.2640 H   0  0  0  0  0  0
  -24.6746  -15.8467   20.5167 H   0  0  0  0  0  0
  -26.2982  -15.6147   20.0995 H   0  0  0  0  0  0
  -26.7093  -32.5501   23.1135 H   0  0  0  0  0  0
  -25.0052  -33.9777   25.0459 H   0  0  0  0  0  0
  -22.6915  -31.3127   21.4125 H   0  0  0  0  0  0
  -23.3749  -35.9653   23.3320 H   0  0  0  0  0  0
  -24.3591  -36.8910   22.2048 H   0  0  0  0  0  0
  -23.7253  -37.6529   23.6648 H   0  0  0  0  0  0
  -26.0498  -31.5935   20.5963 H   0  0  0  0  0  0
  -26.8185  -30.8780   21.9838 H   0  0  0  0  0  0
  -28.0952  -29.0904   21.1544 H   0  0  0  0  0  0
  -25.9949  -25.9839   18.9845 H   0  0  0  0  0  0
  -23.9673  -27.3014   19.0352 H   0  0  0  0  0  0
  -23.7157  -30.6014   19.4055 H   0  0  0  0  0  0
  -22.7310  -29.2460   19.8722 H   0  0  0  0  0  0
  -25.1300  -36.1975   25.0827 H   0  0  0  0  0  0
  -20.9940  -28.3244   24.1421 H   0  0  0  0  0  0
  -20.5686  -26.2298   23.3586 H   0  0  0  0  0  0
  -21.6617  -26.7489   22.1166 H   0  0  0  0  0  0
  -19.6893  -25.6305   21.1228 H   0  0  0  0  0  0
  -19.6653  -27.3204   20.6731 H   0  0  0  0  0  0
  -17.4180  -26.6696   21.4023 H   0  0  0  0  0  0
  -18.0302  -26.0050   22.9008 H   0  0  0  0  0  0
  -19.7898  -30.7275   24.2259 H   0  0  0  0  0  0
  -17.4975  -31.6281   24.5140 H   0  0  0  0  0  0
  -15.5317  -30.2986   23.7635 H   0  0  0  0  0  0
  -15.8647  -28.0812   22.7077 H   0  0  0  0  0  0
  -24.5912  -30.7052   25.7788 H   0  0  0  0  0  0
  -24.8969  -32.2828   26.4948 H   0  0  0  0  0  0
  -25.8107  -30.8796   27.0188 H   0  0  0  0  0  0
  -26.2825  -29.6775   24.1150 H   0  0  0  0  0  0
  -27.4114  -29.7265   25.4521 H   0  0  0  0  0  0
  -27.8658  -30.4336   23.9195 H   0  0  0  0  0  0
  -27.2694  -33.3593   26.2073 H   0  0  0  0  0  0
  -28.3843  -32.6872   25.0250 H   0  0  0  0  0  0
  -28.0776  -31.8409   26.5326 H   0  0  0  0  0  0
  -28.2625  -38.0096   24.7495 H   0  0  0  0  0  0
  -28.1060  -36.2633   24.6327 H   0  0  0  0  0  0
  -27.2306  -37.1496   25.8875 H   0  0  0  0  0  0
  -20.9269  -29.8806   21.6930 H   0  0  0  0  0  0
  -26.0188  -38.2880   24.1391 H   0  0  0  0  0  0
  -26.5197  -23.2198   20.7470 H   0  0  0  0  0  0
  -24.9694  -21.2900   21.1294 H   0  0  0  0  0  0
  -27.9583  -17.4535   19.5468 H   0  0  0  0  0  0
  -29.2769  -18.5529   19.1510 H   0  0  0  0  0  0
  -30.8526  -16.7536   19.0667 H   0  0  0  0  0  0
  -29.4122  -15.9434   18.4583 H   0  0  0  0  0  0
  -30.2612  -16.2938   22.4626 H   0  0  0  0  0  0
  -28.5759  -15.9400   22.0990 H   0  0  0  0  0  0
  -30.2219  -18.3687   21.3504 H   0  0  0  0  0  0
  -29.8304  -22.9567   19.9906 H   0  0  0  0  0  0
  -30.1127  -22.8738   21.7016 H   0  0  0  0  0  0
  -29.7263  -25.0836   21.5805 H   0  0  0  0  0  0
  -28.0924  -24.6184   21.9102 H   0  0  0  0  0  0
  -27.6110  -24.8524   19.4210 H   0  0  0  0  0  0
  -29.2828  -25.1593   19.1264 H   0  0  0  0  0  0
  -27.4188  -17.9093   22.1202 H   0  0  0  0  0  0
  1 25  1  0  0  0
  1 30  2  0  0  0
  1 84  1  0  0  0
  2  3  1  0  0  0
  2 25  1  0  0  0
  2 86  1  0  0  0
  2 87  1  0  0  0
  3  4  1  0  0  0
  3 88  1  0  0  0
  3 89  1  0  0  0
  4  5  1  0  0  0
  4 90  1  0  0  0
  4 91  1  0  0  0
  5  6  1  0  0  0
  5 26  1  0  0  0
  5 92  1  0  0  0
  6 25  1  0  0  0
  6 93  1  0  0  0
  6 94  1  0  0  0
  7  8  2  0  0  0
  7 26  1  0  0  0
  7 29  1  0  0  0
  8  9  1  0  0  0
  8 22  1  0  0  0
  9 10  1  0  0  0
  9 27  2  0  0  0
 10 11  2  0  0  0
 10 15  1  0  0  0
 11 12  1  0  0  0
 11 95  1  0  0  0
 12 13  2  0  0  0
 12 96  1  0  0  0
 13 14  1  0  0  0
 13 31  1  0  0  0
 14 15  2  0  0  0
 14 97  1  0  0  0
 15 98  1  0  0  0
 16 17  2  0  0  0
 16 21  1  0  0  0
 16 31  1  0  0  0
 17 18  1  0  0  0
 17 99  1  0  0  0
 18 19  2  0  0  0
 18100  1  0  0  0
 19 20  1  0  0  0
 19 24  1  0  0  0
 20 21  2  0  0  0
 20101  1  0  0  0
 21 23  1  0  0  0
 22 28  1  0  0  0
 22 32  2  0  0  0
 26 27  1  0  0  0
 28102  1  0  0  0
 28103  1  0  0  0
 29104  1  0  0  0
 29105  1  0  0  0
 33 34  1  0  0  0
 33 66  1  0  0  0
 33 70  2  0  0  0
 34 36  1  0  0  0
 34 59  1  0  0  0
 34106  1  0  0  0
 35 44  2  0  0  0
 35 45  1  0  0  0
 35 68  1  0  0  0
 36 56  1  0  0  0
 36107  1  0  0  0
 37 39  1  0  0  0
 37 47  1  0  0  0
 37 66  1  0  0  0
 37108  1  0  0  0
 38 43  2  0  0  0
 38 46  1  0  0  0
 38 47  1  0  0  0
 39 64  1  0  0  0
 39 67  2  0  0  0
 40 52  1  0  0  0
 40 53  2  0  0  0
 40 58  1  0  0  0
 41109  1  0  0  0
 41110  1  0  0  0
 41111  1  0  0  0
 41 48  1  0  0  0
 42 43  1  0  0  0
 42 66  1  0  0  0
 42112  1  0  0  0
 42113  1  0  0  0
 43 44  1  0  0  0
 44114  1  0  0  0
 45 46  2  0  0  0
 45115  1  0  0  0
 46116  1  0  0  0
 47117  1  0  0  0
 47118  1  0  0  0
 48 56  1  0  0  0
 48 65  1  0  0  0
 48119  1  0  0  0
 49 50  1  0  0  0
 49 53  1  0  0  0
 49 64  1  0  0  0
 49120  1  0  0  0
 50 51  1  0  0  0
 50121  1  0  0  0
 50122  1  0  0  0
 51 52  1  0  0  0
 51123  1  0  0  0
 51124  1  0  0  0
 52125  1  0  0  0
 52126  1  0  0  0
 53 54  1  0  0  0
 54 55  2  0  0  0
 54127  1  0  0  0
 55 57  1  0  0  0
 55128  1  0  0  0
 56 69  2  0  0  0
 57 58  2  0  0  0
 57129  1  0  0  0
 58130  1  0  0  0
 59 60  1  0  0  0
 59 61  1  0  0  0
 59 62  1  0  0  0
 60131  1  0  0  0
 60132  1  0  0  0
 60133  1  0  0  0
 61134  1  0  0  0
 61135  1  0  0  0
 61136  1  0  0  0
 62137  1  0  0  0
 62138  1  0  0  0
 62139  1  0  0  0
 63 65  1  0  0  0
 63140  1  0  0  0
 63141  1  0  0  0
 63142  1  0  0  0
 64143  1  0  0  0
 65144  1  0  0  0
 68 81  1  0  0  0
 71 72  2  0  0  0
 71 73  1  0  0  0
 71145  1  0  0  0
 72 82  1  0  0  0
 72146  1  0  0  0
 73 79  1  0  0  0
 73 83  2  0  0  0
 74 82  2  0  0  0
 74 83  1  0  0  0
 74 85  1  0  0  0
 75 76  1  0  0  0
 75 78  1  0  0  0
 75147  1  0  0  0
 75148  1  0  0  0
 76 84  1  0  0  0
 76149  1  0  0  0
 76150  1  0  0  0
 77 78  1  0  0  0
 77 84  1  0  0  0
 77151  1  0  0  0
 77152  1  0  0  0
 78 85  1  0  0  0
 78153  1  0  0  0
 79 80  1  0  0  0
 79154  1  0  0  0
 79155  1  0  0  0
 80 81  1  0  0  0
 80156  1  0  0  0
 80157  1  0  0  0
 81158  1  0  0  0
 81159  1  0  0  0
 85160  1  0  0  0
M  ISO  4   1 100  68 101  81 101  84 100
M  END
> <chiral flag>
0

> <version>
0

> <s_m_source_file>
/data/baiqing/PycharmProjects/Reinvent-master-3.2/result/LINK_invent/BTK/process_docking_weight1_custom_sum_contain_oxygen_bond_distance_aromatic_linkinvent_7_9_3/rearranged_h_0193.sdf

> <i_m_source_file_index>
58

> <r_mmod_Potential_Energy-OPLS-2005>
-418.896087646484

> <r_mmod_Stretch_Energy-OPLS-2005>
36.3947830200195

> <r_mmod_Bend_Energy-OPLS-2005>
134.060211181641

> <r_mmod_Torsional_Energy-OPLS-2005>
337.656982421875

> <r_mmod_Improper_Torsional_Energy-OPLS-2005>
21.7951908111572

> <r_mmod_Van_der_Waal_Energy-OPLS-2005>
151.346084594727

> <r_mmod_Electrostatic_Energy-OPLS-2005>
-887.9638671875

> <r_mmod_Solvation_Energy-OPLS-2005>
-229.563919067383

> <b_mmod_Minimization_Converged-OPLS-2005>
0

> <r_mmod_RMS_Derivative-OPLS-2005>
1.6935715675354

$$$$
58
                    3D
 Structure written by MMmdl.
162171  0  0  1  0            999 V2000
  -30.7117  -14.6914   20.5042 C   0  0  0  0  0  0
  -30.4121  -12.4387   19.4708 C   0  0  0  0  0  0
  -29.4952  -12.4821   18.2324 C   0  0  0  0  0  0
  -28.0315  -12.2733   18.6562 C   0  0  0  0  0  0
  -27.6304  -13.1976   19.8294 C   0  0  2  0  0  0
  -28.6782  -13.1909   20.9725 C   0  0  0  0  0  0
  -25.2507  -13.8110   20.5664 C   0  0  0  0  0  0
  -24.1786  -13.0402   20.9221 C   0  0  0  0  0  0
  -24.6343  -11.6872   20.8778 C   0  0  0  0  0  0
  -23.9023  -10.4267   21.0436 C   0  0  0  0  0  0
  -24.3591   -9.4184   21.9202 C   0  0  0  0  0  0
  -23.6274   -8.2217   22.0758 C   0  0  0  0  0  0
  -22.4258   -8.0262   21.3545 C   0  0  0  0  0  0
  -21.9888   -9.0235   20.4649 C   0  0  0  0  0  0
  -22.7208  -10.2117   20.3069 C   0  0  0  0  0  0
  -21.6845   -6.0724   22.5278 C   0  0  0  0  0  0
  -21.4006   -6.5634   23.8211 C   0  0  0  0  0  0
  -21.3657   -5.6789   24.9176 C   0  0  0  0  0  0
  -21.6044   -4.3050   24.7229 C   0  0  0  0  0  0
  -21.8821   -3.8141   23.4350 C   0  0  0  0  0  0
  -21.9189   -4.6954   22.3403 C   0  0  0  0  0  0
  -22.7818  -13.5215   21.1884 C   0  0  0  0  0  0
  -22.1659   -4.2140   21.0981 F   0  0  0  0  0  0
  -21.5631   -3.4536   25.7744 F   0  0  0  0  0  0
  -29.9855  -13.5230   20.3915 N   0  0  0  0  0  0
  -26.2871  -12.9241   20.3204 N   0  0  0  0  0  0
  -25.9249  -11.6431   20.5761 N   0  0  0  0  0  0
  -22.0459  -12.8213   22.0443 N   0  0  0  0  0  0
  -25.4204  -15.1827   20.4049 N   0  0  0  0  0  0
  -31.8888  -14.6893   20.1335 O   0  0  0  0  0  0
  -21.6624   -6.8862   21.4238 O   0  0  0  0  0  0
  -22.3515  -14.5524   20.6728 O   0  0  0  0  0  0
  -24.6257  -31.8600   23.2024 C   0  0  0  0  0  0
  -25.9106  -32.4778   23.8350 C   0  0  1  0  0  0
  -27.2233  -27.3180   20.1192 C   0  0  0  0  0  0
  -25.5911  -33.8576   24.2274 N   0  0  0  0  0  0
  -23.4198  -30.4849   21.5447 C   0  0  2  0  0  0
  -24.8667  -28.9416   20.1089 C   0  0  0  0  0  0
  -22.7475  -29.4631   22.4926 C   0  0  0  0  0  0
  -18.0284  -28.1390   22.8490 C   0  0  0  0  0  0
  -24.1489  -36.7303   23.2638 C   0  0  0  0  0  0
  -25.9607  -30.7914   21.3734 C   0  0  0  0  0  0
  -26.0353  -29.4191   20.7151 C   0  0  0  0  0  0
  -27.2167  -28.6191   20.7107 C   0  0  0  0  0  0
  -26.0322  -26.8970   19.4828 C   0  0  0  0  0  0
  -24.8670  -27.6861   19.4832 C   0  0  0  0  0  0
  -23.6348  -29.8221   20.1591 C   0  0  0  0  0  0
  -25.4112  -36.3088   24.0329 C   0  0  1  0  0  0
  -20.5887  -28.3699   23.1283 C   0  0  2  0  0  0
  -20.6777  -26.9419   22.5416 C   0  0  0  0  0  0
  -19.5752  -26.6391   21.5220 C   0  0  0  0  0  0
  -18.1928  -26.7933   22.1629 C   0  0  0  0  0  0
  -19.1538  -28.8860   23.2882 C   0  0  0  0  0  0
  -18.9462  -30.1457   23.8908 C   0  0  0  0  0  0
  -17.6462  -30.6592   24.0570 C   0  0  0  0  0  0
  -25.9052  -34.9454   23.5109 C   0  0  0  0  0  0
  -16.5353  -29.9098   23.6327 C   0  0  0  0  0  0
  -16.7272  -28.6512   23.0353 C   0  0  0  0  0  0
  -26.4488  -31.6583   25.0718 C   0  0  0  0  0  0
  -25.3721  -31.3716   26.1445 C   0  0  0  0  0  0
  -27.0319  -30.3002   24.6165 C   0  0  0  0  0  0
  -27.6059  -32.4310   25.7482 C   0  0  0  0  0  0
  -27.5582  -37.1800   24.8461 C   0  0  0  0  0  0
  -21.4189  -29.3050   22.3674 N   0  0  0  0  0  0
  -26.4292  -37.3782   23.9410 N   0  0  0  0  0  0
  -24.6877  -31.0616   22.0972 N   0  0  0  0  0  0
  -23.4198  -28.8167   23.3005 O   0  0  0  0  0  0
  -28.3374  -26.4641   20.1842 O   0  0  0  0  0  0
  -26.5631  -34.8925   22.4683 O   0  0  0  0  0  0
  -23.5424  -32.1397   23.7359 O   0  0  0  0  0  0
  -29.8455  -20.1807   19.5493 C   0  0  0  0  0  0
  -30.2771  -21.1390   17.7341 C   0  0  0  0  0  0
  -28.8146  -17.8352   20.0200 C   0  0  0  0  0  0
  -31.1038  -18.2953   20.8299 C   0  0  0  0  0  0
  -28.8390  -16.4890   20.8338 C   0  0  0  0  0  0
  -31.0401  -16.9359   21.6153 C   0  0  0  0  0  0
  -29.7325  -18.9874   20.5435 C   0  0  0  0  0  0
  -30.7337  -21.3833   16.3380 C   0  0  0  0  0  0
  -29.2166  -24.0031   20.6079 C   0  0  0  0  0  0
  -28.9163  -22.4208   20.7012 C   0  0  0  0  0  0
  -28.1120  -25.0026   20.0569 C   0  0  0  0  0  0
  -30.3403  -19.9226   18.3339 N   0  0  0  0  0  0
  -29.7786  -22.1177   18.4736 N   0  0  0  0  0  0
  -29.5190  -21.5250   19.6690 N   0  0  0  0  0  0
  -30.1834  -15.8846   20.9986 N   0  0  0  0  0  0
  -31.4540  -12.5250   19.1591 H   0  0  0  0  0  0
  -30.3387  -11.4707   19.9695 H   0  0  0  0  0  0
  -29.7890  -11.7119   17.5177 H   0  0  0  0  0  0
  -29.6035  -13.4387   17.7186 H   0  0  0  0  0  0
  -27.9168  -11.2294   18.9513 H   0  0  0  0  0  0
  -27.3638  -12.4242   17.8070 H   0  0  0  0  0  0
  -27.5910  -14.1711   19.3553 H   0  0  0  0  0  0
  -28.7174  -12.2113   21.4511 H   0  0  0  0  0  0
  -28.4050  -13.8968   21.7577 H   0  0  0  0  0  0
  -25.2738   -9.5661   22.4774 H   0  0  0  0  0  0
  -23.9986   -7.4603   22.7469 H   0  0  0  0  0  0
  -21.0823   -8.8751   19.8948 H   0  0  0  0  0  0
  -22.3672  -10.9661   19.6179 H   0  0  0  0  0  0
  -21.1996   -7.6142   23.9713 H   0  0  0  0  0  0
  -21.1479   -6.0520   25.9079 H   0  0  0  0  0  0
  -22.0603   -2.7603   23.2854 H   0  0  0  0  0  0
  -22.4076  -11.9872   22.4828 H   0  0  0  0  0  0
  -21.1080  -13.1241   22.2655 H   0  0  0  0  0  0
  -24.6523  -15.8349   20.5197 H   0  0  0  0  0  0
  -26.2656  -15.6229   20.0674 H   0  0  0  0  0  0
  -26.7170  -32.5455   23.1098 H   0  0  0  0  0  0
  -25.0010  -33.9707   25.0383 H   0  0  0  0  0  0
  -22.7139  -31.3059   21.4025 H   0  0  0  0  0  0
  -23.3751  -35.9636   23.3295 H   0  0  0  0  0  0
  -24.3583  -36.8940   22.2055 H   0  0  0  0  0  0
  -23.7244  -37.6503   23.6669 H   0  0  0  0  0  0
  -26.0904  -31.5554   20.6056 H   0  0  0  0  0  0
  -26.8417  -30.8401   22.0018 H   0  0  0  0  0  0
  -28.1119  -28.9793   21.1981 H   0  0  0  0  0  0
  -25.9732  -25.9393   18.9870 H   0  0  0  0  0  0
  -23.9718  -27.3164   19.0018 H   0  0  0  0  0  0
  -23.7536  -30.6006   19.4044 H   0  0  0  0  0  0
  -22.7544  -29.2530   19.8557 H   0  0  0  0  0  0
  -25.1290  -36.1944   25.0822 H   0  0  0  0  0  0
  -20.9973  -28.3284   24.1408 H   0  0  0  0  0  0
  -20.5692  -26.2306   23.3621 H   0  0  0  0  0  0
  -21.6642  -26.7458   22.1203 H   0  0  0  0  0  0
  -19.6920  -25.6303   21.1249 H   0  0  0  0  0  0
  -19.6696  -27.3205   20.6753 H   0  0  0  0  0  0
  -17.4200  -26.6686   21.4029 H   0  0  0  0  0  0
  -18.0322  -26.0073   22.9024 H   0  0  0  0  0  0
  -19.7937  -30.7262   24.2294 H   0  0  0  0  0  0
  -17.5021  -31.6275   24.5168 H   0  0  0  0  0  0
  -15.5356  -30.3008   23.7642 H   0  0  0  0  0  0
  -15.8671  -28.0839   22.7065 H   0  0  0  0  0  0
  -24.5910  -30.7047   25.7774 H   0  0  0  0  0  0
  -24.8883  -32.2872   26.4856 H   0  0  0  0  0  0
  -25.8042  -30.8909   27.0230 H   0  0  0  0  0  0
  -26.2876  -29.6756   24.1206 H   0  0  0  0  0  0
  -27.4028  -29.7257   25.4661 H   0  0  0  0  0  0
  -27.8748  -30.4279   23.9371 H   0  0  0  0  0  0
  -27.2686  -33.3625   26.2040 H   0  0  0  0  0  0
  -28.3872  -32.6844   25.0303 H   0  0  0  0  0  0
  -28.0716  -31.8438   26.5407 H   0  0  0  0  0  0
  -28.2594  -38.0103   24.7515 H   0  0  0  0  0  0
  -28.1087  -36.2634   24.6276 H   0  0  0  0  0  0
  -27.2302  -37.1441   25.8864 H   0  0  0  0  0  0
  -20.9365  -29.8778   21.6891 H   0  0  0  0  0  0
  -26.0181  -38.2861   24.1410 H   0  0  0  0  0  0
  -27.7903  -18.2028   19.9512 H   0  0  0  0  0  0
  -29.1057  -17.5962   18.9962 H   0  0  0  0  0  0
  -31.6069  -18.0979   19.8822 H   0  0  0  0  0  0
  -31.7501  -18.9948   21.3615 H   0  0  0  0  0  0
  -28.1641  -15.8111   20.3448 H   0  0  0  0  0  0
  -28.4125  -16.6543   21.8240 H   0  0  0  0  0  0
  -30.6634  -17.1265   22.6214 H   0  0  0  0  0  0
  -32.0572  -16.5701   21.7678 H   0  0  0  0  0  0
  -29.3249  -19.3654   21.4817 H   0  0  0  0  0  0
  -31.0073  -20.4486   15.8487 H   0  0  0  0  0  0
  -31.6052  -22.0376   16.3369 H   0  0  0  0  0  0
  -29.9436  -21.8573   15.7555 H   0  0  0  0  0  0
  -30.1556  -24.1754   20.0812 H   0  0  0  0  0  0
  -29.4216  -24.3316   21.6272 H   0  0  0  0  0  0
  -27.8396  -22.2482   20.7123 H   0  0  0  0  0  0
  -29.2767  -22.0608   21.6654 H   0  0  0  0  0  0
  -27.1869  -24.7524   20.5789 H   0  0  0  0  0  0
  -27.9452  -24.7745   19.0035 H   0  0  0  0  0  0
  1 25  1  0  0  0
  1 30  2  0  0  0
  1 85  1  0  0  0
  2  3  1  0  0  0
  2 25  1  0  0  0
  2 86  1  0  0  0
  2 87  1  0  0  0
  3  4  1  0  0  0
  3 88  1  0  0  0
  3 89  1  0  0  0
  4  5  1  0  0  0
  4 90  1  0  0  0
  4 91  1  0  0  0
  5  6  1  0  0  0
  5 26  1  0  0  0
  5 92  1  0  0  0
  6 25  1  0  0  0
  6 93  1  0  0  0
  6 94  1  0  0  0
  7  8  2  0  0  0
  7 26  1  0  0  0
  7 29  1  0  0  0
  8  9  1  0  0  0
  8 22  1  0  0  0
  9 10  1  0  0  0
  9 27  2  0  0  0
 10 11  2  0  0  0
 10 15  1  0  0  0
 11 12  1  0  0  0
 11 95  1  0  0  0
 12 13  2  0  0  0
 12 96  1  0  0  0
 13 14  1  0  0  0
 13 31  1  0  0  0
 14 15  2  0  0  0
 14 97  1  0  0  0
 15 98  1  0  0  0
 16 17  2  0  0  0
 16 21  1  0  0  0
 16 31  1  0  0  0
 17 18  1  0  0  0
 17 99  1  0  0  0
 18 19  2  0  0  0
 18100  1  0  0  0
 19 20  1  0  0  0
 19 24  1  0  0  0
 20 21  2  0  0  0
 20101  1  0  0  0
 21 23  1  0  0  0
 22 28  1  0  0  0
 22 32  2  0  0  0
 26 27  1  0  0  0
 28102  1  0  0  0
 28103  1  0  0  0
 29104  1  0  0  0
 29105  1  0  0  0
 33 34  1  0  0  0
 33 66  1  0  0  0
 33 70  2  0  0  0
 34 36  1  0  0  0
 34 59  1  0  0  0
 34106  1  0  0  0
 35 44  2  0  0  0
 35 45  1  0  0  0
 35 68  1  0  0  0
 36 56  1  0  0  0
 36107  1  0  0  0
 37 39  1  0  0  0
 37 47  1  0  0  0
 37 66  1  0  0  0
 37108  1  0  0  0
 38 43  2  0  0  0
 38 46  1  0  0  0
 38 47  1  0  0  0
 39 64  1  0  0  0
 39 67  2  0  0  0
 40 52  1  0  0  0
 40 53  2  0  0  0
 40 58  1  0  0  0
 41109  1  0  0  0
 41110  1  0  0  0
 41111  1  0  0  0
 41 48  1  0  0  0
 42 43  1  0  0  0
 42 66  1  0  0  0
 42112  1  0  0  0
 42113  1  0  0  0
 43 44  1  0  0  0
 44114  1  0  0  0
 45 46  2  0  0  0
 45115  1  0  0  0
 46116  1  0  0  0
 47117  1  0  0  0
 47118  1  0  0  0
 48 56  1  0  0  0
 48 65  1  0  0  0
 48119  1  0  0  0
 49 50  1  0  0  0
 49 53  1  0  0  0
 49 64  1  0  0  0
 49120  1  0  0  0
 50 51  1  0  0  0
 50121  1  0  0  0
 50122  1  0  0  0
 51 52  1  0  0  0
 51123  1  0  0  0
 51124  1  0  0  0
 52125  1  0  0  0
 52126  1  0  0  0
 53 54  1  0  0  0
 54 55  2  0  0  0
 54127  1  0  0  0
 55 57  1  0  0  0
 55128  1  0  0  0
 56 69  2  0  0  0
 57 58  2  0  0  0
 57129  1  0  0  0
 58130  1  0  0  0
 59 60  1  0  0  0
 59 61  1  0  0  0
 59 62  1  0  0  0
 60131  1  0  0  0
 60132  1  0  0  0
 60133  1  0  0  0
 61134  1  0  0  0
 61135  1  0  0  0
 61136  1  0  0  0
 62137  1  0  0  0
 62138  1  0  0  0
 62139  1  0  0  0
 63 65  1  0  0  0
 63140  1  0  0  0
 63141  1  0  0  0
 63142  1  0  0  0
 64143  1  0  0  0
 65144  1  0  0  0
 68 81  1  0  0  0
 71 82  2  0  0  0
 71 84  1  0  0  0
 71 77  1  0  0  0
 72 78  1  0  0  0
 72 82  1  0  0  0
 72 83  2  0  0  0
 73 75  1  0  0  0
 73 77  1  0  0  0
 73145  1  0  0  0
 73146  1  0  0  0
 74 76  1  0  0  0
 74 77  1  0  0  0
 74147  1  0  0  0
 74148  1  0  0  0
 75 85  1  0  0  0
 75149  1  0  0  0
 75150  1  0  0  0
 76 85  1  0  0  0
 76151  1  0  0  0
 76152  1  0  0  0
 77153  1  0  0  0
 78154  1  0  0  0
 78155  1  0  0  0
 78156  1  0  0  0
 79 80  1  0  0  0
 79 81  1  0  0  0
 79157  1  0  0  0
 79158  1  0  0  0
 80 84  1  0  0  0
 80159  1  0  0  0
 80160  1  0  0  0
 81161  1  0  0  0
 81162  1  0  0  0
 83 84  1  0  0  0
M  ISO  4   1 100  68 101  81 101  85 100
M  END
> <chiral flag>
0

> <version>
0

> <s_m_source_file>
/data/baiqing/PycharmProjects/Reinvent-master-3.2/result/LINK_invent/BTK/process_docking_weight1_custom_sum_contain_oxygen_bond_distance_aromatic_linkinvent_7_9_3/rearranged_h_0193.sdf

> <i_m_source_file_index>
59

> <r_mmod_Potential_Energy-OPLS-2005>
256.986389160156

> <r_mmod_Stretch_Energy-OPLS-2005>
90.7120513916016

> <r_mmod_Bend_Energy-OPLS-2005>
188.486602783203

> <r_mmod_Torsional_Energy-OPLS-2005>
311.298675537109

> <r_mmod_Improper_Torsional_Energy-OPLS-2005>
1.9474059343338

> <r_mmod_Van_der_Waal_Energy-OPLS-2005>
133.621856689453

> <r_mmod_Electrostatic_Energy-OPLS-2005>
-315.212585449219

> <r_mmod_Solvation_Energy-OPLS-2005>
-219.176620483398

> <b_mmod_Minimization_Converged-OPLS-2005>
0

> <r_mmod_RMS_Derivative-OPLS-2005>
0.705996155738831

$$$$
59
                    3D
 Structure written by MMmdl.
164173  0  0  1  0            999 V2000
  -30.7401  -14.5047   20.5560 C   0  0  0  0  0  0
  -30.4169  -12.3284   19.4282 C   0  0  0  0  0  0
  -29.4856  -12.4831   18.2096 C   0  0  0  0  0  0
  -28.0135  -12.3076   18.6295 C   0  0  0  0  0  0
  -27.6439  -13.1790   19.8550 C   0  0  2  0  0  0
  -28.6982  -13.0483   20.9845 C   0  0  0  0  0  0
  -25.2540  -13.8065   20.5673 C   0  0  0  0  0  0
  -24.1793  -13.0378   20.9218 C   0  0  0  0  0  0
  -24.6335  -11.6840   20.8785 C   0  0  0  0  0  0
  -23.9009  -10.4253   21.0440 C   0  0  0  0  0  0
  -24.3585   -9.4175   21.9202 C   0  0  0  0  0  0
  -23.6273   -8.2209   22.0752 C   0  0  0  0  0  0
  -22.4254   -8.0259   21.3546 C   0  0  0  0  0  0
  -21.9888   -9.0226   20.4644 C   0  0  0  0  0  0
  -22.7199  -10.2110   20.3070 C   0  0  0  0  0  0
  -21.6838   -6.0734   22.5289 C   0  0  0  0  0  0
  -21.3997   -6.5641   23.8225 C   0  0  0  0  0  0
  -21.3658   -5.6790   24.9186 C   0  0  0  0  0  0
  -21.6048   -4.3053   24.7231 C   0  0  0  0  0  0
  -21.8813   -3.8147   23.4350 C   0  0  0  0  0  0
  -21.9187   -4.6966   22.3410 C   0  0  0  0  0  0
  -22.7827  -13.5200   21.1877 C   0  0  0  0  0  0
  -22.1645   -4.2155   21.0982 F   0  0  0  0  0  0
  -21.5648   -3.4531   25.7741 F   0  0  0  0  0  0
  -30.0256  -13.3466   20.4194 N   0  0  0  0  0  0
  -26.2930  -12.9169   20.3326 N   0  0  0  0  0  0
  -25.9245  -11.6373   20.5817 N   0  0  0  0  0  0
  -22.0450  -12.8213   22.0435 N   0  0  0  0  0  0
  -25.4203  -15.1780   20.3999 N   0  0  0  0  0  0
  -31.8969  -14.6044   20.1389 O   0  0  0  0  0  0
  -21.6619   -6.8859   21.4243 O   0  0  0  0  0  0
  -22.3523  -14.5508   20.6716 O   0  0  0  0  0  0
  -24.6152  -31.8684   23.2112 C   0  0  0  0  0  0
  -25.9046  -32.4822   23.8406 C   0  0  1  0  0  0
  -27.2386  -27.4303   20.0892 C   0  0  0  0  0  0
  -25.5906  -33.8623   24.2334 N   0  0  0  0  0  0
  -23.4027  -30.4936   21.5516 C   0  0  2  0  0  0
  -24.8478  -28.9596   20.1180 C   0  0  0  0  0  0
  -22.7402  -29.4672   22.4989 C   0  0  0  0  0  0
  -18.0273  -28.1378   22.8486 C   0  0  0  0  0  0
  -24.1492  -36.7315   23.2636 C   0  0  0  0  0  0
  -25.9326  -30.8323   21.3653 C   0  0  0  0  0  0
  -26.0088  -29.4662   20.7119 C   0  0  0  0  0  0
  -27.2033  -28.7093   20.6956 C   0  0  0  0  0  0
  -26.0471  -26.9368   19.5003 C   0  0  0  0  0  0
  -24.8614  -27.6932   19.5125 C   0  0  0  0  0  0
  -23.6108  -29.8274   20.1662 C   0  0  0  0  0  0
  -25.4111  -36.3112   24.0337 C   0  0  1  0  0  0
  -20.5862  -28.3672   23.1311 C   0  0  2  0  0  0
  -20.6763  -26.9408   22.5410 C   0  0  0  0  0  0
  -19.5744  -26.6389   21.5205 C   0  0  0  0  0  0
  -18.1924  -26.7927   22.1617 C   0  0  0  0  0  0
  -19.1520  -28.8841   23.2898 C   0  0  0  0  0  0
  -18.9448  -30.1445   23.8914 C   0  0  0  0  0  0
  -17.6451  -30.6583   24.0568 C   0  0  0  0  0  0
  -25.9037  -34.9476   23.5131 C   0  0  0  0  0  0
  -16.5342  -29.9087   23.6329 C   0  0  0  0  0  0
  -16.7263  -28.6503   23.0352 C   0  0  0  0  0  0
  -26.4475  -31.6597   25.0731 C   0  0  0  0  0  0
  -25.3746  -31.3693   26.1478 C   0  0  0  0  0  0
  -27.0304  -30.3039   24.6106 C   0  0  0  0  0  0
  -27.6059  -32.4310   25.7486 C   0  0  0  0  0  0
  -27.5585  -37.1810   24.8463 C   0  0  0  0  0  0
  -21.4131  -29.3044   22.3719 N   0  0  0  0  0  0
  -26.4298  -37.3793   23.9408 N   0  0  0  0  0  0
  -24.6684  -31.0786   22.1011 N   0  0  0  0  0  0
  -23.4170  -28.8208   23.3031 O   0  0  0  0  0  0
  -28.4274  -26.7173   20.0983 O   0  0  0  0  0  0
  -26.5589  -34.8923   22.4687 O   0  0  0  0  0  0
  -23.5348  -32.1438   23.7507 O   0  0  0  0  0  0
  -30.6831  -20.4412   20.8673 C   0  0  0  0  0  0
  -29.0755  -17.6920   20.4343 C   0  0  0  0  0  0
  -31.7773  -22.5260   21.8491 C   0  0  0  0  0  0
  -28.9580  -16.1724   20.4056 C   0  0  0  0  0  0
  -30.8742  -16.7272   21.6645 C   0  0  0  0  0  0
  -31.6533  -23.6658   20.8386 C   0  0  0  0  0  0
  -29.4840  -22.7312   21.0500 C   0  0  0  0  0  0
  -30.4761  -21.7225   21.7031 C   0  0  1  0  0  0
  -30.5219  -17.9625   20.8126 C   0  0  2  0  0  0
  -29.8346  -24.7448   19.5492 C   0  0  0  0  0  0
  -28.4249  -25.3825   19.5671 C   0  0  0  0  0  0
  -30.1174  -15.5905   21.0962 N   0  0  0  0  0  0
  -30.6303  -19.2538   21.5004 N   0  0  0  0  0  0
  -30.2159  -24.0025   20.7867 N   0  3  2  0  0  0
  -30.8579  -20.5271   19.6503 O   0  0  0  0  0  0
  -31.4587  -12.4202   19.1141 H   0  0  0  0  0  0
  -30.3254  -11.3310   19.8605 H   0  0  0  0  0  0
  -29.7425  -11.7498   17.4432 H   0  0  0  0  0  0
  -29.6275  -13.4646   17.7554 H   0  0  0  0  0  0
  -27.8555  -11.2538   18.8632 H   0  0  0  0  0  0
  -27.3522  -12.5351   17.7926 H   0  0  0  0  0  0
  -27.6321  -14.1887   19.4689 H   0  0  0  0  0  0
  -28.6942  -12.0357   21.3898 H   0  0  0  0  0  0
  -28.4552  -13.7012   21.8235 H   0  0  0  0  0  0
  -25.2726   -9.5678   22.4775 H   0  0  0  0  0  0
  -24.0004   -7.4594   22.7451 H   0  0  0  0  0  0
  -21.0831   -8.8735   19.8937 H   0  0  0  0  0  0
  -22.3655  -10.9660   19.6190 H   0  0  0  0  0  0
  -21.1970   -7.6144   23.9735 H   0  0  0  0  0  0
  -21.1490   -6.0514   25.9092 H   0  0  0  0  0  0
  -22.0599   -2.7612   23.2844 H   0  0  0  0  0  0
  -22.4046  -11.9876   22.4840 H   0  0  0  0  0  0
  -21.1073  -13.1263   22.2629 H   0  0  0  0  0  0
  -24.6476  -15.8261   20.5073 H   0  0  0  0  0  0
  -26.2617  -15.6207   20.0547 H   0  0  0  0  0  0
  -26.7111  -32.5532   23.1164 H   0  0  0  0  0  0
  -25.0091  -33.9791   25.0503 H   0  0  0  0  0  0
  -22.6925  -31.3117   21.4135 H   0  0  0  0  0  0
  -23.3754  -35.9650   23.3307 H   0  0  0  0  0  0
  -24.3589  -36.8920   22.2049 H   0  0  0  0  0  0
  -23.7245  -37.6523   23.6644 H   0  0  0  0  0  0
  -26.0470  -31.6004   20.5994 H   0  0  0  0  0  0
  -26.8186  -30.8827   21.9859 H   0  0  0  0  0  0
  -28.1009  -29.1033   21.1517 H   0  0  0  0  0  0
  -25.9979  -25.9694   19.0242 H   0  0  0  0  0  0
  -23.9657  -27.2948   19.0559 H   0  0  0  0  0  0
  -23.7201  -30.6023   19.4067 H   0  0  0  0  0  0
  -22.7347  -29.2477   19.8703 H   0  0  0  0  0  0
  -25.1290  -36.1983   25.0833 H   0  0  0  0  0  0
  -20.9954  -28.3233   24.1432 H   0  0  0  0  0  0
  -20.5669  -26.2278   23.3597 H   0  0  0  0  0  0
  -21.6636  -26.7455   22.1205 H   0  0  0  0  0  0
  -19.6912  -25.6303   21.1234 H   0  0  0  0  0  0
  -19.6688  -27.3200   20.6738 H   0  0  0  0  0  0
  -17.4196  -26.6676   21.4021 H   0  0  0  0  0  0
  -18.0331  -26.0061   22.9009 H   0  0  0  0  0  0
  -19.7923  -30.7254   24.2292 H   0  0  0  0  0  0
  -17.5009  -31.6269   24.5159 H   0  0  0  0  0  0
  -15.5346  -30.2999   23.7641 H   0  0  0  0  0  0
  -15.8662  -28.0827   22.7065 H   0  0  0  0  0  0
  -24.5929  -30.7026   25.7809 H   0  0  0  0  0  0
  -24.8930  -32.2845   26.4933 H   0  0  0  0  0  0
  -25.8112  -30.8857   27.0227 H   0  0  0  0  0  0
  -26.2845  -29.6795   24.1168 H   0  0  0  0  0  0
  -27.4078  -29.7276   25.4564 H   0  0  0  0  0  0
  -27.8682  -30.4357   23.9253 H   0  0  0  0  0  0
  -27.2688  -33.3603   26.2092 H   0  0  0  0  0  0
  -28.3851  -32.6877   25.0295 H   0  0  0  0  0  0
  -28.0745  -31.8414   26.5375 H   0  0  0  0  0  0
  -28.2600  -38.0110   24.7519 H   0  0  0  0  0  0
  -28.1087  -36.2643   24.6287 H   0  0  0  0  0  0
  -27.2303  -37.1455   25.8865 H   0  0  0  0  0  0
  -20.9286  -29.8767   21.6942 H   0  0  0  0  0  0
  -26.0192  -38.2874   24.1410 H   0  0  0  0  0  0
  -28.3991  -18.0906   21.1936 H   0  0  0  0  0  0
  -28.8044  -18.1497   19.4821 H   0  0  0  0  0  0
  -31.8470  -22.9343   22.8582 H   0  0  0  0  0  0
  -32.6784  -21.9339   21.6797 H   0  0  0  0  0  0
  -28.9362  -15.8607   19.3596 H   0  0  0  0  0  0
  -28.0342  -15.8670   20.8932 H   0  0  0  0  0  0
  -30.5437  -16.8595   22.6953 H   0  0  0  0  0  0
  -31.9534  -16.5658   21.7005 H   0  0  0  0  0  0
  -31.9854  -23.3183   19.8582 H   0  0  0  0  0  0
  -32.2625  -24.5295   21.1085 H   0  0  0  0  0  0
  -28.6380  -22.9273   21.7086 H   0  0  0  0  0  0
  -29.0647  -22.3356   20.1224 H   0  0  0  0  0  0
  -30.1120  -21.4366   22.6914 H   0  0  0  0  0  0
  -31.1457  -17.9494   19.9158 H   0  0  0  0  0  0
  -30.5682  -25.5250   19.3438 H   0  0  0  0  0  0
  -29.8959  -24.0526   18.7083 H   0  0  0  0  0  0
  -27.7154  -24.7485   20.1007 H   0  0  0  0  0  0
  -28.0919  -25.4349   18.5301 H   0  0  0  0  0  0
  -30.5290  -19.2567   22.5073 H   0  0  0  0  0  0
  -30.0451  -24.6116   21.5752 H   0  0  0  0  0  0
  1 25  1  0  0  0
  1 30  2  0  0  0
  1 82  1  0  0  0
  2  3  1  0  0  0
  2 25  1  0  0  0
  2 86  1  0  0  0
  2 87  1  0  0  0
  3  4  1  0  0  0
  3 88  1  0  0  0
  3 89  1  0  0  0
  4  5  1  0  0  0
  4 90  1  0  0  0
  4 91  1  0  0  0
  5  6  1  0  0  0
  5 26  1  0  0  0
  5 92  1  0  0  0
  6 25  1  0  0  0
  6 93  1  0  0  0
  6 94  1  0  0  0
  7  8  2  0  0  0
  7 26  1  0  0  0
  7 29  1  0  0  0
  8  9  1  0  0  0
  8 22  1  0  0  0
  9 10  1  0  0  0
  9 27  2  0  0  0
 10 11  2  0  0  0
 10 15  1  0  0  0
 11 12  1  0  0  0
 11 95  1  0  0  0
 12 13  2  0  0  0
 12 96  1  0  0  0
 13 14  1  0  0  0
 13 31  1  0  0  0
 14 15  2  0  0  0
 14 97  1  0  0  0
 15 98  1  0  0  0
 16 17  2  0  0  0
 16 21  1  0  0  0
 16 31  1  0  0  0
 17 18  1  0  0  0
 17 99  1  0  0  0
 18 19  2  0  0  0
 18100  1  0  0  0
 19 20  1  0  0  0
 19 24  1  0  0  0
 20 21  2  0  0  0
 20101  1  0  0  0
 21 23  1  0  0  0
 22 28  1  0  0  0
 22 32  2  0  0  0
 26 27  1  0  0  0
 28102  1  0  0  0
 28103  1  0  0  0
 29104  1  0  0  0
 29105  1  0  0  0
 33 34  1  0  0  0
 33 66  1  0  0  0
 33 70  2  0  0  0
 34 36  1  0  0  0
 34 59  1  0  0  0
 34106  1  0  0  0
 35 44  2  0  0  0
 35 45  1  0  0  0
 35 68  1  0  0  0
 36 56  1  0  0  0
 36107  1  0  0  0
 37 39  1  0  0  0
 37 47  1  0  0  0
 37 66  1  0  0  0
 37108  1  0  0  0
 38 43  2  0  0  0
 38 46  1  0  0  0
 38 47  1  0  0  0
 39 64  1  0  0  0
 39 67  2  0  0  0
 40 52  1  0  0  0
 40 53  2  0  0  0
 40 58  1  0  0  0
 41109  1  0  0  0
 41110  1  0  0  0
 41111  1  0  0  0
 41 48  1  0  0  0
 42 43  1  0  0  0
 42 66  1  0  0  0
 42112  1  0  0  0
 42113  1  0  0  0
 43 44  1  0  0  0
 44114  1  0  0  0
 45 46  2  0  0  0
 45115  1  0  0  0
 46116  1  0  0  0
 47117  1  0  0  0
 47118  1  0  0  0
 48 56  1  0  0  0
 48 65  1  0  0  0
 48119  1  0  0  0
 49 50  1  0  0  0
 49 53  1  0  0  0
 49 64  1  0  0  0
 49120  1  0  0  0
 50 51  1  0  0  0
 50121  1  0  0  0
 50122  1  0  0  0
 51 52  1  0  0  0
 51123  1  0  0  0
 51124  1  0  0  0
 52125  1  0  0  0
 52126  1  0  0  0
 53 54  1  0  0  0
 54 55  2  0  0  0
 54127  1  0  0  0
 55 57  1  0  0  0
 55128  1  0  0  0
 56 69  2  0  0  0
 57 58  2  0  0  0
 57129  1  0  0  0
 58130  1  0  0  0
 59 60  1  0  0  0
 59 61  1  0  0  0
 59 62  1  0  0  0
 60131  1  0  0  0
 60132  1  0  0  0
 60133  1  0  0  0
 61134  1  0  0  0
 61135  1  0  0  0
 61136  1  0  0  0
 62137  1  0  0  0
 62138  1  0  0  0
 62139  1  0  0  0
 63 65  1  0  0  0
 63140  1  0  0  0
 63141  1  0  0  0
 63142  1  0  0  0
 64143  1  0  0  0
 65144  1  0  0  0
 68 81  1  0  0  0
 71 83  1  0  0  0
 71 85  2  0  0  0
 71 78  1  0  0  0
 72 74  1  0  0  0
 72 79  1  0  0  0
 72145  1  0  0  0
 72146  1  0  0  0
 73 76  1  0  0  0
 73 78  1  0  0  0
 73147  1  0  0  0
 73148  1  0  0  0
 74 82  1  0  0  0
 74149  1  0  0  0
 74150  1  0  0  0
 75 79  1  0  0  0
 75 82  1  0  0  0
 75151  1  0  0  0
 75152  1  0  0  0
 76 84  1  0  0  0
 76153  1  0  0  0
 76154  1  0  0  0
 77 78  1  0  0  0
 77 84  1  0  0  0
 77155  1  0  0  0
 77156  1  0  0  0
 78157  1  0  0  0
 79 83  1  0  0  0
 79158  1  0  0  0
 80 81  1  0  0  0
 80159  1  0  0  0
 80160  1  0  0  0
 80 84  1  0  0  0
 81161  1  0  0  0
 81162  1  0  0  0
 83163  1  0  0  0
 84164  1  0  0  0
M  CHG  1  84   1
M  ISO  4   1 100  68 101  81 101  82 100
M  END
> <chiral flag>
0

> <version>
0

> <s_m_source_file>
/data/baiqing/PycharmProjects/Reinvent-master-3.2/result/LINK_invent/BTK/process_docking_weight1_custom_sum_contain_oxygen_bond_distance_aromatic_linkinvent_7_9_3/rearranged_h_0193.sdf

> <i_m_source_file_index>
60

> <r_mmod_Potential_Energy-OPLS-2005>
-0.190904289484024

> <r_mmod_Stretch_Energy-OPLS-2005>
39.9290428161621

> <r_mmod_Bend_Energy-OPLS-2005>
144.513595581055

> <r_mmod_Torsional_Energy-OPLS-2005>
368.357086181641

> <r_mmod_Improper_Torsional_Energy-OPLS-2005>
6.27074766159058

> <r_mmod_Van_der_Waal_Energy-OPLS-2005>
142.110931396484

> <r_mmod_Electrostatic_Energy-OPLS-2005>
-285.618316650391

> <r_mmod_Solvation_Energy-OPLS-2005>
-435.057556152344

> <b_mmod_Minimization_Converged-OPLS-2005>
0

> <r_mmod_RMS_Derivative-OPLS-2005>
1.34729731082916

$$$$
60
                    3D
 Structure written by MMmdl.
156165  0  0  1  0            999 V2000
  -30.5408  -15.0609   20.4196 C   0  0  0  0  0  0
  -30.4337  -12.6706   19.5099 C   0  0  0  0  0  0
  -29.5225  -12.5518   18.2657 C   0  0  0  0  0  0
  -28.0602  -12.3173   18.6851 C   0  0  0  0  0  0
  -27.6217  -13.2607   19.8351 C   0  0  2  0  0  0
  -28.6650  -13.3323   20.9707 C   0  0  0  0  0  0
  -25.2385  -13.8213   20.5696 C   0  0  0  0  0  0
  -24.1741  -13.0417   20.9243 C   0  0  0  0  0  0
  -24.6393  -11.6917   20.8768 C   0  0  0  0  0  0
  -23.9087  -10.4283   21.0409 C   0  0  0  0  0  0
  -24.3632   -9.4198   21.9187 C   0  0  0  0  0  0
  -23.6301   -8.2236   22.0755 C   0  0  0  0  0  0
  -22.4285   -8.0277   21.3544 C   0  0  0  0  0  0
  -21.9925   -9.0251   20.4646 C   0  0  0  0  0  0
  -22.7259  -10.2126   20.3055 C   0  0  0  0  0  0
  -21.6852   -6.0735   22.5280 C   0  0  0  0  0  0
  -21.4013   -6.5638   23.8213 C   0  0  0  0  0  0
  -21.3660   -5.6791   24.9176 C   0  0  0  0  0  0
  -21.6045   -4.3054   24.7225 C   0  0  0  0  0  0
  -21.8819   -3.8145   23.4346 C   0  0  0  0  0  0
  -21.9192   -4.6962   22.3402 C   0  0  0  0  0  0
  -22.7760  -13.5180   21.1890 C   0  0  0  0  0  0
  -22.1662   -4.2147   21.0980 F   0  0  0  0  0  0
  -21.5631   -3.4538   25.7738 F   0  0  0  0  0  0
  -29.9207  -13.7962   20.3605 N   0  0  0  0  0  0
  -26.2845  -12.9486   20.3249 N   0  0  0  0  0  0
  -25.9333  -11.6602   20.5757 N   0  0  0  0  0  0
  -22.0417  -12.8176   22.0453 N   0  0  0  0  0  0
  -25.3935  -15.1933   20.4041 N   0  0  0  0  0  0
  -31.7430  -15.0544   20.1228 O   0  0  0  0  0  0
  -21.6641   -6.8878   21.4242 O   0  0  0  0  0  0
  -22.3442  -14.5481   20.6726 O   0  0  0  0  0  0
  -24.6508  -31.8369   23.1820 C   0  0  0  0  0  0
  -25.9248  -32.4656   23.8236 C   0  0  1  0  0  0
  -27.2165  -27.0607   20.1607 C   0  0  0  0  0  0
  -25.5967  -33.8466   24.2148 N   0  0  0  0  0  0
  -23.4584  -30.4538   21.5290 C   0  0  2  0  0  0
  -24.9097  -28.8683   20.1092 C   0  0  0  0  0  0
  -22.7606  -29.4510   22.4832 C   0  0  0  0  0  0
  -18.0310  -28.1400   22.8473 C   0  0  0  0  0  0
  -24.1493  -36.7237   23.2644 C   0  0  0  0  0  0
  -26.0199  -30.6860   21.3930 C   0  0  0  0  0  0
  -26.0901  -29.2903   20.7339 C   0  0  0  0  0  0
  -27.2426  -28.4044   20.7403 C   0  0  0  0  0  0
  -26.0095  -26.7621   19.4896 C   0  0  0  0  0  0
  -24.8870  -27.6206   19.4692 C   0  0  0  0  0  0
  -23.6896  -29.7794   20.1503 C   0  0  0  0  0  0
  -25.4129  -36.3008   24.0309 C   0  0  1  0  0  0
  -20.5928  -28.3735   23.1218 C   0  0  2  0  0  0
  -20.6792  -26.9430   22.5404 C   0  0  0  0  0  0
  -19.5765  -26.6379   21.5214 C   0  0  0  0  0  0
  -18.1947  -26.7937   22.1623 C   0  0  0  0  0  0
  -19.1569  -28.8887   23.2834 C   0  0  0  0  0  0
  -18.9482  -30.1481   23.8862 C   0  0  0  0  0  0
  -17.6478  -30.6594   24.0557 C   0  0  0  0  0  0
  -25.9086  -34.9386   23.5042 C   0  0  0  0  0  0
  -16.5368  -29.9084   23.6339 C   0  0  0  0  0  0
  -16.7293  -28.6504   23.0359 C   0  0  0  0  0  0
  -26.4540  -31.6552   25.0712 C   0  0  0  0  0  0
  -25.3700  -31.3766   26.1390 C   0  0  0  0  0  0
  -27.0420  -30.2935   24.6356 C   0  0  0  0  0  0
  -27.6053  -32.4336   25.7506 C   0  0  0  0  0  0
  -27.5574  -37.1776   24.8465 C   0  0  0  0  0  0
  -21.4290  -29.3048   22.3582 N   0  0  0  0  0  0
  -26.4285  -37.3730   23.9407 N   0  0  0  0  0  0
  -24.7300  -31.0154   22.0891 N   0  0  0  0  0  0
  -23.4216  -28.8067   23.3016 O   0  0  0  0  0  0
  -28.2386  -26.0199   20.2458 O   0  0  0  0  0  0
  -26.5679  -34.8898   22.4627 O   0  0  0  0  0  0
  -23.5609  -32.1281   23.6994 O   0  0  0  0  0  0
  -30.1265  -23.3396   20.9839 C   0  0  0  0  0  0
  -28.8823  -23.1342   20.3798 C   0  0  0  0  0  0
  -30.9340  -22.2381   21.3089 C   0  0  0  0  0  0
  -29.4380  -20.6659   20.4725 C   0  0  0  0  0  0
  -28.5337  -18.2567   21.5297 C   0  0  0  0  0  0
  -28.6669  -16.6863   21.3179 C   0  0  0  0  0  0
  -30.2696  -17.7929   20.0573 C   0  0  0  0  0  0
  -29.1565  -19.0036   20.3332 C   0  0  2  0  0  0
  -32.9971  -21.3808   22.2030 C   0  0  0  0  0  0
  -27.9195  -24.4733   20.0380 C   0  0  0  0  0  0
  -28.5760  -21.7436   20.1462 N   0  0  0  0  0  0
  -30.5875  -20.9495   21.0726 N   0  0  0  0  0  0
  -29.8441  -16.3406   20.4917 N   0  0  0  0  0  0
  -32.1495  -22.4876   21.9082 O   0  0  0  0  0  0
  -31.4641  -12.8302   19.1895 H   0  0  0  0  0  0
  -30.4481  -11.7344   20.0702 H   0  0  0  0  0  0
  -29.8639  -11.7421   17.6192 H   0  0  0  0  0  0
  -29.5920  -13.4664   17.6747 H   0  0  0  0  0  0
  -27.9746  -11.2796   19.0095 H   0  0  0  0  0  0
  -27.3953  -12.4245   17.8271 H   0  0  0  0  0  0
  -27.5687  -14.2541   19.3886 H   0  0  0  0  0  0
  -28.7888  -12.3612   21.4520 H   0  0  0  0  0  0
  -28.3365  -14.0134   21.7537 H   0  0  0  0  0  0
  -25.2773   -9.5674   22.4768 H   0  0  0  0  0  0
  -24.0006   -7.4626   22.7476 H   0  0  0  0  0  0
  -21.0856   -8.8774   19.8952 H   0  0  0  0  0  0
  -22.3719  -10.9666   19.6165 H   0  0  0  0  0  0
  -21.2003   -7.6146   23.9718 H   0  0  0  0  0  0
  -21.1485   -6.0520   25.9080 H   0  0  0  0  0  0
  -22.0597   -2.7607   23.2847 H   0  0  0  0  0  0
  -22.4048  -11.9850   22.4853 H   0  0  0  0  0  0
  -21.1024  -13.1185   22.2641 H   0  0  0  0  0  0
  -24.6161  -15.8363   20.5085 H   0  0  0  0  0  0
  -26.2272  -15.6354   20.0410 H   0  0  0  0  0  0
  -26.7315  -32.5235   23.0959 H   0  0  0  0  0  0
  -25.0080  -33.9566   25.0274 H   0  0  0  0  0  0
  -22.7647  -31.2818   21.3692 H   0  0  0  0  0  0
  -23.3764  -35.9560   23.3285 H   0  0  0  0  0  0
  -24.3575  -36.8896   22.2062 H   0  0  0  0  0  0
  -23.7240  -37.6421   23.6702 H   0  0  0  0  0  0
  -26.1861  -31.4371   20.6196 H   0  0  0  0  0  0
  -26.8859  -30.7373   22.0413 H   0  0  0  0  0  0
  -28.1378  -28.7217   21.2565 H   0  0  0  0  0  0
  -25.8936  -25.8103   18.9937 H   0  0  0  0  0  0
  -23.9882  -27.2933   18.9646 H   0  0  0  0  0  0
  -23.8327  -30.5523   19.3943 H   0  0  0  0  0  0
  -22.8025  -29.2258   19.8371 H   0  0  0  0  0  0
  -25.1322  -36.1823   25.0800 H   0  0  0  0  0  0
  -21.0016  -28.3329   24.1342 H   0  0  0  0  0  0
  -20.5683  -26.2350   23.3631 H   0  0  0  0  0  0
  -21.6656  -26.7426   22.1203 H   0  0  0  0  0  0
  -19.6926  -25.6281   21.1264 H   0  0  0  0  0  0
  -19.6702  -27.3171   20.6730 H   0  0  0  0  0  0
  -17.4217  -26.6680   21.4026 H   0  0  0  0  0  0
  -18.0344  -26.0086   22.9026 H   0  0  0  0  0  0
  -19.7958  -30.7305   24.2216 H   0  0  0  0  0  0
  -17.5030  -31.6271   24.5165 H   0  0  0  0  0  0
  -15.5367  -30.2975   23.7684 H   0  0  0  0  0  0
  -15.8693  -28.0811   22.7095 H   0  0  0  0  0  0
  -24.5892  -30.7102   25.7705 H   0  0  0  0  0  0
  -24.8876  -32.2955   26.4729 H   0  0  0  0  0  0
  -25.7961  -30.8993   27.0224 H   0  0  0  0  0  0
  -26.3061  -29.6636   24.1345 H   0  0  0  0  0  0
  -27.3982  -29.7263   25.4966 H   0  0  0  0  0  0
  -27.8990  -30.4147   23.9727 H   0  0  0  0  0  0
  -27.2634  -33.3666   26.1999 H   0  0  0  0  0  0
  -28.3909  -32.6850   25.0368 H   0  0  0  0  0  0
  -28.0672  -31.8518   26.5493 H   0  0  0  0  0  0
  -28.2578  -38.0085   24.7514 H   0  0  0  0  0  0
  -28.1083  -36.2614   24.6290 H   0  0  0  0  0  0
  -27.2291  -37.1416   25.8867 H   0  0  0  0  0  0
  -20.9519  -29.8751   21.6740 H   0  0  0  0  0  0
  -26.0144  -38.2794   24.1411 H   0  0  0  0  0  0
  -30.4584  -24.3451   21.2052 H   0  0  0  0  0  0
  -29.0896  -18.5364   22.4258 H   0  0  0  0  0  0
  -27.5007  -18.5620   21.6991 H   0  0  0  0  0  0
  -27.7848  -16.3164   20.8013 H   0  0  0  0  0  0
  -28.7119  -16.1832   22.2844 H   0  0  0  0  0  0
  -31.1722  -18.0292   20.6224 H   0  0  0  0  0  0
  -30.5678  -17.7923   19.0086 H   0  0  0  0  0  0
  -28.4373  -18.9325   19.5168 H   0  0  0  0  0  0
  -33.9173  -21.7415   22.6617 H   0  0  0  0  0  0
  -33.2710  -20.8371   21.2977 H   0  0  0  0  0  0
  -32.5262  -20.6912   22.9049 H   0  0  0  0  0  0
  -26.9897  -24.2865   20.5758 H   0  0  0  0  0  0
  -27.6652  -24.3637   18.9839 H   0  0  0  0  0  0
  1 25  1  0  0  0
  1 30  2  0  0  0
  1 83  1  0  0  0
  2  3  1  0  0  0
  2 25  1  0  0  0
  2 85  1  0  0  0
  2 86  1  0  0  0
  3  4  1  0  0  0
  3 87  1  0  0  0
  3 88  1  0  0  0
  4  5  1  0  0  0
  4 89  1  0  0  0
  4 90  1  0  0  0
  5  6  1  0  0  0
  5 26  1  0  0  0
  5 91  1  0  0  0
  6 25  1  0  0  0
  6 92  1  0  0  0
  6 93  1  0  0  0
  7  8  2  0  0  0
  7 26  1  0  0  0
  7 29  1  0  0  0
  8  9  1  0  0  0
  8 22  1  0  0  0
  9 10  1  0  0  0
  9 27  2  0  0  0
 10 11  2  0  0  0
 10 15  1  0  0  0
 11 12  1  0  0  0
 11 94  1  0  0  0
 12 13  2  0  0  0
 12 95  1  0  0  0
 13 14  1  0  0  0
 13 31  1  0  0  0
 14 15  2  0  0  0
 14 96  1  0  0  0
 15 97  1  0  0  0
 16 17  2  0  0  0
 16 21  1  0  0  0
 16 31  1  0  0  0
 17 18  1  0  0  0
 17 98  1  0  0  0
 18 19  2  0  0  0
 18 99  1  0  0  0
 19 20  1  0  0  0
 19 24  1  0  0  0
 20 21  2  0  0  0
 20100  1  0  0  0
 21 23  1  0  0  0
 22 28  1  0  0  0
 22 32  2  0  0  0
 26 27  1  0  0  0
 28101  1  0  0  0
 28102  1  0  0  0
 29103  1  0  0  0
 29104  1  0  0  0
 33 34  1  0  0  0
 33 66  1  0  0  0
 33 70  2  0  0  0
 34 36  1  0  0  0
 34 59  1  0  0  0
 34105  1  0  0  0
 35 44  2  0  0  0
 35 45  1  0  0  0
 35 68  1  0  0  0
 36 56  1  0  0  0
 36106  1  0  0  0
 37 39  1  0  0  0
 37 47  1  0  0  0
 37 66  1  0  0  0
 37107  1  0  0  0
 38 43  2  0  0  0
 38 46  1  0  0  0
 38 47  1  0  0  0
 39 64  1  0  0  0
 39 67  2  0  0  0
 40 52  1  0  0  0
 40 53  2  0  0  0
 40 58  1  0  0  0
 41108  1  0  0  0
 41109  1  0  0  0
 41110  1  0  0  0
 41 48  1  0  0  0
 42 43  1  0  0  0
 42 66  1  0  0  0
 42111  1  0  0  0
 42112  1  0  0  0
 43 44  1  0  0  0
 44113  1  0  0  0
 45 46  2  0  0  0
 45114  1  0  0  0
 46115  1  0  0  0
 47116  1  0  0  0
 47117  1  0  0  0
 48 56  1  0  0  0
 48 65  1  0  0  0
 48118  1  0  0  0
 49 50  1  0  0  0
 49 53  1  0  0  0
 49 64  1  0  0  0
 49119  1  0  0  0
 50 51  1  0  0  0
 50120  1  0  0  0
 50121  1  0  0  0
 51 52  1  0  0  0
 51122  1  0  0  0
 51123  1  0  0  0
 52124  1  0  0  0
 52125  1  0  0  0
 53 54  1  0  0  0
 54 55  2  0  0  0
 54126  1  0  0  0
 55 57  1  0  0  0
 55127  1  0  0  0
 56 69  2  0  0  0
 57 58  2  0  0  0
 57128  1  0  0  0
 58129  1  0  0  0
 59 60  1  0  0  0
 59 61  1  0  0  0
 59 62  1  0  0  0
 60130  1  0  0  0
 60131  1  0  0  0
 60132  1  0  0  0
 61133  1  0  0  0
 61134  1  0  0  0
 61135  1  0  0  0
 62136  1  0  0  0
 62137  1  0  0  0
 62138  1  0  0  0
 63 65  1  0  0  0
 63139  1  0  0  0
 63140  1  0  0  0
 63141  1  0  0  0
 64142  1  0  0  0
 65143  1  0  0  0
 68 80  1  0  0  0
 71 72  2  0  0  0
 71 73  1  0  0  0
 71144  1  0  0  0
 72 80  1  0  0  0
 72 81  1  0  0  0
 73 82  2  0  0  0
 73 84  1  0  0  0
 74 81  2  0  0  0
 74 82  1  0  0  0
 74 78  1  0  0  0
 75 76  1  0  0  0
 75 78  1  0  0  0
 75145  1  0  0  0
 75146  1  0  0  0
 76 83  1  0  0  0
 76147  1  0  0  0
 76148  1  0  0  0
 77 78  1  0  0  0
 77 83  1  0  0  0
 77149  1  0  0  0
 77150  1  0  0  0
 78151  1  0  0  0
 79 84  1  0  0  0
 79152  1  0  0  0
 79153  1  0  0  0
 79154  1  0  0  0
 80155  1  0  0  0
 80156  1  0  0  0
M  ISO  4   1 100  68 101  80 101  83 100
M  END
> <chiral flag>
0

> <version>
0

> <s_m_source_file>
/data/baiqing/PycharmProjects/Reinvent-master-3.2/result/LINK_invent/BTK/process_docking_weight1_custom_sum_contain_oxygen_bond_distance_aromatic_linkinvent_7_9_3/rearranged_h_0193.sdf

> <i_m_source_file_index>
61

> <r_mmod_Potential_Energy-OPLS-2005>
409.104187011719

> <r_mmod_Stretch_Energy-OPLS-2005>
330.406341552734

> <r_mmod_Bend_Energy-OPLS-2005>
338.673461914062

> <r_mmod_Torsional_Energy-OPLS-2005>
284.960144042969

> <r_mmod_Improper_Torsional_Energy-OPLS-2005>
8.7743034362793

> <r_mmod_Van_der_Waal_Energy-OPLS-2005>
136.497756958008

> <r_mmod_Electrostatic_Energy-OPLS-2005>
-730.107849121094

> <r_mmod_Solvation_Energy-OPLS-2005>
-230.424591064453

> <b_mmod_Minimization_Converged-OPLS-2005>
0

> <r_mmod_RMS_Derivative-OPLS-2005>
0.349913716316223

$$$$
61
                    3D
 Structure written by MMmdl.
160169  0  0  1  0            999 V2000
  -30.6846  -14.5568   20.5498 C   0  0  0  0  0  0
  -30.4170  -12.3542   19.4425 C   0  0  0  0  0  0
  -29.4980  -12.5074   18.2135 C   0  0  0  0  0  0
  -28.0190  -12.3669   18.6212 C   0  0  0  0  0  0
  -27.6514  -13.2236   19.8640 C   0  0  2  0  0  0
  -28.6923  -13.0617   20.9941 C   0  0  0  0  0  0
  -25.2517  -13.8198   20.5696 C   0  0  0  0  0  0
  -24.1804  -13.0439   20.9178 C   0  0  0  0  0  0
  -24.6394  -11.6920   20.8723 C   0  0  0  0  0  0
  -23.9072  -10.4297   21.0390 C   0  0  0  0  0  0
  -24.3620   -9.4219   21.9172 C   0  0  0  0  0  0
  -23.6294   -8.2257   22.0752 C   0  0  0  0  0  0
  -22.4275   -8.0285   21.3545 C   0  0  0  0  0  0
  -21.9906   -9.0261   20.4651 C   0  0  0  0  0  0
  -22.7244  -10.2140   20.3043 C   0  0  0  0  0  0
  -21.6847   -6.0733   22.5279 C   0  0  0  0  0  0
  -21.4036   -6.5637   23.8215 C   0  0  0  0  0  0
  -21.3668   -5.6786   24.9177 C   0  0  0  0  0  0
  -21.6045   -4.3053   24.7225 C   0  0  0  0  0  0
  -21.8817   -3.8148   23.4345 C   0  0  0  0  0  0
  -21.9186   -4.6961   22.3405 C   0  0  0  0  0  0
  -22.7825  -13.5225   21.1833 C   0  0  0  0  0  0
  -22.1651   -4.2150   21.0978 F   0  0  0  0  0  0
  -21.5613   -3.4533   25.7740 F   0  0  0  0  0  0
  -30.0128  -13.3738   20.4285 N   0  0  0  0  0  0
  -26.2963  -12.9402   20.3330 N   0  0  0  0  0  0
  -25.9316  -11.6551   20.5741 N   0  0  0  0  0  0
  -22.0448  -12.8253   22.0400 N   0  0  0  0  0  0
  -25.4149  -15.1932   20.4149 N   0  0  0  0  0  0
  -31.8267  -14.7000   20.0967 O   0  0  0  0  0  0
  -21.6634   -6.8885   21.4244 O   0  0  0  0  0  0
  -22.3517  -14.5523   20.6658 O   0  0  0  0  0  0
  -24.6199  -31.8638   23.2064 C   0  0  0  0  0  0
  -25.9065  -32.4806   23.8366 C   0  0  1  0  0  0
  -27.2274  -27.3718   20.0997 C   0  0  0  0  0  0
  -25.5902  -33.8607   24.2281 N   0  0  0  0  0  0
  -23.4115  -30.4866   21.5515 C   0  0  2  0  0  0
  -24.8586  -28.9572   20.1049 C   0  0  0  0  0  0
  -22.7452  -29.4624   22.4998 C   0  0  0  0  0  0
  -18.0275  -28.1392   22.8499 C   0  0  0  0  0  0
  -24.1486  -36.7326   23.2640 C   0  0  0  0  0  0
  -25.9457  -30.8070   21.3732 C   0  0  0  0  0  0
  -26.0210  -29.4388   20.7180 C   0  0  0  0  0  0
  -27.2073  -28.6546   20.7146 C   0  0  0  0  0  0
  -26.0501  -26.9500   19.4335 C   0  0  0  0  0  0
  -24.8746  -27.7179   19.4513 C   0  0  0  0  0  0
  -23.6196  -29.8248   20.1640 C   0  0  0  0  0  0
  -25.4110  -36.3104   24.0328 C   0  0  1  0  0  0
  -20.5874  -28.3678   23.1325 C   0  0  2  0  0  0
  -20.6775  -26.9414   22.5430 C   0  0  0  0  0  0
  -19.5741  -26.6394   21.5238 C   0  0  0  0  0  0
  -18.1918  -26.7932   22.1643 C   0  0  0  0  0  0
  -19.1529  -28.8852   23.2903 C   0  0  0  0  0  0
  -18.9449  -30.1465   23.8912 C   0  0  0  0  0  0
  -17.6449  -30.6594   24.0573 C   0  0  0  0  0  0
  -25.9040  -34.9473   23.5106 C   0  0  0  0  0  0
  -16.5337  -29.9100   23.6330 C   0  0  0  0  0  0
  -16.7266  -28.6518   23.0339 C   0  0  0  0  0  0
  -26.4467  -31.6600   25.0714 C   0  0  0  0  0  0
  -25.3715  -31.3726   26.1450 C   0  0  0  0  0  0
  -27.0291  -30.3024   24.6130 C   0  0  0  0  0  0
  -27.6018  -32.4353   25.7477 C   0  0  0  0  0  0
  -27.5580  -37.1820   24.8460 C   0  0  0  0  0  0
  -21.4170  -29.3028   22.3731 N   0  0  0  0  0  0
  -26.4290  -37.3793   23.9407 N   0  0  0  0  0  0
  -24.6778  -31.0682   22.1014 N   0  0  0  0  0  0
  -23.4196  -28.8179   23.3064 O   0  0  0  0  0  0
  -28.3537  -26.5472   20.1703 O   0  0  0  0  0  0
  -26.5614  -34.8932   22.4672 O   0  0  0  0  0  0
  -23.5374  -32.1429   23.7420 O   0  0  0  0  0  0
  -30.5606  -21.1096   18.7278 C   0  0  0  0  0  0
  -30.7983  -18.9898   18.6806 C   0  0  0  0  0  0
  -30.0112  -20.6272   19.8967 C   0  0  0  0  0  0
  -30.9343  -17.7673   21.7793 C   0  0  0  0  0  0
  -30.6135  -16.3306   22.2268 C   0  0  0  0  0  0
  -29.4674  -16.7061   20.2133 C   0  0  0  0  0  0
  -29.8092  -18.1225   20.8140 C   0  0  2  0  0  0
  -29.4266  -21.5052   20.9984 C   0  0  0  0  0  0
  -29.1481  -24.0676   20.5470 C   0  0  0  0  0  0
  -28.1286  -25.1142   19.9685 C   0  0  0  0  0  0
  -31.0522  -20.0694   17.9533 N   0  0  0  0  0  0
  -30.1605  -19.2041   19.8473 N   0  0  0  0  0  0
  -30.0169  -15.6263   21.0823 N   0  0  0  0  0  0
  -28.5996  -22.6591   20.5049 N   0  3  0  0  0  0
  -31.4628  -12.4468   19.1423 H   0  0  0  0  0  0
  -30.3228  -11.3573   19.8747 H   0  0  0  0  0  0
  -29.7528  -11.7604   17.4598 H   0  0  0  0  0  0
  -29.6618  -13.4796   17.7457 H   0  0  0  0  0  0
  -27.8344  -11.3127   18.8320 H   0  0  0  0  0  0
  -27.3731  -12.6246   17.7808 H   0  0  0  0  0  0
  -27.6776  -14.2639   19.5417 H   0  0  0  0  0  0
  -28.6855  -12.0416   21.3811 H   0  0  0  0  0  0
  -28.4420  -13.7088   21.8362 H   0  0  0  0  0  0
  -25.2762   -9.5690   22.4760 H   0  0  0  0  0  0
  -23.9990   -7.4650   22.7477 H   0  0  0  0  0  0
  -21.0828   -8.8799   19.8970 H   0  0  0  0  0  0
  -22.3699  -10.9676   19.6162 H   0  0  0  0  0  0
  -21.2057   -7.6145   23.9735 H   0  0  0  0  0  0
  -21.1481   -6.0506   25.9080 H   0  0  0  0  0  0
  -22.0583   -2.7604   23.2836 H   0  0  0  0  0  0
  -22.4045  -11.9963   22.4879 H   0  0  0  0  0  0
  -21.1058  -13.1300   22.2553 H   0  0  0  0  0  0
  -24.6427  -15.8387   20.5389 H   0  0  0  0  0  0
  -26.2655  -15.6474   20.1108 H   0  0  0  0  0  0
  -26.7117  -32.5496   23.1108 H   0  0  0  0  0  0
  -25.0020  -33.9742   25.0404 H   0  0  0  0  0  0
  -22.7031  -31.3056   21.4151 H   0  0  0  0  0  0
  -23.3740  -35.9667   23.3307 H   0  0  0  0  0  0
  -24.3572  -36.8950   22.2053 H   0  0  0  0  0  0
  -23.7252  -37.6535   23.6663 H   0  0  0  0  0  0
  -26.0631  -31.5700   20.6023 H   0  0  0  0  0  0
  -26.8323  -30.8601   21.9932 H   0  0  0  0  0  0
  -28.0959  -29.0169   21.2130 H   0  0  0  0  0  0
  -26.0047  -26.0200   18.8863 H   0  0  0  0  0  0
  -23.9935  -27.3544   18.9408 H   0  0  0  0  0  0
  -23.7202  -30.6013   19.4050 H   0  0  0  0  0  0
  -22.7444  -29.2424   19.8739 H   0  0  0  0  0  0
  -25.1287  -36.1964   25.0821 H   0  0  0  0  0  0
  -20.9938  -28.3250   24.1457 H   0  0  0  0  0  0
  -20.5738  -26.2274   23.3618 H   0  0  0  0  0  0
  -21.6639  -26.7499   22.1187 H   0  0  0  0  0  0
  -19.6911  -25.6312   21.1255 H   0  0  0  0  0  0
  -19.6682  -27.3225   20.6786 H   0  0  0  0  0  0
  -17.4198  -26.6698   21.4032 H   0  0  0  0  0  0
  -18.0307  -26.0075   22.9042 H   0  0  0  0  0  0
  -19.7923  -30.7283   24.2284 H   0  0  0  0  0  0
  -17.4998  -31.6270   24.5186 H   0  0  0  0  0  0
  -15.5338  -30.2998   23.7649 H   0  0  0  0  0  0
  -15.8664  -28.0849   22.7028 H   0  0  0  0  0  0
  -24.5861  -30.7107   25.7780 H   0  0  0  0  0  0
  -24.8933  -32.2890   26.4914 H   0  0  0  0  0  0
  -25.8040  -30.8865   27.0200 H   0  0  0  0  0  0
  -26.2837  -29.6803   24.1154 H   0  0  0  0  0  0
  -27.3997  -29.7251   25.4610 H   0  0  0  0  0  0
  -27.8710  -30.4314   23.9322 H   0  0  0  0  0  0
  -27.2590  -33.3651   26.2031 H   0  0  0  0  0  0
  -28.3813  -32.6933   25.0296 H   0  0  0  0  0  0
  -28.0691  -31.8508   26.5410 H   0  0  0  0  0  0
  -28.2595  -38.0118   24.7499 H   0  0  0  0  0  0
  -28.1074  -36.2650   24.6287 H   0  0  0  0  0  0
  -27.2297  -37.1474   25.8861 H   0  0  0  0  0  0
  -20.9360  -29.8708   21.6895 H   0  0  0  0  0  0
  -26.0183  -38.2872   24.1405 H   0  0  0  0  0  0
  -30.6433  -22.1354   18.3951 H   0  0  0  0  0  0
  -31.1041  -18.0123   18.3393 H   0  0  0  0  0  0
  -31.8950  -17.7717   21.2611 H   0  0  0  0  0  0
  -31.0077  -18.4590   22.6187 H   0  0  0  0  0  0
  -29.8738  -16.3444   23.0290 H   0  0  0  0  0  0
  -31.4970  -15.8283   22.6268 H   0  0  0  0  0  0
  -29.8335  -16.5696   19.1967 H   0  0  0  0  0  0
  -28.3858  -16.5922   20.1478 H   0  0  0  0  0  0
  -28.9521  -18.4577   21.3998 H   0  0  0  0  0  0
  -30.2240  -21.8741   21.6461 H   0  0  0  0  0  0
  -28.7850  -20.8990   21.6395 H   0  0  0  0  0  0
  -29.3780  -24.3240   21.5822 H   0  0  0  0  0  0
  -30.0869  -24.1285   19.9945 H   0  0  0  0  0  0
  -27.1652  -24.8510   20.4075 H   0  0  0  0  0  0
  -28.0423  -24.9416   18.8951 H   0  0  0  0  0  0
  -27.7730  -22.6541   21.0838 H   0  0  0  0  0  0
  -28.2906  -22.4362   19.5729 H   0  0  0  0  0  0
  1 25  1  0  0  0
  1 30  2  0  0  0
  1 83  1  0  0  0
  2  3  1  0  0  0
  2 25  1  0  0  0
  2 85  1  0  0  0
  2 86  1  0  0  0
  3  4  1  0  0  0
  3 87  1  0  0  0
  3 88  1  0  0  0
  4  5  1  0  0  0
  4 89  1  0  0  0
  4 90  1  0  0  0
  5  6  1  0  0  0
  5 26  1  0  0  0
  5 91  1  0  0  0
  6 25  1  0  0  0
  6 92  1  0  0  0
  6 93  1  0  0  0
  7  8  2  0  0  0
  7 26  1  0  0  0
  7 29  1  0  0  0
  8  9  1  0  0  0
  8 22  1  0  0  0
  9 10  1  0  0  0
  9 27  2  0  0  0
 10 11  2  0  0  0
 10 15  1  0  0  0
 11 12  1  0  0  0
 11 94  1  0  0  0
 12 13  2  0  0  0
 12 95  1  0  0  0
 13 14  1  0  0  0
 13 31  1  0  0  0
 14 15  2  0  0  0
 14 96  1  0  0  0
 15 97  1  0  0  0
 16 17  2  0  0  0
 16 21  1  0  0  0
 16 31  1  0  0  0
 17 18  1  0  0  0
 17 98  1  0  0  0
 18 19  2  0  0  0
 18 99  1  0  0  0
 19 20  1  0  0  0
 19 24  1  0  0  0
 20 21  2  0  0  0
 20100  1  0  0  0
 21 23  1  0  0  0
 22 28  1  0  0  0
 22 32  2  0  0  0
 26 27  1  0  0  0
 28101  1  0  0  0
 28102  1  0  0  0
 29103  1  0  0  0
 29104  1  0  0  0
 33 34  1  0  0  0
 33 66  1  0  0  0
 33 70  2  0  0  0
 34 36  1  0  0  0
 34 59  1  0  0  0
 34105  1  0  0  0
 35 44  2  0  0  0
 35 45  1  0  0  0
 35 68  1  0  0  0
 36 56  1  0  0  0
 36106  1  0  0  0
 37 39  1  0  0  0
 37 47  1  0  0  0
 37 66  1  0  0  0
 37107  1  0  0  0
 38 43  2  0  0  0
 38 46  1  0  0  0
 38 47  1  0  0  0
 39 64  1  0  0  0
 39 67  2  0  0  0
 40 52  1  0  0  0
 40 53  2  0  0  0
 40 58  1  0  0  0
 41108  1  0  0  0
 41109  1  0  0  0
 41110  1  0  0  0
 41 48  1  0  0  0
 42 43  1  0  0  0
 42 66  1  0  0  0
 42111  1  0  0  0
 42112  1  0  0  0
 43 44  1  0  0  0
 44113  1  0  0  0
 45 46  2  0  0  0
 45114  1  0  0  0
 46115  1  0  0  0
 47116  1  0  0  0
 47117  1  0  0  0
 48 56  1  0  0  0
 48 65  1  0  0  0
 48118  1  0  0  0
 49 50  1  0  0  0
 49 53  1  0  0  0
 49 64  1  0  0  0
 49119  1  0  0  0
 50 51  1  0  0  0
 50120  1  0  0  0
 50121  1  0  0  0
 51 52  1  0  0  0
 51122  1  0  0  0
 51123  1  0  0  0
 52124  1  0  0  0
 52125  1  0  0  0
 53 54  1  0  0  0
 54 55  2  0  0  0
 54126  1  0  0  0
 55 57  1  0  0  0
 55127  1  0  0  0
 56 69  2  0  0  0
 57 58  2  0  0  0
 57128  1  0  0  0
 58129  1  0  0  0
 59 60  1  0  0  0
 59 61  1  0  0  0
 59 62  1  0  0  0
 60130  1  0  0  0
 60131  1  0  0  0
 60132  1  0  0  0
 61133  1  0  0  0
 61134  1  0  0  0
 61135  1  0  0  0
 62136  1  0  0  0
 62137  1  0  0  0
 62138  1  0  0  0
 63 65  1  0  0  0
 63139  1  0  0  0
 63140  1  0  0  0
 63141  1  0  0  0
 64142  1  0  0  0
 65143  1  0  0  0
 68 80  1  0  0  0
 71 73  2  0  0  0
 71 81  1  0  0  0
 71144  1  0  0  0
 72 81  2  0  0  0
 72 82  1  0  0  0
 72145  1  0  0  0
 73 78  1  0  0  0
 73 82  1  0  0  0
 74 75  1  0  0  0
 74 77  1  0  0  0
 74146  1  0  0  0
 74147  1  0  0  0
 75 83  1  0  0  0
 75148  1  0  0  0
 75149  1  0  0  0
 76 77  1  0  0  0
 76 83  1  0  0  0
 76150  1  0  0  0
 76151  1  0  0  0
 77 82  1  0  0  0
 77152  1  0  0  0
 78 84  1  0  0  0
 78153  1  0  0  0
 78154  1  0  0  0
 79 80  1  0  0  0
 79 84  1  0  0  0
 79155  1  0  0  0
 79156  1  0  0  0
 80157  1  0  0  0
 80158  1  0  0  0
 84159  1  0  0  0
 84160  1  0  0  0
M  CHG  1  84   1
M  ISO  4   1 100  68 101  80 101  83 100
M  END
> <chiral flag>
0

> <version>
0

> <s_m_source_file>
/data/baiqing/PycharmProjects/Reinvent-master-3.2/result/LINK_invent/BTK/process_docking_weight1_custom_sum_contain_oxygen_bond_distance_aromatic_linkinvent_7_9_3/rearranged_h_0193.sdf

> <i_m_source_file_index>
62

> <r_mmod_Potential_Energy-OPLS-2005>
78.2609481811523

> <r_mmod_Stretch_Energy-OPLS-2005>
61.6172218322754

> <r_mmod_Bend_Energy-OPLS-2005>
156.363922119141

> <r_mmod_Torsional_Energy-OPLS-2005>
357.067993164062

> <r_mmod_Improper_Torsional_Energy-OPLS-2005>
7.27578973770142

> <r_mmod_Van_der_Waal_Energy-OPLS-2005>
124.275413513184

> <r_mmod_Electrostatic_Energy-OPLS-2005>
-178.632858276367

> <r_mmod_Solvation_Energy-OPLS-2005>
-479.585662841797

> <b_mmod_Minimization_Converged-OPLS-2005>
0

> <r_mmod_RMS_Derivative-OPLS-2005>
2.78770565986633

$$$$
62
                    3D
 Structure written by MMmdl.
158167  0  0  1  0            999 V2000
  -30.7236  -14.5780   20.5341 C   0  0  0  0  0  0
  -30.4079  -12.3663   19.4570 C   0  0  0  0  0  0
  -29.4936  -12.5012   18.2235 C   0  0  0  0  0  0
  -28.0198  -12.3453   18.6379 C   0  0  0  0  0  0
  -27.6473  -13.2252   19.8607 C   0  0  2  0  0  0
  -28.6912  -13.1118   20.9959 C   0  0  0  0  0  0
  -25.2517  -13.8190   20.5695 C   0  0  0  0  0  0
  -24.1807  -13.0441   20.9213 C   0  0  0  0  0  0
  -24.6393  -11.6919   20.8761 C   0  0  0  0  0  0
  -23.9071  -10.4296   21.0414 C   0  0  0  0  0  0
  -24.3621   -9.4207   21.9188 C   0  0  0  0  0  0
  -23.6295   -8.2244   22.0755 C   0  0  0  0  0  0
  -22.4276   -8.0284   21.3546 C   0  0  0  0  0  0
  -21.9915   -9.0261   20.4651 C   0  0  0  0  0  0
  -22.7245  -10.2138   20.3061 C   0  0  0  0  0  0
  -21.6853   -6.0738   22.5279 C   0  0  0  0  0  0
  -21.4016   -6.5640   23.8214 C   0  0  0  0  0  0
  -21.3660   -5.6793   24.9174 C   0  0  0  0  0  0
  -21.6042   -4.3056   24.7225 C   0  0  0  0  0  0
  -21.8818   -3.8149   23.4346 C   0  0  0  0  0  0
  -21.9192   -4.6966   22.3402 C   0  0  0  0  0  0
  -22.7827  -13.5226   21.1862 C   0  0  0  0  0  0
  -22.1661   -4.2152   21.0981 F   0  0  0  0  0  0
  -21.5626   -3.4539   25.7738 F   0  0  0  0  0  0
  -30.0124  -13.4106   20.4271 N   0  0  0  0  0  0
  -26.2958  -12.9398   20.3332 N   0  0  0  0  0  0
  -25.9325  -11.6544   20.5785 N   0  0  0  0  0  0
  -22.0469  -12.8221   22.0417 N   0  0  0  0  0  0
  -25.4177  -15.1912   20.4058 N   0  0  0  0  0  0
  -31.8624  -14.6533   20.0630 O   0  0  0  0  0  0
  -21.6639   -6.8884   21.4242 O   0  0  0  0  0  0
  -22.3517  -14.5532   20.6704 O   0  0  0  0  0  0
  -24.6230  -31.8625   23.2062 C   0  0  0  0  0  0
  -25.9095  -32.4790   23.8373 C   0  0  1  0  0  0
  -27.2136  -27.3453   20.1150 C   0  0  0  0  0  0
  -25.5925  -33.8592   24.2297 N   0  0  0  0  0  0
  -23.4146  -30.4886   21.5476 C   0  0  2  0  0  0
  -24.8606  -28.9559   20.1020 C   0  0  0  0  0  0
  -22.7457  -29.4635   22.4940 C   0  0  0  0  0  0
  -18.0282  -28.1383   22.8487 C   0  0  0  0  0  0
  -24.1489  -36.7299   23.2637 C   0  0  0  0  0  0
  -25.9534  -30.8023   21.3745 C   0  0  0  0  0  0
  -26.0264  -29.4343   20.7133 C   0  0  0  0  0  0
  -27.2069  -28.6390   20.7138 C   0  0  0  0  0  0
  -26.0379  -26.9324   19.4458 C   0  0  0  0  0  0
  -24.8676  -27.7105   19.4577 C   0  0  0  0  0  0
  -23.6260  -29.8297   20.1593 C   0  0  0  0  0  0
  -25.4112  -36.3090   24.0331 C   0  0  1  0  0  0
  -20.5881  -28.3684   23.1291 C   0  0  2  0  0  0
  -20.6772  -26.9411   22.5412 C   0  0  0  0  0  0
  -19.5750  -26.6387   21.5212 C   0  0  0  0  0  0
  -18.1929  -26.7927   22.1624 C   0  0  0  0  0  0
  -19.1534  -28.8850   23.2886 C   0  0  0  0  0  0
  -18.9458  -30.1451   23.8904 C   0  0  0  0  0  0
  -17.6459  -30.6587   24.0563 C   0  0  0  0  0  0
  -25.9047  -34.9458   23.5111 C   0  0  0  0  0  0
  -16.5350  -29.9089   23.6328 C   0  0  0  0  0  0
  -16.7270  -28.6504   23.0352 C   0  0  0  0  0  0
  -26.4493  -31.6591   25.0729 C   0  0  0  0  0  0
  -25.3736  -31.3721   26.1462 C   0  0  0  0  0  0
  -27.0331  -30.3017   24.6165 C   0  0  0  0  0  0
  -27.6052  -32.4321   25.7501 C   0  0  0  0  0  0
  -27.5577  -37.1809   24.8467 C   0  0  0  0  0  0
  -21.4173  -29.3043   22.3686 N   0  0  0  0  0  0
  -26.4292  -37.3781   23.9405 N   0  0  0  0  0  0
  -24.6820  -31.0669   22.0996 N   0  0  0  0  0  0
  -23.4196  -28.8163   23.2998 O   0  0  0  0  0  0
  -28.3130  -26.4850   20.2224 O   0  0  0  0  0  0
  -26.5610  -34.8919   22.4673 O   0  0  0  0  0  0
  -23.5403  -32.1409   23.7413 O   0  0  0  0  0  0
  -31.1913  -19.2364   21.9653 C   0  0  0  0  0  0
  -30.6360  -17.9984   21.6171 C   0  0  0  0  0  0
  -29.4950  -17.9838   20.8705 C   0  0  0  0  0  0
  -29.3995  -20.2945   20.9460 C   0  0  0  0  0  0
  -31.0940  -16.5876   21.9206 C   0  0  0  0  0  0
  -29.1217  -16.5320   20.5591 C   0  0  0  0  0  0
  -27.0722  -24.7193   21.4537 C   0  0  0  0  0  0
  -28.6349  -21.6437   20.7975 C   0  0  0  0  0  0
  -29.3730  -24.1744   20.5735 C   0  0  0  0  0  0
  -28.0685  -25.0235   20.3092 C   0  0  1  0  0  0
  -30.5640  -20.3818   21.6016 N   0  0  0  0  0  0
  -28.8418  -19.1299   20.5297 N   0  0  0  0  0  0
  -30.1834  -15.6647   21.1748 N   0  0  0  0  0  0
  -29.4302  -22.7201   20.1264 N   0  3  0  0  0  0
  -30.3014  -11.3782   19.9076 H   0  0  0  0  0  0
  -31.4546  -12.4365   19.1564 H   0  0  0  0  0  0
  -29.7526  -11.7488   17.4773 H   0  0  0  0  0  0
  -29.6471  -13.4713   17.7479 H   0  0  0  0  0  0
  -27.8565  -11.2935   18.8759 H   0  0  0  0  0  0
  -27.3643  -12.5703   17.7958 H   0  0  0  0  0  0
  -27.6571  -14.2545   19.5046 H   0  0  0  0  0  0
  -28.6878  -12.1085   21.4242 H   0  0  0  0  0  0
  -28.4428  -13.7895   21.8138 H   0  0  0  0  0  0
  -25.2767   -9.5678   22.4761 H   0  0  0  0  0  0
  -24.0002   -7.4634   22.7469 H   0  0  0  0  0  0
  -21.0847   -8.8781   19.8958 H   0  0  0  0  0  0
  -22.3706  -10.9676   19.6170 H   0  0  0  0  0  0
  -21.2011   -7.6149   23.9719 H   0  0  0  0  0  0
  -21.1480   -6.0522   25.9077 H   0  0  0  0  0  0
  -22.0597   -2.7610   23.2843 H   0  0  0  0  0  0
  -22.4084  -11.9885   22.4811 H   0  0  0  0  0  0
  -21.1086  -13.1245   22.2622 H   0  0  0  0  0  0
  -24.6404  -15.8359   20.5009 H   0  0  0  0  0  0
  -26.2472  -15.6270   20.0268 H   0  0  0  0  0  0
  -26.7161  -32.5468   23.1124 H   0  0  0  0  0  0
  -25.0081  -33.9744   25.0448 H   0  0  0  0  0  0
  -22.7072  -31.3089   21.4097 H   0  0  0  0  0  0
  -23.3745  -35.9639   23.3312 H   0  0  0  0  0  0
  -24.3580  -36.8905   22.2050 H   0  0  0  0  0  0
  -23.7251  -37.6510   23.6647 H   0  0  0  0  0  0
  -26.0826  -31.5687   20.6090 H   0  0  0  0  0  0
  -26.8348  -30.8482   22.0022 H   0  0  0  0  0  0
  -28.0958  -28.9927   21.2172 H   0  0  0  0  0  0
  -25.9873  -25.9830   18.9350 H   0  0  0  0  0  0
  -23.9777  -27.3446   18.9642 H   0  0  0  0  0  0
  -23.7383  -30.6090   19.4046 H   0  0  0  0  0  0
  -22.7472  -29.2563   19.8586 H   0  0  0  0  0  0
  -25.1294  -36.1948   25.0825 H   0  0  0  0  0  0
  -20.9977  -28.3259   24.1410 H   0  0  0  0  0  0
  -20.5675  -26.2295   23.3609 H   0  0  0  0  0  0
  -21.6642  -26.7447   22.1205 H   0  0  0  0  0  0
  -19.6912  -25.6299   21.1239 H   0  0  0  0  0  0
  -19.6685  -27.3198   20.6742 H   0  0  0  0  0  0
  -17.4197  -26.6671   21.4027 H   0  0  0  0  0  0
  -18.0332  -26.0069   22.9022 H   0  0  0  0  0  0
  -19.7935  -30.7262   24.2279 H   0  0  0  0  0  0
  -17.5017  -31.6269   24.5161 H   0  0  0  0  0  0
  -15.5352  -30.2995   23.7651 H   0  0  0  0  0  0
  -15.8667  -28.0827   22.7068 H   0  0  0  0  0  0
  -24.5912  -30.7064   25.7798 H   0  0  0  0  0  0
  -24.8925  -32.2884   26.4891 H   0  0  0  0  0  0
  -25.8073  -30.8902   27.0233 H   0  0  0  0  0  0
  -26.2900  -29.6773   24.1191 H   0  0  0  0  0  0
  -27.4039  -29.7267   25.4662 H   0  0  0  0  0  0
  -27.8766  -30.4311   23.9378 H   0  0  0  0  0  0
  -27.2657  -33.3614   26.2090 H   0  0  0  0  0  0
  -28.3860  -32.6895   25.0329 H   0  0  0  0  0  0
  -28.0723  -31.8439   26.5411 H   0  0  0  0  0  0
  -28.2607  -38.0094   24.7498 H   0  0  0  0  0  0
  -28.1059  -36.2625   24.6313 H   0  0  0  0  0  0
  -27.2291  -37.1485   25.8870 H   0  0  0  0  0  0
  -20.9340  -29.8776   21.6914 H   0  0  0  0  0  0
  -26.0175  -38.2859   24.1397 H   0  0  0  0  0  0
  -32.1084  -19.3153   22.5306 H   0  0  0  0  0  0
  -31.0085  -16.3939   22.9907 H   0  0  0  0  0  0
  -32.1482  -16.4876   21.6545 H   0  0  0  0  0  0
  -29.0614  -16.3867   19.4796 H   0  0  0  0  0  0
  -28.1507  -16.2985   20.9944 H   0  0  0  0  0  0
  -27.4698  -25.0488   22.4136 H   0  0  0  0  0  0
  -26.8633  -23.6551   21.5299 H   0  0  0  0  0  0
  -26.1033  -25.1963   21.3290 H   0  0  0  0  0  0
  -28.3816  -21.9630   21.8080 H   0  0  0  0  0  0
  -27.6934  -21.4923   20.2698 H   0  0  0  0  0  0
  -29.6565  -24.2404   21.6248 H   0  0  0  0  0  0
  -30.1811  -24.6687   20.0340 H   0  0  0  0  0  0
  -27.6590  -24.6915   19.3554 H   0  0  0  0  0  0
  -29.2927  -22.6352   19.1331 H   0  0  0  0  0  0
  -30.3692  -22.3961   20.3099 H   0  0  0  0  0  0
  1 25  1  0  0  0
  1 30  2  0  0  0
  1 83  1  0  0  0
  2  3  1  0  0  0
  2 25  1  0  0  0
  2 85  1  0  0  0
  2 86  1  0  0  0
  3  4  1  0  0  0
  3 87  1  0  0  0
  3 88  1  0  0  0
  4  5  1  0  0  0
  4 89  1  0  0  0
  4 90  1  0  0  0
  5  6  1  0  0  0
  5 26  1  0  0  0
  5 91  1  0  0  0
  6 25  1  0  0  0
  6 92  1  0  0  0
  6 93  1  0  0  0
  7  8  2  0  0  0
  7 26  1  0  0  0
  7 29  1  0  0  0
  8  9  1  0  0  0
  8 22  1  0  0  0
  9 10  1  0  0  0
  9 27  2  0  0  0
 10 11  2  0  0  0
 10 15  1  0  0  0
 11 12  1  0  0  0
 11 94  1  0  0  0
 12 13  2  0  0  0
 12 95  1  0  0  0
 13 14  1  0  0  0
 13 31  1  0  0  0
 14 15  2  0  0  0
 14 96  1  0  0  0
 15 97  1  0  0  0
 16 17  2  0  0  0
 16 21  1  0  0  0
 16 31  1  0  0  0
 17 18  1  0  0  0
 17 98  1  0  0  0
 18 19  2  0  0  0
 18 99  1  0  0  0
 19 20  1  0  0  0
 19 24  1  0  0  0
 20 21  2  0  0  0
 20100  1  0  0  0
 21 23  1  0  0  0
 22 28  1  0  0  0
 22 32  2  0  0  0
 26 27  1  0  0  0
 28101  1  0  0  0
 28102  1  0  0  0
 29103  1  0  0  0
 29104  1  0  0  0
 33 34  1  0  0  0
 33 66  1  0  0  0
 33 70  2  0  0  0
 34 36  1  0  0  0
 34 59  1  0  0  0
 34105  1  0  0  0
 35 44  2  0  0  0
 35 45  1  0  0  0
 35 68  1  0  0  0
 36 56  1  0  0  0
 36106  1  0  0  0
 37 39  1  0  0  0
 37 47  1  0  0  0
 37 66  1  0  0  0
 37107  1  0  0  0
 38 43  2  0  0  0
 38 46  1  0  0  0
 38 47  1  0  0  0
 39 64  1  0  0  0
 39 67  2  0  0  0
 40 52  1  0  0  0
 40 53  2  0  0  0
 40 58  1  0  0  0
 41108  1  0  0  0
 41109  1  0  0  0
 41110  1  0  0  0
 41 48  1  0  0  0
 42 43  1  0  0  0
 42 66  1  0  0  0
 42111  1  0  0  0
 42112  1  0  0  0
 43 44  1  0  0  0
 44113  1  0  0  0
 45 46  2  0  0  0
 45114  1  0  0  0
 46115  1  0  0  0
 47116  1  0  0  0
 47117  1  0  0  0
 48 56  1  0  0  0
 48 65  1  0  0  0
 48118  1  0  0  0
 49 50  1  0  0  0
 49 53  1  0  0  0
 49 64  1  0  0  0
 49119  1  0  0  0
 50 51  1  0  0  0
 50120  1  0  0  0
 50121  1  0  0  0
 51 52  1  0  0  0
 51122  1  0  0  0
 51123  1  0  0  0
 52124  1  0  0  0
 52125  1  0  0  0
 53 54  1  0  0  0
 54 55  2  0  0  0
 54126  1  0  0  0
 55 57  1  0  0  0
 55127  1  0  0  0
 56 69  2  0  0  0
 57 58  2  0  0  0
 57128  1  0  0  0
 58129  1  0  0  0
 59 60  1  0  0  0
 59 61  1  0  0  0
 59 62  1  0  0  0
 60130  1  0  0  0
 60131  1  0  0  0
 60132  1  0  0  0
 61133  1  0  0  0
 61134  1  0  0  0
 61135  1  0  0  0
 62136  1  0  0  0
 62137  1  0  0  0
 62138  1  0  0  0
 63 65  1  0  0  0
 63139  1  0  0  0
 63140  1  0  0  0
 63141  1  0  0  0
 64142  1  0  0  0
 65143  1  0  0  0
 68 80  1  0  0  0
 71 72  2  0  0  0
 71 81  1  0  0  0
 71144  1  0  0  0
 72 73  1  0  0  0
 72 75  1  0  0  0
 73 76  1  0  0  0
 73 82  2  0  0  0
 74 78  1  0  0  0
 74 81  2  0  0  0
 74 82  1  0  0  0
 75 83  1  0  0  0
 75145  1  0  0  0
 75146  1  0  0  0
 76 83  1  0  0  0
 76147  1  0  0  0
 76148  1  0  0  0
 77149  1  0  0  0
 77150  1  0  0  0
 77151  1  0  0  0
 77 80  1  0  0  0
 78 84  1  0  0  0
 78152  1  0  0  0
 78153  1  0  0  0
 79 80  1  0  0  0
 79 84  1  0  0  0
 79154  1  0  0  0
 79155  1  0  0  0
 80156  1  0  0  0
 84157  1  0  0  0
 84158  1  0  0  0
M  CHG  1  84   1
M  ISO  4   1 100  68 101  80 101  83 100
M  END
> <chiral flag>
0

> <version>
0

> <s_m_source_file>
/data/baiqing/PycharmProjects/Reinvent-master-3.2/result/LINK_invent/BTK/process_docking_weight1_custom_sum_contain_oxygen_bond_distance_aromatic_linkinvent_7_9_3/rearranged_h_0193.sdf

> <i_m_source_file_index>
63

> <r_mmod_Potential_Energy-OPLS-2005>
-492.580993652344

> <r_mmod_Stretch_Energy-OPLS-2005>
71.8555450439453

> <r_mmod_Bend_Energy-OPLS-2005>
190.69856262207

> <r_mmod_Torsional_Energy-OPLS-2005>
267.728454589844

> <r_mmod_Improper_Torsional_Energy-OPLS-2005>
6.18542909622192

> <r_mmod_Van_der_Waal_Energy-OPLS-2005>
155.279113769531

> <r_mmod_Electrostatic_Energy-OPLS-2005>
-769.121643066406

> <r_mmod_Solvation_Energy-OPLS-2005>
-456.424407958984

> <b_mmod_Minimization_Converged-OPLS-2005>
0

> <r_mmod_RMS_Derivative-OPLS-2005>
0.446973532438278

$$$$
63
                    3D
 Structure written by MMmdl.
169178  0  0  1  0            999 V2000
  -30.4998  -15.3270   20.3743 C   0  0  0  0  0  0
  -30.4165  -12.8647   19.5214 C   0  0  0  0  0  0
  -29.5228  -12.5764   18.2914 C   0  0  0  0  0  0
  -28.0835  -12.2848   18.7351 C   0  0  0  0  0  0
  -27.6005  -13.2876   19.8114 C   0  0  2  0  0  0
  -28.6329  -13.5383   20.9342 C   0  0  0  0  0  0
  -25.2347  -13.8279   20.5769 C   0  0  0  0  0  0
  -24.1712  -13.0446   20.9264 C   0  0  0  0  0  0
  -24.6388  -11.6949   20.8775 C   0  0  0  0  0  0
  -23.9101  -10.4292   21.0392 C   0  0  0  0  0  0
  -24.3647   -9.4200   21.9170 C   0  0  0  0  0  0
  -23.6310   -8.2239   22.0752 C   0  0  0  0  0  0
  -22.4283   -8.0289   21.3549 C   0  0  0  0  0  0
  -21.9923   -9.0258   20.4642 C   0  0  0  0  0  0
  -22.7264  -10.2130   20.3043 C   0  0  0  0  0  0
  -21.6856   -6.0743   22.5281 C   0  0  0  0  0  0
  -21.4020   -6.5640   23.8219 C   0  0  0  0  0  0
  -21.3655   -5.6787   24.9177 C   0  0  0  0  0  0
  -21.6044   -4.3052   24.7222 C   0  0  0  0  0  0
  -21.8823   -3.8150   23.4341 C   0  0  0  0  0  0
  -21.9194   -4.6971   22.3401 C   0  0  0  0  0  0
  -22.7724  -13.5176   21.1916 C   0  0  0  0  0  0
  -22.1659   -4.2156   21.0979 F   0  0  0  0  0  0
  -21.5625   -3.4534   25.7734 F   0  0  0  0  0  0
  -29.8523  -14.0513   20.2817 N   0  0  0  0  0  0
  -26.2776  -12.9575   20.3220 N   0  0  0  0  0  0
  -25.9320  -11.6673   20.5723 N   0  0  0  0  0  0
  -22.0401  -12.8146   22.0477 N   0  0  0  0  0  0
  -25.3984  -15.2018   20.4237 N   0  0  0  0  0  0
  -31.7230  -15.1969   20.2010 O   0  0  0  0  0  0
  -21.6648   -6.8885   21.4241 O   0  0  0  0  0  0
  -22.3382  -14.5467   20.6759 O   0  0  0  0  0  0
  -24.6655  -31.8239   23.1713 C   0  0  0  0  0  0
  -25.9342  -32.4588   23.8176 C   0  0  1  0  0  0
  -27.2113  -26.9039   20.1959 C   0  0  0  0  0  0
  -25.5992  -33.8400   24.2087 N   0  0  0  0  0  0
  -23.4836  -30.4373   21.5194 C   0  0  2  0  0  0
  -24.9418  -28.8291   20.1144 C   0  0  0  0  0  0
  -22.7697  -29.4449   22.4763 C   0  0  0  0  0  0
  -18.0342  -28.1408   22.8480 C   0  0  0  0  0  0
  -24.1507  -36.7194   23.2643 C   0  0  0  0  0  0
  -26.0565  -30.6257   21.4089 C   0  0  0  0  0  0
  -26.1280  -29.2126   20.7547 C   0  0  0  0  0  0
  -27.2635  -28.2731   20.7784 C   0  0  0  0  0  0
  -25.9990  -26.6951   19.5044 C   0  0  0  0  0  0
  -24.9032  -27.5880   19.4654 C   0  0  0  0  0  0
  -23.7291  -29.7574   20.1456 C   0  0  0  0  0  0
  -25.4144  -36.2958   24.0301 C   0  0  1  0  0  0
  -20.5977  -28.3761   23.1178 C   0  0  2  0  0  0
  -20.6814  -26.9434   22.5405 C   0  0  0  0  0  0
  -19.5772  -26.6377   21.5229 C   0  0  0  0  0  0
  -18.1960  -26.7941   22.1638 C   0  0  0  0  0  0
  -19.1603  -28.8905   23.2821 C   0  0  0  0  0  0
  -18.9501  -30.1495   23.8854 C   0  0  0  0  0  0
  -17.6487  -30.6591   24.0552 C   0  0  0  0  0  0
  -25.9101  -34.9344   23.5006 C   0  0  0  0  0  0
  -16.5384  -29.9076   23.6345 C   0  0  0  0  0  0
  -16.7326  -28.6503   23.0369 C   0  0  0  0  0  0
  -26.4598  -31.6520   25.0696 C   0  0  0  0  0  0
  -25.3723  -31.3746   26.1332 C   0  0  0  0  0  0
  -27.0505  -30.2885   24.6451 C   0  0  0  0  0  0
  -27.6086  -32.4328   25.7492 C   0  0  0  0  0  0
  -27.5580  -37.1748   24.8464 C   0  0  0  0  0  0
  -21.4365  -29.3041   22.3503 N   0  0  0  0  0  0
  -26.4291  -37.3699   23.9406 N   0  0  0  0  0  0
  -24.7549  -30.9900   22.0858 N   0  0  0  0  0  0
  -23.4226  -28.8022   23.3022 O   0  0  0  0  0  0
  -28.0603  -25.6147   20.2082 O   0  0  0  0  0  0
  -26.5714  -34.8881   22.4603 O   0  0  0  0  0  0
  -23.5716  -32.1223   23.6780 O   0  0  0  0  0  0
  -29.5927  -26.2011   21.5970 C   0  0  0  0  0  0
  -28.9972  -24.5389   21.8476 C   0  0  0  0  0  0
  -29.8675  -26.7517   19.9120 C   0  0  0  0  0  0
  -29.4679  -25.6123   18.5861 C   0  0  0  0  0  0
  -28.7255  -23.4448   20.4996 C   0  0  0  0  0  0
  -28.6025  -19.1047   21.2273 C   0  0  0  0  0  0
  -30.2119  -19.5628   19.6107 C   0  0  0  0  0  0
  -28.6595  -17.4595   20.8060 C   0  0  0  0  0  0
  -30.7740  -18.0098   20.0185 C   0  0  0  0  0  0
  -28.9488  -20.3873   20.2539 C   0  0  0  0  0  0
  -29.6913  -25.9399   17.1285 C   0  0  0  0  0  0
  -30.9736  -27.7228   19.6955 C   0  0  0  0  0  0
  -32.0265  -25.4256   19.6801 C   0  0  0  0  0  0
  -30.7266  -24.6741   20.2937 C   0  0  0  0  0  0
  -28.9259  -24.0382   18.9430 N   0  0  0  0  0  0
  -29.9413  -16.7351   20.3410 N   0  0  0  0  0  0
  -32.1694  -26.8967   19.9804 N   0  3  0  0  0  0
  -28.8797  -21.9389   20.8454 O   0  0  0  0  0  0
  -31.4336  -13.0469   19.1724 H   0  0  0  0  0  0
  -30.4893  -11.9838   20.1647 H   0  0  0  0  0  0
  -29.9182  -11.7351   17.7207 H   0  0  0  0  0  0
  -29.5332  -13.4371   17.6212 H   0  0  0  0  0  0
  -28.0636  -11.2728   19.1438 H   0  0  0  0  0  0
  -27.4100  -12.2776   17.8774 H   0  0  0  0  0  0
  -27.4896  -14.2311   19.2736 H   0  0  0  0  0  0
  -28.8204  -12.6352   21.5175 H   0  0  0  0  0  0
  -28.2544  -14.2861   21.6311 H   0  0  0  0  0  0
  -25.2795   -9.5674   22.4736 H   0  0  0  0  0  0
  -24.0024   -7.4627   22.7466 H   0  0  0  0  0  0
  -21.0859   -8.8778   19.8943 H   0  0  0  0  0  0
  -22.3724  -10.9671   19.6154 H   0  0  0  0  0  0
  -21.2013   -7.6148   23.9726 H   0  0  0  0  0  0
  -21.1471   -6.0514   25.9081 H   0  0  0  0  0  0
  -22.0604   -2.7611   23.2842 H   0  0  0  0  0  0
  -22.4066  -11.9819   22.4856 H   0  0  0  0  0  0
  -21.1012  -13.1131   22.2706 H   0  0  0  0  0  0
  -24.6315  -15.8546   20.5466 H   0  0  0  0  0  0
  -26.2531  -15.6467   20.1151 H   0  0  0  0  0  0
  -26.7407  -32.5157   23.0880 H   0  0  0  0  0  0
  -25.0097  -33.9483   25.0207 H   0  0  0  0  0  0
  -22.7975  -31.2708   21.3457 H   0  0  0  0  0  0
  -23.3794  -35.9498   23.3256 H   0  0  0  0  0  0
  -24.3591  -36.8896   22.2068 H   0  0  0  0  0  0
  -23.7248  -37.6358   23.6736 H   0  0  0  0  0  0
  -26.2447  -31.3685   20.6325 H   0  0  0  0  0  0
  -26.9122  -30.6822   22.0687 H   0  0  0  0  0  0
  -28.1477  -28.5676   21.3261 H   0  0  0  0  0  0
  -25.8682  -25.7378   19.0209 H   0  0  0  0  0  0
  -24.0033  -27.2833   18.9462 H   0  0  0  0  0  0
  -23.8852  -30.5261   19.3870 H   0  0  0  0  0  0
  -22.8419  -29.2100   19.8238 H   0  0  0  0  0  0
  -25.1346  -36.1735   25.0799 H   0  0  0  0  0  0
  -21.0088  -28.3371   24.1286 H   0  0  0  0  0  0
  -20.5719  -26.2370   23.3654 H   0  0  0  0  0  0
  -21.6674  -26.7407   22.1185 H   0  0  0  0  0  0
  -19.6918  -25.6278   21.1279 H   0  0  0  0  0  0
  -19.6696  -27.3179   20.6754 H   0  0  0  0  0  0
  -17.4234  -26.6719   21.4037 H   0  0  0  0  0  0
  -18.0322  -26.0091   22.9037 H   0  0  0  0  0  0
  -19.7971  -30.7335   24.2200 H   0  0  0  0  0  0
  -17.5030  -31.6266   24.5160 H   0  0  0  0  0  0
  -15.5380  -30.2947   23.7680 H   0  0  0  0  0  0
  -15.8742  -28.0790   22.7098 H   0  0  0  0  0  0
  -24.5923  -30.7093   25.7605 H   0  0  0  0  0  0
  -24.8893  -32.2936   26.4662 H   0  0  0  0  0  0
  -25.7944  -30.8950   27.0171 H   0  0  0  0  0  0
  -26.3181  -29.6544   24.1445 H   0  0  0  0  0  0
  -27.4013  -29.7258   25.5113 H   0  0  0  0  0  0
  -27.9138  -30.4054   23.9898 H   0  0  0  0  0  0
  -27.2669  -33.3675   26.1948 H   0  0  0  0  0  0
  -28.3958  -32.6821   25.0360 H   0  0  0  0  0  0
  -28.0698  -31.8536   26.5503 H   0  0  0  0  0  0
  -28.2556  -38.0084   24.7545 H   0  0  0  0  0  0
  -28.1122  -36.2609   24.6251 H   0  0  0  0  0  0
  -27.2294  -37.1334   25.8868 H   0  0  0  0  0  0
  -20.9615  -29.8696   21.6607 H   0  0  0  0  0  0
  -26.0126  -38.2748   24.1437 H   0  0  0  0  0  0
  -29.9069  -26.8009   22.4394 H   0  0  0  0  0  0
  -28.9443  -24.1499   22.8564 H   0  0  0  0  0  0
  -29.2474  -19.2088   22.1020 H   0  0  0  0  0  0
  -27.6041  -19.2908   21.6256 H   0  0  0  0  0  0
  -30.0000  -19.5190   18.5416 H   0  0  0  0  0  0
  -31.0759  -20.2262   19.6654 H   0  0  0  0  0  0
  -28.3042  -16.8993   21.6709 H   0  0  0  0  0  0
  -27.9135  -17.2857   20.0325 H   0  0  0  0  0  0
  -31.4571  -17.7210   19.2178 H   0  0  0  0  0  0
  -31.4238  -18.1324   20.8872 H   0  0  0  0  0  0
  -28.1739  -20.3929   19.4840 H   0  0  0  0  0  0
  -30.6282  -26.4745   16.9816 H   0  0  0  0  0  0
  -28.8763  -26.5597   16.7591 H   0  0  0  0  0  0
  -29.7263  -25.0259   16.5326 H   0  0  0  0  0  0
  -30.8991  -28.5773   20.3713 H   0  0  0  0  0  0
  -30.9687  -28.0922   18.6695 H   0  0  0  0  0  0
  -32.0669  -25.2890   18.6015 H   0  0  0  0  0  0
  -32.9307  -24.9286   20.0432 H   0  0  0  0  0  0
  -31.1836  -24.4793   21.2777 H   0  0  0  0  0  0
  -30.9650  -23.6766   19.8865 H   0  0  0  0  0  0
  -32.9470  -27.2777   19.4645 H   0  0  0  0  0  0
  -32.3973  -27.0176   20.9556 H   0  0  0  0  0  0
  1 25  1  0  0  0
  1 30  2  0  0  0
  1 86  1  0  0  0
  2  3  1  0  0  0
  2 25  1  0  0  0
  2 89  1  0  0  0
  2 90  1  0  0  0
  3  4  1  0  0  0
  3 91  1  0  0  0
  3 92  1  0  0  0
  4  5  1  0  0  0
  4 93  1  0  0  0
  4 94  1  0  0  0
  5  6  1  0  0  0
  5 26  1  0  0  0
  5 95  1  0  0  0
  6 25  1  0  0  0
  6 96  1  0  0  0
  6 97  1  0  0  0
  7  8  2  0  0  0
  7 26  1  0  0  0
  7 29  1  0  0  0
  8  9  1  0  0  0
  8 22  1  0  0  0
  9 10  1  0  0  0
  9 27  2  0  0  0
 10 11  2  0  0  0
 10 15  1  0  0  0
 11 12  1  0  0  0
 11 98  1  0  0  0
 12 13  2  0  0  0
 12 99  1  0  0  0
 13 14  1  0  0  0
 13 31  1  0  0  0
 14 15  2  0  0  0
 14100  1  0  0  0
 15101  1  0  0  0
 16 17  2  0  0  0
 16 21  1  0  0  0
 16 31  1  0  0  0
 17 18  1  0  0  0
 17102  1  0  0  0
 18 19  2  0  0  0
 18103  1  0  0  0
 19 20  1  0  0  0
 19 24  1  0  0  0
 20 21  2  0  0  0
 20104  1  0  0  0
 21 23  1  0  0  0
 22 28  1  0  0  0
 22 32  2  0  0  0
 26 27  1  0  0  0
 28105  1  0  0  0
 28106  1  0  0  0
 29107  1  0  0  0
 29108  1  0  0  0
 33 34  1  0  0  0
 33 66  1  0  0  0
 33 70  2  0  0  0
 34 36  1  0  0  0
 34 59  1  0  0  0
 34109  1  0  0  0
 35 44  2  0  0  0
 35 45  1  0  0  0
 35 68  1  0  0  0
 36 56  1  0  0  0
 36110  1  0  0  0
 37 39  1  0  0  0
 37 47  1  0  0  0
 37 66  1  0  0  0
 37111  1  0  0  0
 38 43  2  0  0  0
 38 46  1  0  0  0
 38 47  1  0  0  0
 39 64  1  0  0  0
 39 67  2  0  0  0
 40 52  1  0  0  0
 40 53  2  0  0  0
 40 58  1  0  0  0
 41112  1  0  0  0
 41113  1  0  0  0
 41114  1  0  0  0
 41 48  1  0  0  0
 42 43  1  0  0  0
 42 66  1  0  0  0
 42115  1  0  0  0
 42116  1  0  0  0
 43 44  1  0  0  0
 44117  1  0  0  0
 45 46  2  0  0  0
 45118  1  0  0  0
 46119  1  0  0  0
 47120  1  0  0  0
 47121  1  0  0  0
 48 56  1  0  0  0
 48 65  1  0  0  0
 48122  1  0  0  0
 49 50  1  0  0  0
 49 53  1  0  0  0
 49 64  1  0  0  0
 49123  1  0  0  0
 50 51  1  0  0  0
 50124  1  0  0  0
 50125  1  0  0  0
 51 52  1  0  0  0
 51126  1  0  0  0
 51127  1  0  0  0
 52128  1  0  0  0
 52129  1  0  0  0
 53 54  1  0  0  0
 54 55  2  0  0  0
 54130  1  0  0  0
 55 57  1  0  0  0
 55131  1  0  0  0
 56 69  2  0  0  0
 57 58  2  0  0  0
 57132  1  0  0  0
 58133  1  0  0  0
 59 60  1  0  0  0
 59 61  1  0  0  0
 59 62  1  0  0  0
 60134  1  0  0  0
 60135  1  0  0  0
 60136  1  0  0  0
 61137  1  0  0  0
 61138  1  0  0  0
 61139  1  0  0  0
 62140  1  0  0  0
 62141  1  0  0  0
 62142  1  0  0  0
 63 65  1  0  0  0
 63143  1  0  0  0
 63144  1  0  0  0
 63145  1  0  0  0
 64146  1  0  0  0
 65147  1  0  0  0
 68 84  1  0  0  0
 71 72  2  0  0  0
 71 73  1  0  0  0
 71148  1  0  0  0
 72 75  1  0  0  0
 72149  1  0  0  0
 73 74  2  0  0  0
 73 82  1  0  0  0
 74 81  1  0  0  0
 74 85  1  0  0  0
 75 85  2  0  0  0
 75 88  1  0  0  0
 76 78  1  0  0  0
 76 80  1  0  0  0
 76150  1  0  0  0
 76151  1  0  0  0
 77 79  1  0  0  0
 77 80  1  0  0  0
 77152  1  0  0  0
 77153  1  0  0  0
 78 86  1  0  0  0
 78154  1  0  0  0
 78155  1  0  0  0
 79 86  1  0  0  0
 79156  1  0  0  0
 79157  1  0  0  0
 80 88  1  0  0  0
 80158  1  0  0  0
 81159  1  0  0  0
 81160  1  0  0  0
 81161  1  0  0  0
 82 87  1  0  0  0
 82162  1  0  0  0
 82163  1  0  0  0
 83 84  1  0  0  0
 83 87  1  0  0  0
 83164  1  0  0  0
 83165  1  0  0  0
 84166  1  0  0  0
 84167  1  0  0  0
 87168  1  0  0  0
 87169  1  0  0  0
M  CHG  1  87   1
M  ISO  4   1 100  68 101  84 101  86 100
M  END
> <chiral flag>
0

> <version>
0

> <s_m_source_file>
/data/baiqing/PycharmProjects/Reinvent-master-3.2/result/LINK_invent/BTK/process_docking_weight1_custom_sum_contain_oxygen_bond_distance_aromatic_linkinvent_7_9_3/rearranged_h_0193.sdf

> <i_m_source_file_index>
64

> <r_mmod_Potential_Energy-OPLS-2005>
7801.962890625

> <r_mmod_Stretch_Energy-OPLS-2005>
4846.880859375

> <r_mmod_Bend_Energy-OPLS-2005>
727.387451171875

> <r_mmod_Torsional_Energy-OPLS-2005>
367.301300048828

> <r_mmod_Improper_Torsional_Energy-OPLS-2005>
23.5801010131836

> <r_mmod_Van_der_Waal_Energy-OPLS-2005>
2086.78344726562

> <r_mmod_Electrostatic_Energy-OPLS-2005>
-321.8515625

> <r_mmod_Solvation_Energy-OPLS-2005>
-475.83349609375

> <b_mmod_Minimization_Converged-OPLS-2005>
0

> <r_mmod_RMS_Derivative-OPLS-2005>
4.99345254898071

$$$$
64
                    3D
 Structure written by MMmdl.
163172  0  0  1  0            999 V2000
  -30.6992  -14.5371   20.4974 C   0  0  0  0  0  0
  -30.4108  -12.3253   19.4425 C   0  0  0  0  0  0
  -29.4938  -12.4889   18.2135 C   0  0  0  0  0  0
  -28.0140  -12.3626   18.6249 C   0  0  0  0  0  0
  -27.6523  -13.2236   19.8668 C   0  0  2  0  0  0
  -28.6993  -13.0757   20.9928 C   0  0  0  0  0  0
  -25.2545  -13.8211   20.5713 C   0  0  0  0  0  0
  -24.1818  -13.0449   20.9198 C   0  0  0  0  0  0
  -24.6408  -11.6931   20.8759 C   0  0  0  0  0  0
  -23.9091  -10.4302   21.0422 C   0  0  0  0  0  0
  -24.3639   -9.4209   21.9188 C   0  0  0  0  0  0
  -23.6309   -8.2245   22.0755 C   0  0  0  0  0  0
  -22.4291   -8.0290   21.3545 C   0  0  0  0  0  0
  -21.9932   -9.0263   20.4642 C   0  0  0  0  0  0
  -22.7270  -10.2138   20.3066 C   0  0  0  0  0  0
  -21.6851   -6.0752   22.5286 C   0  0  0  0  0  0
  -21.4011   -6.5650   23.8221 C   0  0  0  0  0  0
  -21.3661   -5.6802   24.9181 C   0  0  0  0  0  0
  -21.6052   -4.3066   24.7232 C   0  0  0  0  0  0
  -21.8814   -3.8159   23.4350 C   0  0  0  0  0  0
  -21.9187   -4.6978   22.3407 C   0  0  0  0  0  0
  -22.7835  -13.5221   21.1858 C   0  0  0  0  0  0
  -22.1652   -4.2160   21.0984 F   0  0  0  0  0  0
  -21.5636   -3.4547   25.7744 F   0  0  0  0  0  0
  -30.0159  -13.3599   20.4120 N   0  0  0  0  0  0
  -26.2993  -12.9407   20.3380 N   0  0  0  0  0  0
  -25.9345  -11.6556   20.5801 N   0  0  0  0  0  0
  -22.0491  -12.8192   22.0409 N   0  0  0  0  0  0
  -25.4261  -15.1932   20.4145 N   0  0  0  0  0  0
  -31.8886  -14.6210   20.1751 O   0  0  0  0  0  0
  -21.6643   -6.8899   21.4249 O   0  0  0  0  0  0
  -22.3493  -14.5517   20.6704 O   0  0  0  0  0  0
  -24.6206  -31.8669   23.2096 C   0  0  0  0  0  0
  -25.9081  -32.4812   23.8403 C   0  0  1  0  0  0
  -27.2171  -27.3839   20.0949 C   0  0  0  0  0  0
  -25.5932  -33.8613   24.2342 N   0  0  0  0  0  0
  -23.4097  -30.4939   21.5524 C   0  0  2  0  0  0
  -24.8509  -28.9621   20.1112 C   0  0  0  0  0  0
  -22.7450  -29.4656   22.4975 C   0  0  0  0  0  0
  -18.0287  -28.1380   22.8504 C   0  0  0  0  0  0
  -24.1489  -36.7307   23.2635 C   0  0  0  0  0  0
  -25.9460  -30.8174   21.3711 C   0  0  0  0  0  0
  -26.0184  -29.4515   20.7101 C   0  0  0  0  0  0
  -27.2058  -28.6730   20.6937 C   0  0  0  0  0  0
  -26.0259  -26.9312   19.4792 C   0  0  0  0  0  0
  -24.8529  -27.7048   19.4898 C   0  0  0  0  0  0
  -23.6193  -29.8381   20.1640 C   0  0  0  0  0  0
  -25.4108  -36.3110   24.0343 C   0  0  1  0  0  0
  -20.5885  -28.3682   23.1312 C   0  0  2  0  0  0
  -20.6786  -26.9416   22.5422 C   0  0  0  0  0  0
  -19.5753  -26.6389   21.5234 C   0  0  0  0  0  0
  -18.1930  -26.7926   22.1638 C   0  0  0  0  0  0
  -19.1537  -28.8848   23.2905 C   0  0  0  0  0  0
  -18.9453  -30.1457   23.8909 C   0  0  0  0  0  0
  -17.6450  -30.6581   24.0569 C   0  0  0  0  0  0
  -25.9043  -34.9472   23.5140 C   0  0  0  0  0  0
  -16.5347  -29.9080   23.6324 C   0  0  0  0  0  0
  -16.7275  -28.6503   23.0341 C   0  0  0  0  0  0
  -26.4485  -31.6575   25.0731 C   0  0  0  0  0  0
  -25.3743  -31.3659   26.1471 C   0  0  0  0  0  0
  -27.0303  -30.3011   24.6104 C   0  0  0  0  0  0
  -27.6067  -32.4278   25.7495 C   0  0  0  0  0  0
  -27.5590  -37.1808   24.8462 C   0  0  0  0  0  0
  -21.4172  -29.3041   22.3716 N   0  0  0  0  0  0
  -26.4293  -37.3800   23.9421 N   0  0  0  0  0  0
  -24.6778  -31.0733   22.1024 N   0  0  0  0  0  0
  -23.4207  -28.8197   23.3026 O   0  0  0  0  0  0
  -28.3573  -26.5859   20.1270 O   0  0  0  0  0  0
  -26.5599  -34.8925   22.4694 O   0  0  0  0  0  0
  -23.5385  -32.1443   23.7463 O   0  0  0  0  0  0
  -29.2508  -22.7497   20.4121 C   0  0  0  0  0  0
  -29.0218  -22.0259   21.6060 C   0  0  0  0  0  0
  -29.4302  -21.9395   19.2673 C   0  0  0  0  0  0
  -29.2396  -20.0043   20.5151 C   0  0  0  0  0  0
  -29.0348  -17.7427   19.4186 C   0  0  0  0  0  0
  -29.2786  -17.8284   21.8278 C   0  0  0  0  0  0
  -29.9784  -16.5200   19.3672 C   0  0  0  0  0  0
  -30.1355  -16.5220   21.7873 C   0  0  0  0  0  0
  -28.7936  -22.7177   22.9346 C   0  0  0  0  0  0
  -29.6963  -22.5248   17.8946 C   0  0  0  0  0  0
  -29.4107  -24.2995   20.3881 C   0  0  0  0  0  0
  -28.1628  -25.1475   20.0043 C   0  0  0  0  0  0
  -29.0278  -20.6713   21.6435 N   0  0  0  0  0  0
  -29.4167  -20.5867   19.3342 N   0  0  0  0  0  0
  -29.3191  -18.5941   20.5744 N   0  0  0  0  0  0
  -29.9537  -15.6782   20.5853 N   0  0  0  0  0  0
  -31.4589  -12.4000   19.1463 H   0  0  0  0  0  0
  -30.2930  -11.3332   19.8825 H   0  0  0  0  0  0
  -29.7350  -11.7405   17.4572 H   0  0  0  0  0  0
  -29.6648  -13.4606   17.7471 H   0  0  0  0  0  0
  -27.8214  -11.3108   18.8337 H   0  0  0  0  0  0
  -27.3676  -12.6270   17.7874 H   0  0  0  0  0  0
  -27.6728  -14.2624   19.5375 H   0  0  0  0  0  0
  -28.6846  -12.0680   21.4092 H   0  0  0  0  0  0
  -28.4795  -13.7516   21.8210 H   0  0  0  0  0  0
  -25.2788   -9.5675   22.4747 H   0  0  0  0  0  0
  -24.0019   -7.4639   22.7472 H   0  0  0  0  0  0
  -21.0864   -8.8796   19.8930 H   0  0  0  0  0  0
  -22.3753  -10.9678   19.6171 H   0  0  0  0  0  0
  -21.1996   -7.6155   23.9733 H   0  0  0  0  0  0
  -21.1489   -6.0530   25.9086 H   0  0  0  0  0  0
  -22.0588   -2.7621   23.2858 H   0  0  0  0  0  0
  -22.4135  -11.9849   22.4765 H   0  0  0  0  0  0
  -21.1109  -13.1202   22.2642 H   0  0  0  0  0  0
  -24.6645  -15.8532   20.5324 H   0  0  0  0  0  0
  -26.2929  -15.6314   20.1306 H   0  0  0  0  0  0
  -26.7151  -32.5508   23.1161 H   0  0  0  0  0  0
  -25.0101  -33.9773   25.0501 H   0  0  0  0  0  0
  -22.7008  -31.3132   21.4177 H   0  0  0  0  0  0
  -23.3766  -35.9626   23.3277 H   0  0  0  0  0  0
  -24.3600  -36.8940   22.2056 H   0  0  0  0  0  0
  -23.7220  -37.6497   23.6656 H   0  0  0  0  0  0
  -26.0691  -31.5877   20.6077 H   0  0  0  0  0  0
  -26.8307  -30.8640   21.9942 H   0  0  0  0  0  0
  -28.1053  -29.0460   21.1642 H   0  0  0  0  0  0
  -25.9723  -25.9747   18.9821 H   0  0  0  0  0  0
  -23.9570  -27.3269   19.0160 H   0  0  0  0  0  0
  -23.7399  -30.6217   19.4150 H   0  0  0  0  0  0
  -22.7390  -29.2709   19.8573 H   0  0  0  0  0  0
  -25.1275  -36.1979   25.0836 H   0  0  0  0  0  0
  -20.9976  -28.3249   24.1433 H   0  0  0  0  0  0
  -20.5731  -26.2282   23.3614 H   0  0  0  0  0  0
  -21.6647  -26.7478   22.1184 H   0  0  0  0  0  0
  -19.6914  -25.6307   21.1248 H   0  0  0  0  0  0
  -19.6674  -27.3218   20.6779 H   0  0  0  0  0  0
  -17.4210  -26.6707   21.4027 H   0  0  0  0  0  0
  -18.0302  -26.0056   22.9017 H   0  0  0  0  0  0
  -19.7923  -30.7289   24.2267 H   0  0  0  0  0  0
  -17.4993  -31.6256   24.5180 H   0  0  0  0  0  0
  -15.5344  -30.2980   23.7625 H   0  0  0  0  0  0
  -15.8685  -28.0829   22.7018 H   0  0  0  0  0  0
  -24.5951  -30.6967   25.7805 H   0  0  0  0  0  0
  -24.8889  -32.2792   26.4919 H   0  0  0  0  0  0
  -25.8107  -30.8842   27.0232 H   0  0  0  0  0  0
  -26.2840  -29.6788   24.1149 H   0  0  0  0  0  0
  -27.4059  -29.7224   25.4553 H   0  0  0  0  0  0
  -27.8690  -30.4320   23.9261 H   0  0  0  0  0  0
  -27.2710  -33.3588   26.2070 H   0  0  0  0  0  0
  -28.3878  -32.6811   25.0314 H   0  0  0  0  0  0
  -28.0725  -31.8390   26.5406 H   0  0  0  0  0  0
  -28.2580  -38.0132   24.7556 H   0  0  0  0  0  0
  -28.1112  -36.2670   24.6224 H   0  0  0  0  0  0
  -27.2320  -37.1382   25.8866 H   0  0  0  0  0  0
  -20.9344  -29.8758   21.6932 H   0  0  0  0  0  0
  -26.0180  -38.2876   24.1436 H   0  0  0  0  0  0
  -27.9982  -17.4094   19.4783 H   0  0  0  0  0  0
  -29.1191  -18.2956   18.4828 H   0  0  0  0  0  0
  -29.6204  -18.4436   22.6619 H   0  0  0  0  0  0
  -28.2367  -17.5835   22.0397 H   0  0  0  0  0  0
  -30.9976  -16.8692   19.1855 H   0  0  0  0  0  0
  -29.7089  -15.9117   18.5006 H   0  0  0  0  0  0
  -29.9201  -15.9273   22.6766 H   0  0  0  0  0  0
  -31.1902  -16.7956   21.8607 H   0  0  0  0  0  0
  -29.7202  -23.1682   23.2892 H   0  0  0  0  0  0
  -28.4461  -22.0182   23.6950 H   0  0  0  0  0  0
  -28.0433  -23.5019   22.8357 H   0  0  0  0  0  0
  -29.0015  -23.3334   17.6743 H   0  0  0  0  0  0
  -29.5849  -21.7752   17.1107 H   0  0  0  0  0  0
  -30.7114  -22.9171   17.8403 H   0  0  0  0  0  0
  -30.2236  -24.5527   19.7077 H   0  0  0  0  0  0
  -29.7633  -24.6341   21.3627 H   0  0  0  0  0  0
  -27.3317  -24.8412   20.6417 H   0  0  0  0  0  0
  -27.8862  -24.9114   18.9770 H   0  0  0  0  0  0
  1 25  1  0  0  0
  1 30  2  0  0  0
  1 86  1  0  0  0
  2  3  1  0  0  0
  2 25  1  0  0  0
  2 87  1  0  0  0
  2 88  1  0  0  0
  3  4  1  0  0  0
  3 89  1  0  0  0
  3 90  1  0  0  0
  4  5  1  0  0  0
  4 91  1  0  0  0
  4 92  1  0  0  0
  5  6  1  0  0  0
  5 26  1  0  0  0
  5 93  1  0  0  0
  6 25  1  0  0  0
  6 94  1  0  0  0
  6 95  1  0  0  0
  7  8  2  0  0  0
  7 26  1  0  0  0
  7 29  1  0  0  0
  8  9  1  0  0  0
  8 22  1  0  0  0
  9 10  1  0  0  0
  9 27  2  0  0  0
 10 11  2  0  0  0
 10 15  1  0  0  0
 11 12  1  0  0  0
 11 96  1  0  0  0
 12 13  2  0  0  0
 12 97  1  0  0  0
 13 14  1  0  0  0
 13 31  1  0  0  0
 14 15  2  0  0  0
 14 98  1  0  0  0
 15 99  1  0  0  0
 16 17  2  0  0  0
 16 21  1  0  0  0
 16 31  1  0  0  0
 17 18  1  0  0  0
 17100  1  0  0  0
 18 19  2  0  0  0
 18101  1  0  0  0
 19 20  1  0  0  0
 19 24  1  0  0  0
 20 21  2  0  0  0
 20102  1  0  0  0
 21 23  1  0  0  0
 22 28  1  0  0  0
 22 32  2  0  0  0
 26 27  1  0  0  0
 28103  1  0  0  0
 28104  1  0  0  0
 29105  1  0  0  0
 29106  1  0  0  0
 33 34  1  0  0  0
 33 66  1  0  0  0
 33 70  2  0  0  0
 34 36  1  0  0  0
 34 59  1  0  0  0
 34107  1  0  0  0
 35 44  2  0  0  0
 35 45  1  0  0  0
 35 68  1  0  0  0
 36 56  1  0  0  0
 36108  1  0  0  0
 37 39  1  0  0  0
 37 47  1  0  0  0
 37 66  1  0  0  0
 37109  1  0  0  0
 38 43  2  0  0  0
 38 46  1  0  0  0
 38 47  1  0  0  0
 39 64  1  0  0  0
 39 67  2  0  0  0
 40 52  1  0  0  0
 40 53  2  0  0  0
 40 58  1  0  0  0
 41110  1  0  0  0
 41111  1  0  0  0
 41112  1  0  0  0
 41 48  1  0  0  0
 42 43  1  0  0  0
 42 66  1  0  0  0
 42113  1  0  0  0
 42114  1  0  0  0
 43 44  1  0  0  0
 44115  1  0  0  0
 45 46  2  0  0  0
 45116  1  0  0  0
 46117  1  0  0  0
 47118  1  0  0  0
 47119  1  0  0  0
 48 56  1  0  0  0
 48 65  1  0  0  0
 48120  1  0  0  0
 49 50  1  0  0  0
 49 53  1  0  0  0
 49 64  1  0  0  0
 49121  1  0  0  0
 50 51  1  0  0  0
 50122  1  0  0  0
 50123  1  0  0  0
 51 52  1  0  0  0
 51124  1  0  0  0
 51125  1  0  0  0
 52126  1  0  0  0
 52127  1  0  0  0
 53 54  1  0  0  0
 54 55  2  0  0  0
 54128  1  0  0  0
 55 57  1  0  0  0
 55129  1  0  0  0
 56 69  2  0  0  0
 57 58  2  0  0  0
 57130  1  0  0  0
 58131  1  0  0  0
 59 60  1  0  0  0
 59 61  1  0  0  0
 59 62  1  0  0  0
 60132  1  0  0  0
 60133  1  0  0  0
 60134  1  0  0  0
 61135  1  0  0  0
 61136  1  0  0  0
 61137  1  0  0  0
 62138  1  0  0  0
 62139  1  0  0  0
 62140  1  0  0  0
 63 65  1  0  0  0
 63141  1  0  0  0
 63142  1  0  0  0
 63143  1  0  0  0
 64144  1  0  0  0
 65145  1  0  0  0
 68 82  1  0  0  0
 71 72  2  0  0  0
 71 73  1  0  0  0
 71 81  1  0  0  0
 72 79  1  0  0  0
 72 83  1  0  0  0
 73 80  1  0  0  0
 73 84  2  0  0  0
 74 83  2  0  0  0
 74 84  1  0  0  0
 74 85  1  0  0  0
 75 77  1  0  0  0
 75 85  1  0  0  0
 75146  1  0  0  0
 75147  1  0  0  0
 76 78  1  0  0  0
 76 85  1  0  0  0
 76148  1  0  0  0
 76149  1  0  0  0
 77 86  1  0  0  0
 77150  1  0  0  0
 77151  1  0  0  0
 78 86  1  0  0  0
 78152  1  0  0  0
 78153  1  0  0  0
 79154  1  0  0  0
 79155  1  0  0  0
 79156  1  0  0  0
 80157  1  0  0  0
 80158  1  0  0  0
 80159  1  0  0  0
 81 82  1  0  0  0
 81160  1  0  0  0
 81161  1  0  0  0
 82162  1  0  0  0
 82163  1  0  0  0
M  ISO  4   1 100  68 101  82 101  86 100
M  END
> <chiral flag>
0

> <version>
0

> <s_m_source_file>
/data/baiqing/PycharmProjects/Reinvent-master-3.2/result/LINK_invent/BTK/process_docking_weight1_custom_sum_contain_oxygen_bond_distance_aromatic_linkinvent_7_9_3/rearranged_h_0193.sdf

> <i_m_source_file_index>
65

> <r_mmod_Potential_Energy-OPLS-2005>
-348.329711914062

> <r_mmod_Stretch_Energy-OPLS-2005>
50.8238182067871

> <r_mmod_Bend_Energy-OPLS-2005>
122.78638458252

> <r_mmod_Torsional_Energy-OPLS-2005>
334.823760986328

> <r_mmod_Improper_Torsional_Energy-OPLS-2005>
15.5311975479126

> <r_mmod_Van_der_Waal_Energy-OPLS-2005>
169.956359863281

> <r_mmod_Electrostatic_Energy-OPLS-2005>
-838.400146484375

> <r_mmod_Solvation_Energy-OPLS-2005>
-232.365371704102

> <b_mmod_Minimization_Converged-OPLS-2005>
0

> <r_mmod_RMS_Derivative-OPLS-2005>
1.40963339805603

$$$$
65
                    3D
 Structure written by MMmdl.
158167  0  0  1  0            999 V2000
  -30.6075  -14.7627   20.4668 C   0  0  0  0  0  0
  -30.4298  -12.4702   19.4751 C   0  0  0  0  0  0
  -29.5076  -12.5055   18.2366 C   0  0  0  0  0  0
  -28.0346  -12.3283   18.6512 C   0  0  0  0  0  0
  -27.6382  -13.2343   19.8474 C   0  0  2  0  0  0
  -28.6813  -13.1884   20.9832 C   0  0  0  0  0  0
  -25.2507  -13.8195   20.5715 C   0  0  0  0  0  0
  -24.1799  -13.0444   20.9195 C   0  0  0  0  0  0
  -24.6394  -11.6922   20.8742 C   0  0  0  0  0  0
  -23.9079  -10.4300   21.0401 C   0  0  0  0  0  0
  -24.3632   -9.4218   21.9183 C   0  0  0  0  0  0
  -23.6305   -8.2255   22.0757 C   0  0  0  0  0  0
  -22.4285   -8.0291   21.3547 C   0  0  0  0  0  0
  -21.9919   -9.0266   20.4649 C   0  0  0  0  0  0
  -22.7249  -10.2142   20.3054 C   0  0  0  0  0  0
  -21.6854   -6.0745   22.5281 C   0  0  0  0  0  0
  -21.4017   -6.5649   23.8215 C   0  0  0  0  0  0
  -21.3660   -5.6799   24.9172 C   0  0  0  0  0  0
  -21.6041   -4.3061   24.7218 C   0  0  0  0  0  0
  -21.8820   -3.8158   23.4336 C   0  0  0  0  0  0
  -21.9197   -4.6976   22.3397 C   0  0  0  0  0  0
  -22.7820  -13.5223   21.1859 C   0  0  0  0  0  0
  -22.1666   -4.2168   21.0971 F   0  0  0  0  0  0
  -21.5626   -3.4540   25.7727 F   0  0  0  0  0  0
  -29.9756  -13.5411   20.3923 N   0  0  0  0  0  0
  -26.2929  -12.9415   20.3280 N   0  0  0  0  0  0
  -25.9328  -11.6554   20.5761 N   0  0  0  0  0  0
  -22.0480  -12.8211   22.0414 N   0  0  0  0  0  0
  -25.4226  -15.1920   20.4178 N   0  0  0  0  0  0
  -31.8069  -14.8380   20.1824 O   0  0  0  0  0  0
  -21.6645   -6.8890   21.4244 O   0  0  0  0  0  0
  -22.3508  -14.5543   20.6712 O   0  0  0  0  0  0
  -24.6304  -31.8539   23.1951 C   0  0  0  0  0  0
  -25.9136  -32.4742   23.8302 C   0  0  1  0  0  0
  -27.2164  -27.2393   20.1611 C   0  0  0  0  0  0
  -25.5926  -33.8544   24.2232 N   0  0  0  0  0  0
  -23.4269  -30.4747   21.5393 C   0  0  2  0  0  0
  -24.8726  -28.9080   20.1164 C   0  0  0  0  0  0
  -22.7482  -29.4608   22.4922 C   0  0  0  0  0  0
  -18.0296  -28.1361   22.8503 C   0  0  0  0  0  0
  -24.1494  -36.7279   23.2640 C   0  0  0  0  0  0
  -25.9699  -30.7609   21.3756 C   0  0  0  0  0  0
  -26.0399  -29.3764   20.7317 C   0  0  0  0  0  0
  -27.2115  -28.5543   20.7435 C   0  0  0  0  0  0
  -26.0299  -26.8390   19.5097 C   0  0  0  0  0  0
  -24.8723  -27.6476   19.4964 C   0  0  0  0  0  0
  -23.6444  -29.7988   20.1583 C   0  0  0  0  0  0
  -25.4119  -36.3060   24.0321 C   0  0  1  0  0  0
  -20.5899  -28.3713   23.1320 C   0  0  2  0  0  0
  -20.6825  -26.9427   22.5468 C   0  0  0  0  0  0
  -19.5796  -26.6414   21.5275 C   0  0  0  0  0  0
  -18.1956  -26.7910   22.1652 C   0  0  0  0  0  0
  -19.1537  -28.8850   23.2889 C   0  0  0  0  0  0
  -18.9453  -30.1458   23.8885 C   0  0  0  0  0  0
  -17.6454  -30.6579   24.0557 C   0  0  0  0  0  0
  -25.9058  -34.9433   23.5082 C   0  0  0  0  0  0
  -16.5362  -29.9063   23.6313 C   0  0  0  0  0  0
  -16.7284  -28.6475   23.0347 C   0  0  0  0  0  0
  -26.4505  -31.6573   25.0696 C   0  0  0  0  0  0
  -25.3722  -31.3730   26.1411 C   0  0  0  0  0  0
  -27.0356  -30.2987   24.6190 C   0  0  0  0  0  0
  -27.6046  -32.4322   25.7475 C   0  0  0  0  0  0
  -27.5577  -37.1790   24.8461 C   0  0  0  0  0  0
  -21.4179  -29.3088   22.3704 N   0  0  0  0  0  0
  -26.4291  -37.3758   23.9405 N   0  0  0  0  0  0
  -24.6951  -31.0493   22.0929 N   0  0  0  0  0  0
  -23.4190  -28.8118   23.2993 O   0  0  0  0  0  0
  -28.3627  -26.4089   20.1464 O   0  0  0  0  0  0
  -26.5643  -34.8911   22.4659 O   0  0  0  0  0  0
  -23.5456  -32.1365   23.7247 O   0  0  0  0  0  0
  -29.4807  -23.0242   19.6085 C   0  0  0  0  0  0
  -28.5933  -22.1605   20.2982 C   0  0  0  0  0  0
  -27.5781  -22.9195   20.9695 C   0  0  0  0  0  0
  -28.3605  -25.0003   20.1947 C   0  0  0  0  0  0
  -30.1382  -17.1555   19.6771 C   0  0  0  0  0  0
  -29.7056  -16.9079   21.6220 C   0  0  0  0  0  0
  -29.2061  -17.9847   20.6032 C   0  0  0  0  0  0
  -26.8107  -22.3915   23.3231 C   0  0  0  0  0  0
  -28.6185  -20.5506   20.0627 C   0  0  0  0  0  0
  -26.5073  -22.2603   21.8257 C   0  0  0  0  0  0
  -29.3751  -24.3894   19.5718 N   0  0  0  0  0  0
  -27.4786  -24.2949   20.9173 N   0  0  0  0  0  0
  -29.8246  -15.9233   20.4933 N   0  0  0  0  0  0
  -29.4218  -19.5059   20.8697 N   0  3  0  0  0  0
  -31.4692  -12.6037   19.1694 H   0  0  0  0  0  0
  -30.3812  -11.4987   19.9705 H   0  0  0  0  0  0
  -29.7932  -11.7271   17.5281 H   0  0  0  0  0  0
  -29.6283  -13.4549   17.7135 H   0  0  0  0  0  0
  -27.8933  -11.2808   18.9190 H   0  0  0  0  0  0
  -27.3772  -12.5148   17.8011 H   0  0  0  0  0  0
  -27.6278  -14.2527   19.4580 H   0  0  0  0  0  0
  -28.7210  -12.2007   21.4457 H   0  0  0  0  0  0
  -28.4150  -13.8915   21.7730 H   0  0  0  0  0  0
  -25.2773   -9.5698   22.4756 H   0  0  0  0  0  0
  -24.0020   -7.4643   22.7470 H   0  0  0  0  0  0
  -21.0853   -8.8773   19.8954 H   0  0  0  0  0  0
  -22.3698  -10.9681   19.6165 H   0  0  0  0  0  0
  -21.2011   -7.6159   23.9717 H   0  0  0  0  0  0
  -21.1479   -6.0530   25.9073 H   0  0  0  0  0  0
  -22.0598   -2.7622   23.2825 H   0  0  0  0  0  0
  -22.4110  -11.9878   22.4804 H   0  0  0  0  0  0
  -21.1097  -13.1228   22.2618 H   0  0  0  0  0  0
  -24.6616  -15.8501   20.5410 H   0  0  0  0  0  0
  -26.2835  -15.6309   20.1169 H   0  0  0  0  0  0
  -26.7197  -32.5401   23.1041 H   0  0  0  0  0  0
  -25.0049  -33.9674   25.0363 H   0  0  0  0  0  0
  -22.7257  -31.2986   21.3895 H   0  0  0  0  0  0
  -23.3755  -35.9614   23.3294 H   0  0  0  0  0  0
  -24.3582  -36.8913   22.2055 H   0  0  0  0  0  0
  -23.7252  -37.6475   23.6679 H   0  0  0  0  0  0
  -26.1038  -31.5124   20.5973 H   0  0  0  0  0  0
  -26.8486  -30.8167   22.0058 H   0  0  0  0  0  0
  -28.1100  -28.9152   21.2254 H   0  0  0  0  0  0
  -25.9821  -25.8760   19.0221 H   0  0  0  0  0  0
  -23.9779  -27.2856   19.0088 H   0  0  0  0  0  0
  -23.7640  -30.5681   19.3934 H   0  0  0  0  0  0
  -22.7614  -29.2289   19.8622 H   0  0  0  0  0  0
  -25.1307  -36.1898   25.0814 H   0  0  0  0  0  0
  -20.9980  -28.3318   24.1447 H   0  0  0  0  0  0
  -20.5746  -26.2308   23.3659 H   0  0  0  0  0  0
  -21.6692  -26.7459   22.1249 H   0  0  0  0  0  0
  -19.6737  -27.3316   20.6886 H   0  0  0  0  0  0
  -19.6976  -25.6375   21.1204 H   0  0  0  0  0  0
  -17.4252  -26.6650   21.4030 H   0  0  0  0  0  0
  -18.0318  -26.0055   22.9043 H   0  0  0  0  0  0
  -19.7916  -30.7295   24.2233 H   0  0  0  0  0  0
  -17.4996  -31.6248   24.5171 H   0  0  0  0  0  0
  -15.5356  -30.2955   23.7627 H   0  0  0  0  0  0
  -15.8695  -28.0773   22.7068 H   0  0  0  0  0  0
  -24.5899  -30.7080   25.7730 H   0  0  0  0  0  0
  -24.8914  -32.2906   26.4810 H   0  0  0  0  0  0
  -25.8020  -30.8915   27.0203 H   0  0  0  0  0  0
  -26.2936  -29.6722   24.1216 H   0  0  0  0  0  0
  -27.4036  -29.7256   25.4710 H   0  0  0  0  0  0
  -27.8818  -30.4251   23.9431 H   0  0  0  0  0  0
  -27.2644  -33.3627   26.2032 H   0  0  0  0  0  0
  -28.3869  -32.6872   25.0314 H   0  0  0  0  0  0
  -28.0712  -31.8468   26.5409 H   0  0  0  0  0  0
  -28.2584  -38.0094   24.7513 H   0  0  0  0  0  0
  -28.1082  -36.2621   24.6289 H   0  0  0  0  0  0
  -27.2291  -37.1443   25.8861 H   0  0  0  0  0  0
  -20.9332  -29.8914   21.7015 H   0  0  0  0  0  0
  -26.0165  -38.2828   24.1411 H   0  0  0  0  0  0
  -30.2837  -22.6060   19.0196 H   0  0  0  0  0  0
  -31.1892  -17.4580   19.7072 H   0  0  0  0  0  0
  -29.7878  -17.1092   18.6460 H   0  0  0  0  0  0
  -28.9530  -16.6423   22.3659 H   0  0  0  0  0  0
  -30.6570  -17.1466   22.1046 H   0  0  0  0  0  0
  -28.1573  -17.8064   20.3581 H   0  0  0  0  0  0
  -26.0380  -21.9053   23.9182 H   0  0  0  0  0  0
  -26.8596  -23.4372   23.6261 H   0  0  0  0  0  0
  -27.7653  -21.9299   23.5738 H   0  0  0  0  0  0
  -28.9354  -20.4131   19.0283 H   0  0  0  0  0  0
  -27.5871  -20.2051   20.0531 H   0  0  0  0  0  0
  -26.3921  -21.2093   21.5719 H   0  0  0  0  0  0
  -25.5433  -22.7222   21.6080 H   0  0  0  0  0  0
  -30.4042  -19.7143   20.7964 H   0  0  0  0  0  0
  -29.1763  -19.6544   21.8355 H   0  0  0  0  0  0
  1 25  1  0  0  0
  1 30  2  0  0  0
  1 83  1  0  0  0
  2  3  1  0  0  0
  2 25  1  0  0  0
  2 85  1  0  0  0
  2 86  1  0  0  0
  3  4  1  0  0  0
  3 87  1  0  0  0
  3 88  1  0  0  0
  4  5  1  0  0  0
  4 89  1  0  0  0
  4 90  1  0  0  0
  5  6  1  0  0  0
  5 26  1  0  0  0
  5 91  1  0  0  0
  6 25  1  0  0  0
  6 92  1  0  0  0
  6 93  1  0  0  0
  7  8  2  0  0  0
  7 26  1  0  0  0
  7 29  1  0  0  0
  8  9  1  0  0  0
  8 22  1  0  0  0
  9 10  1  0  0  0
  9 27  2  0  0  0
 10 11  2  0  0  0
 10 15  1  0  0  0
 11 12  1  0  0  0
 11 94  1  0  0  0
 12 13  2  0  0  0
 12 95  1  0  0  0
 13 14  1  0  0  0
 13 31  1  0  0  0
 14 15  2  0  0  0
 14 96  1  0  0  0
 15 97  1  0  0  0
 16 17  2  0  0  0
 16 21  1  0  0  0
 16 31  1  0  0  0
 17 18  1  0  0  0
 17 98  1  0  0  0
 18 19  2  0  0  0
 18 99  1  0  0  0
 19 20  1  0  0  0
 19 24  1  0  0  0
 20 21  2  0  0  0
 20100  1  0  0  0
 21 23  1  0  0  0
 22 28  1  0  0  0
 22 32  2  0  0  0
 26 27  1  0  0  0
 28101  1  0  0  0
 28102  1  0  0  0
 29103  1  0  0  0
 29104  1  0  0  0
 33 34  1  0  0  0
 33 66  1  0  0  0
 33 70  2  0  0  0
 34 36  1  0  0  0
 34 59  1  0  0  0
 34105  1  0  0  0
 35 44  2  0  0  0
 35 45  1  0  0  0
 35 68  1  0  0  0
 36 56  1  0  0  0
 36106  1  0  0  0
 37 39  1  0  0  0
 37 47  1  0  0  0
 37 66  1  0  0  0
 37107  1  0  0  0
 38 43  2  0  0  0
 38 46  1  0  0  0
 38 47  1  0  0  0
 39 64  1  0  0  0
 39 67  2  0  0  0
 40 52  1  0  0  0
 40 53  2  0  0  0
 40 58  1  0  0  0
 41108  1  0  0  0
 41109  1  0  0  0
 41110  1  0  0  0
 41 48  1  0  0  0
 42 43  1  0  0  0
 42 66  1  0  0  0
 42111  1  0  0  0
 42112  1  0  0  0
 43 44  1  0  0  0
 44113  1  0  0  0
 45 46  2  0  0  0
 45114  1  0  0  0
 46115  1  0  0  0
 47116  1  0  0  0
 47117  1  0  0  0
 48 56  1  0  0  0
 48 65  1  0  0  0
 48118  1  0  0  0
 49 50  1  0  0  0
 49 53  1  0  0  0
 49 64  1  0  0  0
 49119  1  0  0  0
 50 51  1  0  0  0
 50120  1  0  0  0
 50121  1  0  0  0
 51 52  1  0  0  0
 51122  1  0  0  0
 51123  1  0  0  0
 52124  1  0  0  0
 52125  1  0  0  0
 53 54  1  0  0  0
 54 55  2  0  0  0
 54126  1  0  0  0
 55 57  1  0  0  0
 55127  1  0  0  0
 56 69  2  0  0  0
 57 58  2  0  0  0
 57128  1  0  0  0
 58129  1  0  0  0
 59 60  1  0  0  0
 59 61  1  0  0  0
 59 62  1  0  0  0
 60130  1  0  0  0
 60131  1  0  0  0
 60132  1  0  0  0
 61133  1  0  0  0
 61134  1  0  0  0
 61135  1  0  0  0
 62136  1  0  0  0
 62137  1  0  0  0
 62138  1  0  0  0
 63 65  1  0  0  0
 63139  1  0  0  0
 63140  1  0  0  0
 63141  1  0  0  0
 64142  1  0  0  0
 65143  1  0  0  0
 68 74  1  0  0  0
 71 72  2  0  0  0
 71 81  1  0  0  0
 71144  1  0  0  0
 72 73  1  0  0  0
 72 79  1  0  0  0
 73 80  1  0  0  0
 73 82  2  0  0  0
 74 81  2  0  0  0
 74 82  1  0  0  0
 75 77  1  0  0  0
 75 83  1  0  0  0
 75145  1  0  0  0
 75146  1  0  0  0
 76 77  1  0  0  0
 76 83  1  0  0  0
 76147  1  0  0  0
 76148  1  0  0  0
 77 84  1  0  0  0
 77149  1  0  0  0
 78 80  1  0  0  0
 78150  1  0  0  0
 78151  1  0  0  0
 78152  1  0  0  0
 79 84  1  0  0  0
 79153  1  0  0  0
 79154  1  0  0  0
 80155  1  0  0  0
 80156  1  0  0  0
 84157  1  0  0  0
 84158  1  0  0  0
M  CHG  1  84   1
M  ISO  4   1 100  68 101  74 101  83 100
M  END
> <chiral flag>
0

> <version>
0

> <s_m_source_file>
/data/baiqing/PycharmProjects/Reinvent-master-3.2/result/LINK_invent/BTK/process_docking_weight1_custom_sum_contain_oxygen_bond_distance_aromatic_linkinvent_7_9_3/rearranged_h_0193.sdf

> <i_m_source_file_index>
66

> <r_mmod_Potential_Energy-OPLS-2005>
-265.870239257812

> <r_mmod_Stretch_Energy-OPLS-2005>
121.56787109375

> <r_mmod_Bend_Energy-OPLS-2005>
216.969314575195

> <r_mmod_Torsional_Energy-OPLS-2005>
271.285369873047

> <r_mmod_Improper_Torsional_Energy-OPLS-2005>
19.3488159179688

> <r_mmod_Van_der_Waal_Energy-OPLS-2005>
137.868209838867

> <r_mmod_Electrostatic_Energy-OPLS-2005>
-604.479370117188

> <r_mmod_Solvation_Energy-OPLS-2005>
-517.766906738281

> <b_mmod_Minimization_Converged-OPLS-2005>
0

> <r_mmod_RMS_Derivative-OPLS-2005>
2.03977489471436

$$$$
66
                    3D
 Structure written by MMmdl.
167176  0  0  1  0            999 V2000
  -30.6949  -14.4304   20.5530 C   0  0  0  0  0  0
  -30.4170  -12.2624   19.4431 C   0  0  0  0  0  0
  -29.5061  -12.4856   18.2163 C   0  0  0  0  0  0
  -28.0196  -12.3627   18.6162 C   0  0  0  0  0  0
  -27.6619  -13.2023   19.8762 C   0  0  2  0  0  0
  -28.6963  -12.9692   21.0040 C   0  0  0  0  0  0
  -25.2550  -13.8165   20.5707 C   0  0  0  0  0  0
  -24.1810  -13.0458   20.9234 C   0  0  0  0  0  0
  -24.6325  -11.6906   20.8772 C   0  0  0  0  0  0
  -23.8988  -10.4295   21.0421 C   0  0  0  0  0  0
  -24.3550   -9.4204   21.9186 C   0  0  0  0  0  0
  -23.6257   -8.2233   22.0739 C   0  0  0  0  0  0
  -22.4254   -8.0251   21.3532 C   0  0  0  0  0  0
  -21.9859   -9.0211   20.4639 C   0  0  0  0  0  0
  -22.7169  -10.2095   20.3049 C   0  0  0  0  0  0
  -21.6840   -6.0713   22.5273 C   0  0  0  0  0  0
  -21.4013   -6.5631   23.8207 C   0  0  0  0  0  0
  -21.3673   -5.6780   24.9177 C   0  0  0  0  0  0
  -21.6040   -4.3050   24.7228 C   0  0  0  0  0  0
  -21.8827   -3.8133   23.4369 C   0  0  0  0  0  0
  -21.9190   -4.6940   22.3417 C   0  0  0  0  0  0
  -22.7822  -13.5238   21.1894 C   0  0  0  0  0  0
  -22.1664   -4.2141   21.1007 F   0  0  0  0  0  0
  -21.5616   -3.4528   25.7745 F   0  0  0  0  0  0
  -30.0333  -13.2511   20.4575 N   0  0  0  0  0  0
  -26.2992  -12.9338   20.3357 N   0  0  0  0  0  0
  -25.9249  -11.6489   20.5761 N   0  0  0  0  0  0
  -22.0443  -12.8239   22.0447 N   0  0  0  0  0  0
  -25.4276  -15.1897   20.4120 N   0  0  0  0  0  0
  -31.8358  -14.6135   20.1202 O   0  0  0  0  0  0
  -21.6626   -6.8843   21.4240 O   0  0  0  0  0  0
  -22.3525  -14.5538   20.6716 O   0  0  0  0  0  0
  -24.6133  -31.8701   23.2118 C   0  0  0  0  0  0
  -25.9033  -32.4839   23.8406 C   0  0  1  0  0  0
  -27.2383  -27.4681   20.0720 C   0  0  0  0  0  0
  -25.5902  -33.8634   24.2342 N   0  0  0  0  0  0
  -23.4004  -30.4943   21.5523 C   0  0  2  0  0  0
  -24.8470  -28.9628   20.1154 C   0  0  0  0  0  0
  -22.7401  -29.4671   22.5003 C   0  0  0  0  0  0
  -18.0275  -28.1385   22.8501 C   0  0  0  0  0  0
  -24.1489  -36.7314   23.2634 C   0  0  0  0  0  0
  -25.9264  -30.8438   21.3603 C   0  0  0  0  0  0
  -26.0059  -29.4800   20.7092 C   0  0  0  0  0  0
  -27.2054  -28.7341   20.6954 C   0  0  0  0  0  0
  -26.0618  -26.9497   19.4954 C   0  0  0  0  0  0
  -24.8675  -27.6940   19.5107 C   0  0  0  0  0  0
  -23.6086  -29.8288   20.1658 C   0  0  0  0  0  0
  -25.4108  -36.3115   24.0336 C   0  0  1  0  0  0
  -20.5857  -28.3667   23.1333 C   0  0  2  0  0  0
  -20.6769  -26.9406   22.5413 C   0  0  0  0  0  0
  -19.5748  -26.6398   21.5218 C   0  0  0  0  0  0
  -18.1924  -26.7935   22.1623 C   0  0  0  0  0  0
  -19.1519  -28.8842   23.2914 C   0  0  0  0  0  0
  -18.9453  -30.1453   23.8915 C   0  0  0  0  0  0
  -17.6452  -30.6588   24.0575 C   0  0  0  0  0  0
  -25.9035  -34.9482   23.5132 C   0  0  0  0  0  0
  -16.5343  -29.9094   23.6332 C   0  0  0  0  0  0
  -16.7265  -28.6515   23.0348 C   0  0  0  0  0  0
  -26.4472  -31.6606   25.0716 C   0  0  0  0  0  0
  -25.3747  -31.3687   26.1468 C   0  0  0  0  0  0
  -27.0303  -30.3065   24.6048 C   0  0  0  0  0  0
  -27.6053  -32.4321   25.7474 C   0  0  0  0  0  0
  -27.5589  -37.1808   24.8467 C   0  0  0  0  0  0
  -21.4130  -29.3036   22.3732 N   0  0  0  0  0  0
  -26.4300  -37.3804   23.9408 N   0  0  0  0  0  0
  -24.6650  -31.0818   22.1007 N   0  0  0  0  0  0
  -23.4179  -28.8212   23.3034 O   0  0  0  0  0  0
  -28.3887  -26.7200   20.0720 O   0  0  0  0  0  0
  -26.5591  -34.8934   22.4691 O   0  0  0  0  0  0
  -23.5321  -32.1437   23.7530 O   0  0  0  0  0  0
  -26.5471  -20.0514   18.4441 C   0  0  0  0  0  0
  -26.6907  -21.6341   16.8133 C   0  0  0  0  0  0
  -27.7319  -22.2656   17.4870 C   0  0  0  0  0  0
  -27.6349  -20.6708   19.1259 C   0  0  0  0  0  0
  -26.3507  -22.3189   15.5214 C   0  0  0  0  0  0
  -27.3711  -23.4839   15.4423 C   0  0  0  0  0  0
  -28.2247  -23.4915   16.7453 C   0  0  1  0  0  0
  -28.1591  -20.0973   20.4334 C   0  0  0  0  0  0
  -30.2294  -16.8466   20.5243 C   0  0  0  0  0  0
  -28.9943  -17.7598   20.6493 C   0  0  0  0  0  0
  -29.1974  -25.1769   18.3244 C   0  0  0  0  0  0
  -29.0828  -26.6344   18.8289 C   0  0  0  0  0  0
  -26.0664  -20.5248   17.2648 N   0  0  0  0  0  0
  -28.2406  -21.8012   18.6545 N   0  0  0  0  0  0
  -29.9337  -15.4680   20.9230 N   0  0  0  0  0  0
  -28.0294  -24.7404   17.5188 N   0  3  0  0  0  0
  -29.2737  -19.1486   20.2178 N   0  3  0  0  0  0
  -31.4719  -12.3317   19.1728 H   0  0  0  0  0  0
  -30.2738  -11.2573   19.8412 H   0  0  0  0  0  0
  -29.7487  -11.7629   17.4349 H   0  0  0  0  0  0
  -29.6899  -13.4746   17.7938 H   0  0  0  0  0  0
  -27.8179  -11.3061   18.8048 H   0  0  0  0  0  0
  -27.3807  -12.6474   17.7809 H   0  0  0  0  0  0
  -27.7074  -14.2504   19.5761 H   0  0  0  0  0  0
  -28.6574  -11.9333   21.3420 H   0  0  0  0  0  0
  -28.4688  -13.5722   21.8833 H   0  0  0  0  0  0
  -25.2676   -9.5699   22.4785 H   0  0  0  0  0  0
  -23.9981   -7.4602   22.7427 H   0  0  0  0  0  0
  -21.0781   -8.8678   19.8938 H   0  0  0  0  0  0
  -22.3592  -10.9609   19.6157 H   0  0  0  0  0  0
  -21.2020   -7.6137   23.9708 H   0  0  0  0  0  0
  -21.1488   -6.0523   25.9071 H   0  0  0  0  0  0
  -22.0594   -2.7598   23.2862 H   0  0  0  0  0  0
  -22.4016  -11.9914   22.4917 H   0  0  0  0  0  0
  -21.1031  -13.1243   22.2567 H   0  0  0  0  0  0
  -24.6446  -15.8305   20.4796 H   0  0  0  0  0  0
  -26.2611  -15.6198   20.0366 H   0  0  0  0  0  0
  -26.7107  -32.5568   23.1176 H   0  0  0  0  0  0
  -25.0086  -33.9811   25.0510 H   0  0  0  0  0  0
  -22.6877  -31.3100   21.4151 H   0  0  0  0  0  0
  -23.3760  -35.9644   23.3305 H   0  0  0  0  0  0
  -24.3589  -36.8920   22.2050 H   0  0  0  0  0  0
  -23.7238  -37.6517   23.6644 H   0  0  0  0  0  0
  -26.0294  -31.6111   20.5923 H   0  0  0  0  0  0
  -26.8170  -30.9021   21.9731 H   0  0  0  0  0  0
  -28.1014  -29.1288   21.1545 H   0  0  0  0  0  0
  -26.0555  -25.9667   19.0513 H   0  0  0  0  0  0
  -23.9722  -27.2841   19.0621 H   0  0  0  0  0  0
  -23.7155  -30.6062   19.4082 H   0  0  0  0  0  0
  -22.7334  -29.2496   19.8687 H   0  0  0  0  0  0
  -25.1286  -36.1985   25.0834 H   0  0  0  0  0  0
  -20.9959  -28.3235   24.1450 H   0  0  0  0  0  0
  -20.5695  -26.2272   23.3601 H   0  0  0  0  0  0
  -21.6641  -26.7475   22.1195 H   0  0  0  0  0  0
  -19.6909  -25.6311   21.1241 H   0  0  0  0  0  0
  -19.6691  -27.3221   20.6751 H   0  0  0  0  0  0
  -17.4197  -26.6703   21.4019 H   0  0  0  0  0  0
  -18.0316  -26.0068   22.9013 H   0  0  0  0  0  0
  -19.7924  -30.7277   24.2288 H   0  0  0  0  0  0
  -17.5003  -31.6273   24.5177 H   0  0  0  0  0  0
  -15.5345  -30.3001   23.7645 H   0  0  0  0  0  0
  -15.8669  -28.0847   22.7036 H   0  0  0  0  0  0
  -24.5922  -30.7042   25.7790 H   0  0  0  0  0  0
  -24.8939  -32.2835   26.4942 H   0  0  0  0  0  0
  -25.8110  -30.8828   27.0205 H   0  0  0  0  0  0
  -26.2827  -29.6822   24.1144 H   0  0  0  0  0  0
  -27.4154  -29.7300   25.4467 H   0  0  0  0  0  0
  -27.8623  -30.4417   23.9134 H   0  0  0  0  0  0
  -27.2682  -33.3612   26.2085 H   0  0  0  0  0  0
  -28.3843  -32.6901   25.0285 H   0  0  0  0  0  0
  -28.0749  -31.8426   26.5361 H   0  0  0  0  0  0
  -28.2598  -38.0113   24.7538 H   0  0  0  0  0  0
  -28.1092  -36.2647   24.6267 H   0  0  0  0  0  0
  -27.2307  -37.1425   25.8870 H   0  0  0  0  0  0
  -20.9281  -29.8754   21.6956 H   0  0  0  0  0  0
  -26.0188  -38.2882   24.1425 H   0  0  0  0  0  0
  -26.0703  -19.1637   18.8342 H   0  0  0  0  0  0
  -25.3219  -22.6795   15.5468 H   0  0  0  0  0  0
  -26.4540  -21.6288   14.6807 H   0  0  0  0  0  0
  -26.8609  -24.4295   15.2610 H   0  0  0  0  0  0
  -28.0278  -23.3243   14.5873 H   0  0  0  0  0  0
  -29.2755  -23.3614   16.4838 H   0  0  0  0  0  0
  -27.3403  -19.6244   20.9751 H   0  0  0  0  0  0
  -28.5048  -20.9120   21.0708 H   0  0  0  0  0  0
  -31.0540  -17.2303   21.1292 H   0  0  0  0  0  0
  -30.5712  -16.8530   19.4854 H   0  0  0  0  0  0
  -28.6577  -17.7692   21.6881 H   0  0  0  0  0  0
  -28.1753  -17.3687   20.0450 H   0  0  0  0  0  0
  -29.3744  -24.4868   19.1505 H   0  0  0  0  0  0
  -30.0840  -25.1291   17.6889 H   0  0  0  0  0  0
  -28.6749  -27.2964   18.0643 H   0  0  0  0  0  0
  -30.0905  -26.9982   19.0321 H   0  0  0  0  0  0
  -29.0169  -15.2575   21.2902 H   0  0  0  0  0  0
  -27.2278  -24.6066   18.1141 H   0  0  0  0  0  0
  -27.8201  -25.4649   16.8513 H   0  0  0  0  0  0
  -30.0644  -19.4992   20.7321 H   0  0  0  0  0  0
  -29.5184  -19.1745   19.2413 H   0  0  0  0  0  0
  1 25  1  0  0  0
  1 30  2  0  0  0
  1 85  1  0  0  0
  2  3  1  0  0  0
  2 25  1  0  0  0
  2 88  1  0  0  0
  2 89  1  0  0  0
  3  4  1  0  0  0
  3 90  1  0  0  0
  3 91  1  0  0  0
  4  5  1  0  0  0
  4 92  1  0  0  0
  4 93  1  0  0  0
  5  6  1  0  0  0
  5 26  1  0  0  0
  5 94  1  0  0  0
  6 25  1  0  0  0
  6 95  1  0  0  0
  6 96  1  0  0  0
  7  8  2  0  0  0
  7 26  1  0  0  0
  7 29  1  0  0  0
  8  9  1  0  0  0
  8 22  1  0  0  0
  9 10  1  0  0  0
  9 27  2  0  0  0
 10 11  2  0  0  0
 10 15  1  0  0  0
 11 12  1  0  0  0
 11 97  1  0  0  0
 12 13  2  0  0  0
 12 98  1  0  0  0
 13 14  1  0  0  0
 13 31  1  0  0  0
 14 15  2  0  0  0
 14 99  1  0  0  0
 15100  1  0  0  0
 16 17  2  0  0  0
 16 21  1  0  0  0
 16 31  1  0  0  0
 17 18  1  0  0  0
 17101  1  0  0  0
 18 19  2  0  0  0
 18102  1  0  0  0
 19 20  1  0  0  0
 19 24  1  0  0  0
 20 21  2  0  0  0
 20103  1  0  0  0
 21 23  1  0  0  0
 22 28  1  0  0  0
 22 32  2  0  0  0
 26 27  1  0  0  0
 28104  1  0  0  0
 28105  1  0  0  0
 29106  1  0  0  0
 29107  1  0  0  0
 33 34  1  0  0  0
 33 66  1  0  0  0
 33 70  2  0  0  0
 34 36  1  0  0  0
 34 59  1  0  0  0
 34108  1  0  0  0
 35 44  2  0  0  0
 35 45  1  0  0  0
 35 68  1  0  0  0
 36 56  1  0  0  0
 36109  1  0  0  0
 37 39  1  0  0  0
 37 47  1  0  0  0
 37 66  1  0  0  0
 37110  1  0  0  0
 38 43  2  0  0  0
 38 46  1  0  0  0
 38 47  1  0  0  0
 39 64  1  0  0  0
 39 67  2  0  0  0
 40 52  1  0  0  0
 40 53  2  0  0  0
 40 58  1  0  0  0
 41111  1  0  0  0
 41112  1  0  0  0
 41113  1  0  0  0
 41 48  1  0  0  0
 42 43  1  0  0  0
 42 66  1  0  0  0
 42114  1  0  0  0
 42115  1  0  0  0
 43 44  1  0  0  0
 44116  1  0  0  0
 45 46  2  0  0  0
 45117  1  0  0  0
 46118  1  0  0  0
 47119  1  0  0  0
 47120  1  0  0  0
 48 56  1  0  0  0
 48 65  1  0  0  0
 48121  1  0  0  0
 49 50  1  0  0  0
 49 53  1  0  0  0
 49 64  1  0  0  0
 49122  1  0  0  0
 50 51  1  0  0  0
 50123  1  0  0  0
 50124  1  0  0  0
 51 52  1  0  0  0
 51125  1  0  0  0
 51126  1  0  0  0
 52127  1  0  0  0
 52128  1  0  0  0
 53 54  1  0  0  0
 54 55  2  0  0  0
 54129  1  0  0  0
 55 57  1  0  0  0
 55130  1  0  0  0
 56 69  2  0  0  0
 57 58  2  0  0  0
 57131  1  0  0  0
 58132  1  0  0  0
 59 60  1  0  0  0
 59 61  1  0  0  0
 59 62  1  0  0  0
 60133  1  0  0  0
 60134  1  0  0  0
 60135  1  0  0  0
 61136  1  0  0  0
 61137  1  0  0  0
 61138  1  0  0  0
 62139  1  0  0  0
 62140  1  0  0  0
 62141  1  0  0  0
 63 65  1  0  0  0
 63142  1  0  0  0
 63143  1  0  0  0
 63144  1  0  0  0
 64145  1  0  0  0
 65146  1  0  0  0
 68 82  1  0  0  0
 71 74  2  0  0  0
 71 83  1  0  0  0
 71147  1  0  0  0
 72 73  1  0  0  0
 72 75  1  0  0  0
 72 83  2  0  0  0
 73 77  1  0  0  0
 73 84  2  0  0  0
 74 78  1  0  0  0
 74 84  1  0  0  0
 75 76  1  0  0  0
 75148  1  0  0  0
 75149  1  0  0  0
 76 77  1  0  0  0
 76150  1  0  0  0
 76151  1  0  0  0
 77 86  1  0  0  0
 77152  1  0  0  0
 78 87  1  0  0  0
 78153  1  0  0  0
 78154  1  0  0  0
 79 80  1  0  0  0
 79 85  1  0  0  0
 79155  1  0  0  0
 79156  1  0  0  0
 80 87  1  0  0  0
 80157  1  0  0  0
 80158  1  0  0  0
 81 82  1  0  0  0
 81 86  1  0  0  0
 81159  1  0  0  0
 81160  1  0  0  0
 82161  1  0  0  0
 82162  1  0  0  0
 85163  1  0  0  0
 86164  1  0  0  0
 86165  1  0  0  0
 87166  1  0  0  0
 87167  1  0  0  0
M  CHG  2  86   1  87   1
M  ISO  4   1 100  68 101  82 101  85 100
M  END
> <chiral flag>
0

> <version>
0

> <s_m_source_file>
/data/baiqing/PycharmProjects/Reinvent-master-3.2/result/LINK_invent/BTK/process_docking_weight1_custom_sum_contain_oxygen_bond_distance_aromatic_linkinvent_7_9_3/rearranged_h_0193.sdf

> <i_m_source_file_index>
67

> <r_mmod_Potential_Energy-OPLS-2005>
-418.631317138672

> <r_mmod_Stretch_Energy-OPLS-2005>
36.8236236572266

> <r_mmod_Bend_Energy-OPLS-2005>
129.363800048828

> <r_mmod_Torsional_Energy-OPLS-2005>
266.619384765625

> <r_mmod_Improper_Torsional_Energy-OPLS-2005>
6.80147314071655

> <r_mmod_Van_der_Waal_Energy-OPLS-2005>
147.672332763672

> <r_mmod_Electrostatic_Energy-OPLS-2005>
-56.5103225708008

> <r_mmod_Solvation_Energy-OPLS-2005>
-960.397521972656

> <b_mmod_Minimization_Converged-OPLS-2005>
0

> <r_mmod_RMS_Derivative-OPLS-2005>
4.34408044815063

$$$$
67
                    3D
 Structure written by MMmdl.
151160  0  0  1  0            999 V2000
  -30.5213  -15.2019   20.3704 C   0  0  0  0  0  0
  -30.4190  -12.7748   19.5112 C   0  0  0  0  0  0
  -29.5203  -12.5553   18.2737 C   0  0  0  0  0  0
  -28.0699  -12.2940   18.7093 C   0  0  0  0  0  0
  -27.6051  -13.2770   19.8148 C   0  0  2  0  0  0
  -28.6417  -13.4674   20.9417 C   0  0  0  0  0  0
  -25.2380  -13.8263   20.5769 C   0  0  0  0  0  0
  -24.1726  -13.0445   20.9263 C   0  0  0  0  0  0
  -24.6381  -11.6943   20.8768 C   0  0  0  0  0  0
  -23.9081  -10.4298   21.0408 C   0  0  0  0  0  0
  -24.3628   -9.4214   21.9181 C   0  0  0  0  0  0
  -23.6307   -8.2243   22.0741 C   0  0  0  0  0  0
  -22.4291   -8.0274   21.3529 C   0  0  0  0  0  0
  -21.9927   -9.0250   20.4636 C   0  0  0  0  0  0
  -22.7254  -10.2133   20.3055 C   0  0  0  0  0  0
  -21.6858   -6.0734   22.5278 C   0  0  0  0  0  0
  -21.4019   -6.5638   23.8212 C   0  0  0  0  0  0
  -21.3665   -5.6787   24.9172 C   0  0  0  0  0  0
  -21.6045   -4.3050   24.7222 C   0  0  0  0  0  0
  -21.8821   -3.8143   23.4343 C   0  0  0  0  0  0
  -21.9198   -4.6962   22.3402 C   0  0  0  0  0  0
  -22.7748  -13.5197   21.1912 C   0  0  0  0  0  0
  -22.1665   -4.2151   21.0977 F   0  0  0  0  0  0
  -21.5633   -3.4531   25.7734 F   0  0  0  0  0  0
  -29.8728  -13.9429   20.2948 N   0  0  0  0  0  0
  -26.2789  -12.9536   20.3216 N   0  0  0  0  0  0
  -25.9314  -11.6637   20.5720 N   0  0  0  0  0  0
  -22.0400  -12.8175   22.0463 N   0  0  0  0  0  0
  -25.4055  -15.1991   20.4243 N   0  0  0  0  0  0
  -31.7469  -15.1054   20.2207 O   0  0  0  0  0  0
  -21.6647   -6.8875   21.4237 O   0  0  0  0  0  0
  -22.3436  -14.5502   20.6758 O   0  0  0  0  0  0
  -24.6589  -31.8284   23.1725 C   0  0  0  0  0  0
  -25.9293  -32.4608   23.8175 C   0  0  1  0  0  0
  -27.2078  -26.9652   20.1800 C   0  0  0  0  0  0
  -25.5980  -33.8421   24.2092 N   0  0  0  0  0  0
  -23.4705  -30.4423   21.5211 C   0  0  2  0  0  0
  -24.9200  -28.8368   20.1095 C   0  0  0  0  0  0
  -22.7647  -29.4469   22.4791 C   0  0  0  0  0  0
  -18.0326  -28.1412   22.8481 C   0  0  0  0  0  0
  -24.1491  -36.7216   23.2648 C   0  0  0  0  0  0
  -26.0370  -30.6478   21.3955 C   0  0  0  0  0  0
  -26.1029  -29.2410   20.7408 C   0  0  0  0  0  0
  -27.2435  -28.3256   20.7527 C   0  0  0  0  0  0
  -25.9976  -26.7033   19.5012 C   0  0  0  0  0  0
  -24.8904  -27.5869   19.4702 C   0  0  0  0  0  0
  -23.7063  -29.7621   20.1448 C   0  0  0  0  0  0
  -25.4133  -36.2978   24.0302 C   0  0  1  0  0  0
  -20.5949  -28.3751   23.1210 C   0  0  2  0  0  0
  -20.6806  -26.9442   22.5407 C   0  0  0  0  0  0
  -19.5773  -26.6385   21.5225 C   0  0  0  0  0  0
  -18.1957  -26.7947   22.1632 C   0  0  0  0  0  0
  -19.1585  -28.8902   23.2832 C   0  0  0  0  0  0
  -18.9495  -30.1496   23.8861 C   0  0  0  0  0  0
  -17.6485  -30.6603   24.0561 C   0  0  0  0  0  0
  -25.9091  -34.9359   23.5015 C   0  0  0  0  0  0
  -16.5378  -29.9094   23.6346 C   0  0  0  0  0  0
  -16.7304  -28.6513   23.0370 C   0  0  0  0  0  0
  -26.4561  -31.6537   25.0685 C   0  0  0  0  0  0
  -25.3694  -31.3790   26.1348 C   0  0  0  0  0  0
  -27.0459  -30.2910   24.6391 C   0  0  0  0  0  0
  -27.6044  -32.4345   25.7497 C   0  0  0  0  0  0
  -27.5567  -37.1771   24.8472 C   0  0  0  0  0  0
  -21.4321  -29.3046   22.3552 N   0  0  0  0  0  0
  -26.4279  -37.3710   23.9406 N   0  0  0  0  0  0
  -24.7432  -30.9995   22.0831 N   0  0  0  0  0  0
  -23.4221  -28.8048   23.3018 O   0  0  0  0  0  0
  -28.2156  -25.8810   20.2598 O   0  0  0  0  0  0
  -26.5702  -34.8890   22.4608 O   0  0  0  0  0  0
  -23.5673  -32.1229   23.6846 O   0  0  0  0  0  0
  -30.6872  -17.9231   20.5052 C   0  0  0  0  0  0
  -28.6801  -17.4159   20.2423 C   0  0  0  0  0  0
  -29.0461  -20.1547   21.3303 C   0  0  0  0  0  0
  -29.3062  -20.1899   19.3544 C   0  0  0  0  0  0
  -29.3997  -18.8927   20.3527 C   0  0  0  0  0  0
  -28.9625  -22.8278   20.3909 C   0  0  0  0  0  0
  -27.9536  -24.2691   20.1082 C   0  0  0  0  0  0
  -29.9548  -16.5726   20.4506 N   0  0  0  0  0  0
  -28.6092  -21.2065   20.2846 N   0  3  0  0  0  0
  -31.4432  -12.9448   19.1765 H   0  0  0  0  0  0
  -30.4590  -11.8758   20.1291 H   0  0  0  0  0  0
  -29.8915  -11.7218   17.6752 H   0  0  0  0  0  0
  -29.5590  -13.4374   17.6328 H   0  0  0  0  0  0
  -28.0242  -11.2728   19.0888 H   0  0  0  0  0  0
  -27.3977  -12.3296   17.8510 H   0  0  0  0  0  0
  -27.5159  -14.2414   19.3123 H   0  0  0  0  0  0
  -28.8031  -12.5469   21.5051 H   0  0  0  0  0  0
  -28.2934  -14.2184   21.6522 H   0  0  0  0  0  0
  -25.2765   -9.5703   22.4766 H   0  0  0  0  0  0
  -24.0026   -7.4642   22.7465 H   0  0  0  0  0  0
  -21.0854   -8.8766   19.8951 H   0  0  0  0  0  0
  -22.3697  -10.9670   19.6176 H   0  0  0  0  0  0
  -21.2006   -7.6145   23.9715 H   0  0  0  0  0  0
  -21.1490   -6.0513   25.9077 H   0  0  0  0  0  0
  -22.0598   -2.7606   23.2834 H   0  0  0  0  0  0
  -22.4023  -11.9852   22.4871 H   0  0  0  0  0  0
  -21.1007  -13.1181   22.2651 H   0  0  0  0  0  0
  -24.6419  -15.8552   20.5468 H   0  0  0  0  0  0
  -26.2609  -15.6368   20.1083 H   0  0  0  0  0  0
  -26.7369  -32.5155   23.0896 H   0  0  0  0  0  0
  -25.0084  -33.9503   25.0214 H   0  0  0  0  0  0
  -22.7807  -31.2723   21.3559 H   0  0  0  0  0  0
  -23.3750  -35.9550   23.3302 H   0  0  0  0  0  0
  -24.3569  -36.8861   22.2063 H   0  0  0  0  0  0
  -23.7251  -37.6406   23.6704 H   0  0  0  0  0  0
  -26.2144  -31.3914   20.6173 H   0  0  0  0  0  0
  -26.8987  -30.7019   22.0497 H   0  0  0  0  0  0
  -28.1390  -28.6328   21.2749 H   0  0  0  0  0  0
  -25.8704  -25.7501   19.0104 H   0  0  0  0  0  0
  -23.9907  -27.2713   18.9589 H   0  0  0  0  0  0
  -23.8582  -30.5329   19.3878 H   0  0  0  0  0  0
  -22.8156  -29.2155   19.8290 H   0  0  0  0  0  0
  -25.1330  -36.1775   25.0794 H   0  0  0  0  0  0
  -21.0040  -28.3350   24.1330 H   0  0  0  0  0  0
  -20.5711  -26.2364   23.3640 H   0  0  0  0  0  0
  -21.6669  -26.7437   22.1197 H   0  0  0  0  0  0
  -19.6928  -25.6288   21.1280 H   0  0  0  0  0  0
  -19.6705  -27.3179   20.6745 H   0  0  0  0  0  0
  -17.4228  -26.6702   21.4033 H   0  0  0  0  0  0
  -18.0338  -26.0102   22.9041 H   0  0  0  0  0  0
  -19.7971  -30.7333   24.2198 H   0  0  0  0  0  0
  -17.5040  -31.6276   24.5180 H   0  0  0  0  0  0
  -15.5380  -30.2988   23.7686 H   0  0  0  0  0  0
  -15.8706  -28.0819   22.7105 H   0  0  0  0  0  0
  -24.5890  -30.7119   25.7677 H   0  0  0  0  0  0
  -24.8865  -32.2989   26.4644 H   0  0  0  0  0  0
  -25.7932  -30.9054   27.0208 H   0  0  0  0  0  0
  -26.3125  -29.6587   24.1376 H   0  0  0  0  0  0
  -27.3996  -29.7274   25.5035 H   0  0  0  0  0  0
  -27.9061  -30.4116   23.9801 H   0  0  0  0  0  0
  -27.2602  -33.3682   26.1961 H   0  0  0  0  0  0
  -28.3921  -32.6846   25.0375 H   0  0  0  0  0  0
  -28.0640  -31.8540   26.5508 H   0  0  0  0  0  0
  -28.2584  -38.0068   24.7498 H   0  0  0  0  0  0
  -28.1060  -36.2590   24.6324 H   0  0  0  0  0  0
  -27.2279  -37.1448   25.8875 H   0  0  0  0  0  0
  -20.9560  -29.8726   21.6686 H   0  0  0  0  0  0
  -26.0125  -38.2769   24.1395 H   0  0  0  0  0  0
  -31.3947  -18.0560   19.6848 H   0  0  0  0  0  0
  -31.2107  -18.0832   21.4483 H   0  0  0  0  0  0
  -27.9307  -17.2613   21.0196 H   0  0  0  0  0  0
  -28.2251  -17.2519   19.2640 H   0  0  0  0  0  0
  -29.9328  -20.4973   21.8665 H   0  0  0  0  0  0
  -28.2585  -19.9367   22.0521 H   0  0  0  0  0  0
  -28.7295  -20.0000   18.4487 H   0  0  0  0  0  0
  -30.2987  -20.5460   19.0742 H   0  0  0  0  0  0
  -29.3124  -22.9439   21.4161 H   0  0  0  0  0  0
  -29.8620  -22.9625   19.7910 H   0  0  0  0  0  0
  -27.0517  -24.0994   20.6967 H   0  0  0  0  0  0
  -27.6183  -24.1640   19.0766 H   0  0  0  0  0  0
  -27.6116  -21.1102   20.1616 H   0  0  0  0  0  0
  1 25  1  0  0  0
  1 30  2  0  0  0
  1 78  1  0  0  0
  2  3  1  0  0  0
  2 25  1  0  0  0
  2 80  1  0  0  0
  2 81  1  0  0  0
  3  4  1  0  0  0
  3 82  1  0  0  0
  3 83  1  0  0  0
  4  5  1  0  0  0
  4 84  1  0  0  0
  4 85  1  0  0  0
  5  6  1  0  0  0
  5 26  1  0  0  0
  5 86  1  0  0  0
  6 25  1  0  0  0
  6 87  1  0  0  0
  6 88  1  0  0  0
  7  8  2  0  0  0
  7 26  1  0  0  0
  7 29  1  0  0  0
  8  9  1  0  0  0
  8 22  1  0  0  0
  9 10  1  0  0  0
  9 27  2  0  0  0
 10 11  2  0  0  0
 10 15  1  0  0  0
 11 12  1  0  0  0
 11 89  1  0  0  0
 12 13  2  0  0  0
 12 90  1  0  0  0
 13 14  1  0  0  0
 13 31  1  0  0  0
 14 15  2  0  0  0
 14 91  1  0  0  0
 15 92  1  0  0  0
 16 17  2  0  0  0
 16 21  1  0  0  0
 16 31  1  0  0  0
 17 18  1  0  0  0
 17 93  1  0  0  0
 18 19  2  0  0  0
 18 94  1  0  0  0
 19 20  1  0  0  0
 19 24  1  0  0  0
 20 21  2  0  0  0
 20 95  1  0  0  0
 21 23  1  0  0  0
 22 28  1  0  0  0
 22 32  2  0  0  0
 26 27  1  0  0  0
 28 96  1  0  0  0
 28 97  1  0  0  0
 29 98  1  0  0  0
 29 99  1  0  0  0
 33 34  1  0  0  0
 33 66  1  0  0  0
 33 70  2  0  0  0
 34 36  1  0  0  0
 34 59  1  0  0  0
 34100  1  0  0  0
 35 44  2  0  0  0
 35 45  1  0  0  0
 35 68  1  0  0  0
 36 56  1  0  0  0
 36101  1  0  0  0
 37 39  1  0  0  0
 37 47  1  0  0  0
 37 66  1  0  0  0
 37102  1  0  0  0
 38 43  2  0  0  0
 38 46  1  0  0  0
 38 47  1  0  0  0
 39 64  1  0  0  0
 39 67  2  0  0  0
 40 52  1  0  0  0
 40 53  2  0  0  0
 40 58  1  0  0  0
 41103  1  0  0  0
 41104  1  0  0  0
 41105  1  0  0  0
 41 48  1  0  0  0
 42 43  1  0  0  0
 42 66  1  0  0  0
 42106  1  0  0  0
 42107  1  0  0  0
 43 44  1  0  0  0
 44108  1  0  0  0
 45 46  2  0  0  0
 45109  1  0  0  0
 46110  1  0  0  0
 47111  1  0  0  0
 47112  1  0  0  0
 48 56  1  0  0  0
 48 65  1  0  0  0
 48113  1  0  0  0
 49 50  1  0  0  0
 49 53  1  0  0  0
 49 64  1  0  0  0
 49114  1  0  0  0
 50 51  1  0  0  0
 50115  1  0  0  0
 50116  1  0  0  0
 51 52  1  0  0  0
 51117  1  0  0  0
 51118  1  0  0  0
 52119  1  0  0  0
 52120  1  0  0  0
 53 54  1  0  0  0
 54 55  2  0  0  0
 54121  1  0  0  0
 55 57  1  0  0  0
 55122  1  0  0  0
 56 69  2  0  0  0
 57 58  2  0  0  0
 57123  1  0  0  0
 58124  1  0  0  0
 59 60  1  0  0  0
 59 61  1  0  0  0
 59 62  1  0  0  0
 60125  1  0  0  0
 60126  1  0  0  0
 60127  1  0  0  0
 61128  1  0  0  0
 61129  1  0  0  0
 61130  1  0  0  0
 62131  1  0  0  0
 62132  1  0  0  0
 62133  1  0  0  0
 63 65  1  0  0  0
 63134  1  0  0  0
 63135  1  0  0  0
 63136  1  0  0  0
 64137  1  0  0  0
 65138  1  0  0  0
 68 77  1  0  0  0
 71 78  1  0  0  0
 71139  1  0  0  0
 71140  1  0  0  0
 71 75  1  0  0  0
 72 75  1  0  0  0
 72 78  1  0  0  0
 72141  1  0  0  0
 72142  1  0  0  0
 73 75  1  0  0  0
 73 79  1  0  0  0
 73143  1  0  0  0
 73144  1  0  0  0
 74 75  1  0  0  0
 74 79  1  0  0  0
 74145  1  0  0  0
 74146  1  0  0  0
 76 77  1  0  0  0
 76147  1  0  0  0
 76148  1  0  0  0
 76 79  1  0  0  0
 77149  1  0  0  0
 77150  1  0  0  0
 79151  1  0  0  0
M  CHG  1  79   1
M  ISO  4   1 100  68 101  77 101  78 100
M  END
> <chiral flag>
0

> <version>
0

> <s_m_source_file>
/data/baiqing/PycharmProjects/Reinvent-master-3.2/result/LINK_invent/BTK/process_docking_weight1_custom_sum_contain_oxygen_bond_distance_aromatic_linkinvent_7_9_3/rearranged_h_0193.sdf

> <i_m_source_file_index>
68

> <r_mmod_Potential_Energy-OPLS-2005>
1041.91235351562

> <r_mmod_Stretch_Energy-OPLS-2005>
443.748107910156

> <r_mmod_Bend_Energy-OPLS-2005>
462.051696777344

> <r_mmod_Torsional_Energy-OPLS-2005>
328.104187011719

> <r_mmod_Improper_Torsional_Energy-OPLS-2005>
3.6418354511261

> <r_mmod_Van_der_Waal_Energy-OPLS-2005>
105.514457702637

> <r_mmod_Electrostatic_Energy-OPLS-2005>
-226.592071533203

> <r_mmod_Solvation_Energy-OPLS-2005>
-474.07373046875

> <b_mmod_Minimization_Converged-OPLS-2005>
0

> <r_mmod_RMS_Derivative-OPLS-2005>
1.40565180778503

$$$$
68
                    3D
 Structure written by MMmdl.
165173  0  0  1  0            999 V2000
  -30.5195  -14.9032   20.4470 C   0  0  0  0  0  0
  -30.4481  -12.5747   19.4587 C   0  0  0  0  0  0
  -29.5233  -12.5619   18.2233 C   0  0  0  0  0  0
  -28.0485  -12.3457   18.6321 C   0  0  0  0  0  0
  -27.6304  -13.2396   19.8298 C   0  0  2  0  0  0
  -28.6772  -13.2196   20.9584 C   0  0  0  0  0  0
  -25.2462  -13.8178   20.5545 C   0  0  0  0  0  0
  -24.1820  -13.0431   20.9247 C   0  0  0  0  0  0
  -24.6437  -11.6921   20.8761 C   0  0  0  0  0  0
  -23.9105  -10.4309   21.0405 C   0  0  0  0  0  0
  -24.3652   -9.4221   21.9185 C   0  0  0  0  0  0
  -23.6345   -8.2234   22.0740 C   0  0  0  0  0  0
  -22.4325   -8.0257   21.3514 C   0  0  0  0  0  0
  -21.9969   -9.0252   20.4615 C   0  0  0  0  0  0
  -22.7280  -10.2148   20.3047 C   0  0  0  0  0  0
  -21.6856   -6.0763   22.5310 C   0  0  0  0  0  0
  -21.4004   -6.5668   23.8240 C   0  0  0  0  0  0
  -21.3667   -5.6802   24.9202 C   0  0  0  0  0  0
  -21.6042   -4.3070   24.7234 C   0  0  0  0  0  0
  -21.8813   -3.8174   23.4357 C   0  0  0  0  0  0
  -21.9195   -4.7003   22.3420 C   0  0  0  0  0  0
  -22.7828  -13.5174   21.1931 C   0  0  0  0  0  0
  -22.1634   -4.2196   21.0990 F   0  0  0  0  0  0
  -21.5664   -3.4542   25.7733 F   0  0  0  0  0  0
  -29.9488  -13.6428   20.3571 N   0  0  0  0  0  0
  -26.2893  -12.9387   20.3129 N   0  0  0  0  0  0
  -25.9362  -11.6526   20.5726 N   0  0  0  0  0  0
  -22.0396  -12.8186   22.0445 N   0  0  0  0  0  0
  -25.4143  -15.1890   20.3786 N   0  0  0  0  0  0
  -31.7471  -15.0057   20.3198 O   0  0  0  0  0  0
  -21.6647   -6.8874   21.4249 O   0  0  0  0  0  0
  -22.3519  -14.5472   20.6758 O   0  0  0  0  0  0
  -24.6432  -31.8428   23.1923 C   0  0  0  0  0  0
  -25.9212  -32.4683   23.8276 C   0  0  1  0  0  0
  -27.2110  -27.1430   20.1474 C   0  0  0  0  0  0
  -25.5958  -33.8493   24.2203 N   0  0  0  0  0  0
  -23.4490  -30.4590   21.5410 C   0  0  2  0  0  0
  -24.8946  -28.8938   20.1119 C   0  0  0  0  0  0
  -22.7579  -29.4480   22.4908 C   0  0  0  0  0  0
  -18.0288  -28.1362   22.8489 C   0  0  0  0  0  0
  -24.1467  -36.7246   23.2659 C   0  0  0  0  0  0
  -26.0035  -30.7137   21.3920 C   0  0  0  0  0  0
  -26.0725  -29.3297   20.7302 C   0  0  0  0  0  0
  -27.2339  -28.4732   20.7313 C   0  0  0  0  0  0
  -26.0095  -26.8131   19.4769 C   0  0  0  0  0  0
  -24.8769  -27.6508   19.4670 C   0  0  0  0  0  0
  -23.6716  -29.7923   20.1584 C   0  0  0  0  0  0
  -25.4113  -36.3044   24.0333 C   0  0  1  0  0  0
  -20.5907  -28.3659   23.1252 C   0  0  2  0  0  0
  -20.6767  -26.9355   22.5411 C   0  0  0  0  0  0
  -19.5742  -26.6343   21.5210 C   0  0  0  0  0  0
  -18.1933  -26.7900   22.1631 C   0  0  0  0  0  0
  -19.1560  -28.8855   23.2843 C   0  0  0  0  0  0
  -18.9459  -30.1472   23.8847 C   0  0  0  0  0  0
  -17.6460  -30.6577   24.0558 C   0  0  0  0  0  0
  -25.9075  -34.9412   23.5083 C   0  0  0  0  0  0
  -16.5350  -29.9062   23.6353 C   0  0  0  0  0  0
  -16.7276  -28.6470   23.0383 C   0  0  0  0  0  0
  -26.4515  -31.6562   25.0738 C   0  0  0  0  0  0
  -25.3709  -31.3738   26.1447 C   0  0  0  0  0  0
  -27.0417  -30.2979   24.6330 C   0  0  0  0  0  0
  -27.6055  -32.4331   25.7530 C   0  0  0  0  0  0
  -27.5565  -37.1780   24.8473 C   0  0  0  0  0  0
  -21.4268  -29.2983   22.3652 N   0  0  0  0  0  0
  -26.4279  -37.3750   23.9434 N   0  0  0  0  0  0
  -24.7201  -31.0242   22.0975 N   0  0  0  0  0  0
  -23.4209  -28.8046   23.3066 O   0  0  0  0  0  0
  -28.2686  -26.1626   20.2036 O   0  0  0  0  0  0
  -26.5655  -34.8907   22.4651 O   0  0  0  0  0  0
  -23.5566  -32.1308   23.7119 O   0  0  0  0  0  0
  -27.1279  -21.4752   20.1344 C   0  0  0  0  0  0
  -28.1781  -19.6801   19.0166 C   0  0  0  0  0  0
  -28.6049  -21.6934   20.5087 C   0  0  1  0  0  0
  -29.3213  -20.2729   19.8879 C   0  0  2  0  0  0
  -31.2410  -19.7238   18.1143 C   0  0  0  0  0  0
  -25.7918  -20.1693   18.5112 C   0  0  0  0  0  0
  -29.0012  -23.3163   20.1821 C   0  0  0  0  0  0
  -30.5087  -20.7607   18.9989 C   0  0  0  0  0  0
  -29.9409  -19.0001   20.8105 C   0  0  0  0  0  0
  -29.4601  -17.4109   21.0982 C   0  0  0  0  0  0
  -27.9663  -24.6416   20.3322 C   0  0  0  0  0  0
  -29.6717  -16.0346   20.3672 N   0  0  0  0  0  0
  -27.1216  -20.6993   18.8856 N   0  3  1  0  0  0
  -31.4771  -12.7614   19.1514 H   0  0  0  0  0  0
  -30.4495  -11.6005   19.9555 H   0  0  0  0  0  0
  -29.8473  -11.7936   17.5245 H   0  0  0  0  0  0
  -29.6266  -13.5163   17.7003 H   0  0  0  0  0  0
  -27.9177  -11.2966   18.8940 H   0  0  0  0  0  0
  -27.3912  -12.5335   17.7797 H   0  0  0  0  0  0
  -27.6088  -14.2573   19.4444 H   0  0  0  0  0  0
  -28.7520  -12.2246   21.4007 H   0  0  0  0  0  0
  -28.3849  -13.8981   21.7593 H   0  0  0  0  0  0
  -25.2779   -9.5750   22.4784 H   0  0  0  0  0  0
  -24.0098   -7.4643   22.7454 H   0  0  0  0  0  0
  -21.0907   -8.8767   19.8922 H   0  0  0  0  0  0
  -22.3717  -10.9708   19.6169 H   0  0  0  0  0  0
  -21.1938   -7.6161   23.9778 H   0  0  0  0  0  0
  -21.1496   -6.0504   25.9109 H   0  0  0  0  0  0
  -22.0580   -2.7649   23.2840 H   0  0  0  0  0  0
  -22.3931  -11.9893   22.4977 H   0  0  0  0  0  0
  -21.0997  -13.1243   22.2519 H   0  0  0  0  0  0
  -24.6345  -15.8314   20.4371 H   0  0  0  0  0  0
  -26.2318  -15.6049   19.9535 H   0  0  0  0  0  0
  -26.7278  -32.5264   23.1003 H   0  0  0  0  0  0
  -25.0112  -33.9539   25.0359 H   0  0  0  0  0  0
  -22.7549  -31.2884   21.3882 H   0  0  0  0  0  0
  -23.3763  -35.9533   23.3283 H   0  0  0  0  0  0
  -24.3560  -36.8912   22.2079 H   0  0  0  0  0  0
  -23.7142  -37.6406   23.6704 H   0  0  0  0  0  0
  -26.1591  -31.4697   20.6228 H   0  0  0  0  0  0
  -26.8740  -30.7561   22.0335 H   0  0  0  0  0  0
  -28.1315  -28.8031   21.2376 H   0  0  0  0  0  0
  -25.9101  -25.8778   18.9510 H   0  0  0  0  0  0
  -23.9820  -27.3209   18.9598 H   0  0  0  0  0  0
  -23.8034  -30.5665   19.3999 H   0  0  0  0  0  0
  -22.7880  -29.2255   19.8585 H   0  0  0  0  0  0
  -25.1276  -36.1904   25.0819 H   0  0  0  0  0  0
  -20.9951  -28.3193   24.1387 H   0  0  0  0  0  0
  -20.5638  -26.2241   23.3601 H   0  0  0  0  0  0
  -21.6630  -26.7368   22.1204 H   0  0  0  0  0  0
  -19.6904  -25.6244   21.1255 H   0  0  0  0  0  0
  -19.6724  -27.3138   20.6726 H   0  0  0  0  0  0
  -17.4208  -26.6677   21.4021 H   0  0  0  0  0  0
  -18.0333  -26.0011   22.8996 H   0  0  0  0  0  0
  -19.7950  -30.7324   24.2126 H   0  0  0  0  0  0
  -17.5017  -31.6247   24.5160 H   0  0  0  0  0  0
  -15.5350  -30.2956   23.7698 H   0  0  0  0  0  0
  -15.8660  -28.0782   22.7119 H   0  0  0  0  0  0
  -24.5865  -30.7104   25.7772 H   0  0  0  0  0  0
  -24.8917  -32.2912   26.4892 H   0  0  0  0  0  0
  -25.7988  -30.8901   27.0242 H   0  0  0  0  0  0
  -26.3062  -29.6683   24.1327 H   0  0  0  0  0  0
  -27.4038  -29.7288   25.4902 H   0  0  0  0  0  0
  -27.8938  -30.4255   23.9658 H   0  0  0  0  0  0
  -27.2665  -33.3676   26.2025 H   0  0  0  0  0  0
  -28.3914  -32.6821   25.0383 H   0  0  0  0  0  0
  -28.0669  -31.8515   26.5524 H   0  0  0  0  0  0
  -28.2580  -38.0083   24.7541 H   0  0  0  0  0  0
  -28.1061  -36.2618   24.6280 H   0  0  0  0  0  0
  -27.2285  -37.1391   25.8872 H   0  0  0  0  0  0
  -20.9495  -29.8703   21.6835 H   0  0  0  0  0  0
  -26.0165  -38.2821   24.1457 H   0  0  0  0  0  0
  -26.5478  -22.3882   20.0154 H   0  0  0  0  0  0
  -26.6395  -20.8962   20.9192 H   0  0  0  0  0  0
  -27.7432  -18.8131   19.5097 H   0  0  0  0  0  0
  -28.5001  -19.3334   18.0369 H   0  0  0  0  0  0
  -28.6550  -21.6155   21.5957 H   0  0  0  0  0  0
  -32.0206  -20.2211   17.5352 H   0  0  0  0  0  0
  -30.5899  -19.2482   17.3832 H   0  0  0  0  0  0
  -31.7339  -18.9360   18.6795 H   0  0  0  0  0  0
  -25.0669  -20.9766   18.3939 H   0  0  0  0  0  0
  -25.4068  -19.4872   19.2708 H   0  0  0  0  0  0
  -25.8505  -19.6293   17.5667 H   0  0  0  0  0  0
  -29.3630  -23.3812   19.1573 H   0  0  0  0  0  0
  -29.8794  -23.5353   20.7984 H   0  0  0  0  0  0
  -31.2494  -21.2317   19.6474 H   0  0  0  0  0  0
  -30.1683  -21.5415   18.3205 H   0  0  0  0  0  0
  -29.8755  -19.4327   21.8132 H   0  0  0  0  0  0
  -31.0201  -18.9510   20.6889 H   0  0  0  0  0  0
  -28.3838  -17.4600   21.2711 H   0  0  0  0  0  0
  -29.8547  -17.2032   22.0930 H   0  0  0  0  0  0
  -27.4562  -24.5359   21.2916 H   0  0  0  0  0  0
  -27.2048  -24.4357   19.5882 H   0  0  0  0  0  0
  -28.7691  -15.6918   20.0691 H   0  0  0  0  0  0
  -27.4110  -21.3233   18.1465 H   0  0  0  0  0  0
  1 25  1  0  0  0
  1 30  2  0  0  0
  1 82  1  0  0  0
  2  3  1  0  0  0
  2 25  1  0  0  0
  2 84  1  0  0  0
  2 85  1  0  0  0
  3  4  1  0  0  0
  3 86  1  0  0  0
  3 87  1  0  0  0
  4  5  1  0  0  0
  4 88  1  0  0  0
  4 89  1  0  0  0
  5  6  1  0  0  0
  5 26  1  0  0  0
  5 90  1  0  0  0
  6 25  1  0  0  0
  6 91  1  0  0  0
  6 92  1  0  0  0
  7  8  2  0  0  0
  7 26  1  0  0  0
  7 29  1  0  0  0
  8  9  1  0  0  0
  8 22  1  0  0  0
  9 10  1  0  0  0
  9 27  2  0  0  0
 10 11  2  0  0  0
 10 15  1  0  0  0
 11 12  1  0  0  0
 11 93  1  0  0  0
 12 13  2  0  0  0
 12 94  1  0  0  0
 13 14  1  0  0  0
 13 31  1  0  0  0
 14 15  2  0  0  0
 14 95  1  0  0  0
 15 96  1  0  0  0
 16 17  2  0  0  0
 16 21  1  0  0  0
 16 31  1  0  0  0
 17 18  1  0  0  0
 17 97  1  0  0  0
 18 19  2  0  0  0
 18 98  1  0  0  0
 19 20  1  0  0  0
 19 24  1  0  0  0
 20 21  2  0  0  0
 20 99  1  0  0  0
 21 23  1  0  0  0
 22 28  1  0  0  0
 22 32  2  0  0  0
 26 27  1  0  0  0
 28100  1  0  0  0
 28101  1  0  0  0
 29102  1  0  0  0
 29103  1  0  0  0
 33 34  1  0  0  0
 33 66  1  0  0  0
 33 70  2  0  0  0
 34 36  1  0  0  0
 34 59  1  0  0  0
 34104  1  0  0  0
 35 44  2  0  0  0
 35 45  1  0  0  0
 35 68  1  0  0  0
 36 56  1  0  0  0
 36105  1  0  0  0
 37 39  1  0  0  0
 37 47  1  0  0  0
 37 66  1  0  0  0
 37106  1  0  0  0
 38 43  2  0  0  0
 38 46  1  0  0  0
 38 47  1  0  0  0
 39 64  1  0  0  0
 39 67  2  0  0  0
 40 52  1  0  0  0
 40 53  2  0  0  0
 40 58  1  0  0  0
 41107  1  0  0  0
 41108  1  0  0  0
 41109  1  0  0  0
 41 48  1  0  0  0
 42 43  1  0  0  0
 42 66  1  0  0  0
 42110  1  0  0  0
 42111  1  0  0  0
 43 44  1  0  0  0
 44112  1  0  0  0
 45 46  2  0  0  0
 45113  1  0  0  0
 46114  1  0  0  0
 47115  1  0  0  0
 47116  1  0  0  0
 48 56  1  0  0  0
 48 65  1  0  0  0
 48117  1  0  0  0
 49 50  1  0  0  0
 49 53  1  0  0  0
 49 64  1  0  0  0
 49118  1  0  0  0
 50 51  1  0  0  0
 50119  1  0  0  0
 50120  1  0  0  0
 51 52  1  0  0  0
 51121  1  0  0  0
 51122  1  0  0  0
 52123  1  0  0  0
 52124  1  0  0  0
 53 54  1  0  0  0
 54 55  2  0  0  0
 54125  1  0  0  0
 55 57  1  0  0  0
 55126  1  0  0  0
 56 69  2  0  0  0
 57 58  2  0  0  0
 57127  1  0  0  0
 58128  1  0  0  0
 59 60  1  0  0  0
 59 61  1  0  0  0
 59 62  1  0  0  0
 60129  1  0  0  0
 60130  1  0  0  0
 60131  1  0  0  0
 61132  1  0  0  0
 61133  1  0  0  0
 61134  1  0  0  0
 62135  1  0  0  0
 62136  1  0  0  0
 62137  1  0  0  0
 63 65  1  0  0  0
 63138  1  0  0  0
 63139  1  0  0  0
 63140  1  0  0  0
 64141  1  0  0  0
 65142  1  0  0  0
 68 81  1  0  0  0
 71 73  1  0  0  0
 71 83  1  0  0  0
 71143  1  0  0  0
 71144  1  0  0  0
 72 74  1  0  0  0
 72 83  1  0  0  0
 72145  1  0  0  0
 72146  1  0  0  0
 73 74  1  0  0  0
 73 77  1  0  0  0
 73147  1  0  0  0
 74 78  1  0  0  0
 74 79  1  0  0  0
 75 78  1  0  0  0
 75148  1  0  0  0
 75149  1  0  0  0
 75150  1  0  0  0
 76151  1  0  0  0
 76152  1  0  0  0
 76153  1  0  0  0
 76 83  1  0  0  0
 77 81  1  0  0  0
 77154  1  0  0  0
 77155  1  0  0  0
 78156  1  0  0  0
 78157  1  0  0  0
 79 80  1  0  0  0
 79158  1  0  0  0
 79159  1  0  0  0
 80 82  1  0  0  0
 80160  1  0  0  0
 80161  1  0  0  0
 81162  1  0  0  0
 81163  1  0  0  0
 82164  1  0  0  0
 83165  1  0  0  0
M  CHG  1  83   1
M  ISO  4   1 100  68 101  81 101  82 100
M  END
> <chiral flag>
0

> <version>
0

> <s_m_source_file>
/data/baiqing/PycharmProjects/Reinvent-master-3.2/result/LINK_invent/BTK/process_docking_weight1_custom_sum_contain_oxygen_bond_distance_aromatic_linkinvent_7_9_3/rearranged_h_0193.sdf

> <i_m_source_file_index>
69

> <r_mmod_Potential_Energy-OPLS-2005>
648.407470703125

> <r_mmod_Stretch_Energy-OPLS-2005>
278.864562988281

> <r_mmod_Bend_Energy-OPLS-2005>
378.295349121094

> <r_mmod_Torsional_Energy-OPLS-2005>
366.776702880859

> <r_mmod_Improper_Torsional_Energy-OPLS-2005>
10.5020732879639

> <r_mmod_Van_der_Waal_Energy-OPLS-2005>
117.776069641113

> <r_mmod_Electrostatic_Energy-OPLS-2005>
-224.079971313477

> <r_mmod_Solvation_Energy-OPLS-2005>
-460.325592041016

> <b_mmod_Minimization_Converged-OPLS-2005>
0

> <r_mmod_RMS_Derivative-OPLS-2005>
5.90915203094482

$$$$
69
                    3D
 Structure written by MMmdl.
170178  0  0  1  0            999 V2000
  -30.7352  -14.5401   20.3216 C   0  0  0  0  0  0
  -30.4357  -12.2905   19.4184 C   0  0  0  0  0  0
  -29.4600  -12.2720   18.2193 C   0  0  0  0  0  0
  -28.0054  -12.2026   18.6954 C   0  0  0  0  0  0
  -27.6560  -13.1866   19.8417 C   0  0  2  0  0  0
  -28.7323  -13.1252   20.9505 C   0  0  0  0  0  0
  -25.2645  -13.8152   20.5711 C   0  0  0  0  0  0
  -24.1880  -13.0503   20.9230 C   0  0  0  0  0  0
  -24.6356  -11.6942   20.8849 C   0  0  0  0  0  0
  -23.9031  -10.4336   21.0487 C   0  0  0  0  0  0
  -24.3599   -9.4223   21.9226 C   0  0  0  0  0  0
  -23.6283   -8.2252   22.0771 C   0  0  0  0  0  0
  -22.4259   -8.0316   21.3562 C   0  0  0  0  0  0
  -21.9894   -9.0286   20.4667 C   0  0  0  0  0  0
  -22.7226  -10.2160   20.3103 C   0  0  0  0  0  0
  -21.6850   -6.0747   22.5256 C   0  0  0  0  0  0
  -21.4003   -6.5646   23.8199 C   0  0  0  0  0  0
  -21.3647   -5.6808   24.9164 C   0  0  0  0  0  0
  -21.6019   -4.3066   24.7225 C   0  0  0  0  0  0
  -21.8829   -3.8152   23.4349 C   0  0  0  0  0  0
  -21.9195   -4.6970   22.3405 C   0  0  0  0  0  0
  -22.7876  -13.5298   21.1857 C   0  0  0  0  0  0
  -22.1680   -4.2153   21.0974 F   0  0  0  0  0  0
  -21.5616   -3.4551   25.7737 F   0  0  0  0  0  0
  -30.0338  -13.3731   20.3192 N   0  0  0  0  0  0
  -26.3060  -12.9280   20.3441 N   0  0  0  0  0  0
  -25.9286  -11.6494   20.6008 N   0  0  0  0  0  0
  -22.0542  -12.8282   22.0405 N   0  0  0  0  0  0
  -25.4457  -15.1866   20.3927 N   0  0  0  0  0  0
  -31.9613  -14.5793   20.3631 O   0  0  0  0  0  0
  -21.6651   -6.8884   21.4233 O   0  0  0  0  0  0
  -22.3569  -14.5625   20.6718 O   0  0  0  0  0  0
  -24.6168  -31.8609   23.2086 C   0  0  0  0  0  0
  -25.9090  -32.4696   23.8335 C   0  0  1  0  0  0
  -27.2272  -27.4305   20.0675 C   0  0  0  0  0  0
  -25.5964  -33.8510   24.2236 N   0  0  0  0  0  0
  -23.3958  -30.4961   21.5459 C   0  0  2  0  0  0
  -24.8371  -28.9585   20.1030 C   0  0  0  0  0  0
  -22.7311  -29.4705   22.4890 C   0  0  0  0  0  0
  -18.0280  -28.1383   22.8559 C   0  0  0  0  0  0
  -24.1490  -36.7272   23.2635 C   0  0  0  0  0  0
  -25.9291  -30.8164   21.3701 C   0  0  0  0  0  0
  -26.0018  -29.4627   20.6989 C   0  0  0  0  0  0
  -27.1914  -28.7010   20.6844 C   0  0  0  0  0  0
  -26.0373  -26.9285   19.4981 C   0  0  0  0  0  0
  -24.8504  -27.6829   19.5151 C   0  0  0  0  0  0
  -23.5994  -29.8268   20.1617 C   0  0  0  0  0  0
  -25.4119  -36.3002   24.0273 C   0  0  1  0  0  0
  -20.5860  -28.3730   23.1260 C   0  0  2  0  0  0
  -20.6757  -26.9435   22.5404 C   0  0  0  0  0  0
  -19.5731  -26.6400   21.5225 C   0  0  0  0  0  0
  -18.1919  -26.7944   22.1660 C   0  0  0  0  0  0
  -19.1531  -28.8872   23.2912 C   0  0  0  0  0  0
  -18.9467  -30.1457   23.8943 C   0  0  0  0  0  0
  -17.6482  -30.6595   24.0611 C   0  0  0  0  0  0
  -25.9064  -34.9393   23.5040 C   0  0  0  0  0  0
  -16.5374  -29.9121   23.6327 C   0  0  0  0  0  0
  -16.7267  -28.6501   23.0415 C   0  0  0  0  0  0
  -26.4520  -31.6574   25.0753 C   0  0  0  0  0  0
  -25.3729  -31.3695   26.1461 C   0  0  0  0  0  0
  -27.0347  -30.2969   24.6269 C   0  0  0  0  0  0
  -27.6049  -32.4365   25.7527 C   0  0  0  0  0  0
  -27.5536  -37.1757   24.8435 C   0  0  0  0  0  0
  -21.4057  -29.3083   22.3612 N   0  0  0  0  0  0
  -26.4267  -37.3692   23.9408 N   0  0  0  0  0  0
  -24.6649  -31.0726   22.0993 N   0  0  0  0  0  0
  -23.4086  -28.8185   23.2872 O   0  0  0  0  0  0
  -28.4165  -26.7300   20.0641 O   0  0  0  0  0  0
  -26.5581  -34.8857   22.4584 O   0  0  0  0  0  0
  -23.5385  -32.1397   23.7483 O   0  0  0  0  0  0
  -31.0653  -16.6995   17.7003 C   0  0  0  0  0  0
  -30.8230  -17.7474   18.7433 C   0  0  0  0  0  0
  -30.2655  -15.5084   18.1924 C   0  0  0  0  0  0
  -30.3032  -17.0006   20.0020 C   0  0  1  0  0  0
  -29.1582  -22.9689   17.5735 C   0  0  0  0  0  0
  -31.3300  -22.0755   20.9665 C   0  0  0  0  0  0
  -29.0054  -17.6410   20.5734 C   0  0  0  0  0  0
  -28.4468  -24.2364   19.7715 C   0  0  0  0  0  0
  -29.9593  -19.9560   21.0392 C   0  0  0  0  0  0
  -28.6218  -25.6428   19.1478 C   0  0  0  0  0  0
  -29.3347  -23.1662   19.0897 C   0  0  1  0  0  0
  -30.3568  -21.1702   20.1578 C   0  0  1  0  0  0
  -30.1146  -15.5610   19.6623 N   0  0  0  0  0  0
  -29.1303  -21.8934   19.7820 N   0  0  0  0  0  0
  -28.9325  -19.1147   20.3923 N   0  3  0  0  0  0
  -31.4597  -12.4211   19.0644 H   0  0  0  0  0  0
  -30.4165  -11.3390   19.9534 H   0  0  0  0  0  0
  -29.6844  -11.4067   17.5913 H   0  0  0  0  0  0
  -29.5499  -13.1124   17.5503 H   0  0  0  0  0  0
  -27.8693  -11.1807   19.0530 H   0  0  0  0  0  0
  -27.3243  -12.3250   17.8555 H   0  0  0  0  0  0
  -27.6617  -14.1922   19.4189 H   0  0  0  0  0  0
  -28.7367  -12.1473   21.4353 H   0  0  0  0  0  0
  -28.5344  -13.8692   21.7241 H   0  0  0  0  0  0
  -25.2760   -9.5681   22.4803 H   0  0  0  0  0  0
  -23.9980   -7.4640   22.7489 H   0  0  0  0  0  0
  -21.0812   -8.8818   19.8982 H   0  0  0  0  0  0
  -22.3704  -10.9705   19.6216 H   0  0  0  0  0  0
  -21.1992   -7.6158   23.9696 H   0  0  0  0  0  0
  -21.1456   -6.0544   25.9055 H   0  0  0  0  0  0
  -22.0610   -2.7622   23.2848 H   0  0  0  0  0  0
  -22.4144  -11.9843   22.4643 H   0  0  0  0  0  0
  -21.1184  -13.1301   22.2735 H   0  0  0  0  0  0
  -24.6818  -15.8494   20.4677 H   0  0  0  0  0  0
  -26.2949  -15.6009   20.0328 H   0  0  0  0  0  0
  -26.7100  -32.5361   23.1014 H   0  0  0  0  0  0
  -25.0021  -33.9591   25.0322 H   0  0  0  0  0  0
  -22.6861  -31.3160   21.4063 H   0  0  0  0  0  0
  -23.3722  -35.9628   23.3321 H   0  0  0  0  0  0
  -24.3513  -36.8917   22.2027 H   0  0  0  0  0  0
  -23.7304  -37.6485   23.6724 H   0  0  0  0  0  0
  -26.0757  -31.5879   20.6154 H   0  0  0  0  0  0
  -26.7981  -30.8344   22.0124 H   0  0  0  0  0  0
  -28.0944  -29.0796   21.1411 H   0  0  0  0  0  0
  -26.0001  -25.9447   19.0512 H   0  0  0  0  0  0
  -23.9493  -27.2664   19.0867 H   0  0  0  0  0  0
  -23.6769  -30.6045   19.3991 H   0  0  0  0  0  0
  -22.7211  -29.2421   19.8805 H   0  0  0  0  0  0
  -25.1295  -36.1769   25.0734 H   0  0  0  0  0  0
  -21.0022  -28.3454   24.1370 H   0  0  0  0  0  0
  -20.5707  -26.2362   23.3629 H   0  0  0  0  0  0
  -21.6612  -26.7470   22.1163 H   0  0  0  0  0  0
  -19.6886  -25.6340   21.1213 H   0  0  0  0  0  0
  -19.6686  -27.3252   20.6799 H   0  0  0  0  0  0
  -17.4173  -26.6760   21.4062 H   0  0  0  0  0  0
  -18.0319  -26.0049   22.9029 H   0  0  0  0  0  0
  -19.7946  -30.7232   24.2338 H   0  0  0  0  0  0
  -17.5061  -31.6287   24.5226 H   0  0  0  0  0  0
  -15.5400  -30.3052   23.7564 H   0  0  0  0  0  0
  -15.8675  -28.0767   22.7179 H   0  0  0  0  0  0
  -24.5932  -30.6982   25.7860 H   0  0  0  0  0  0
  -24.8862  -32.2848   26.4838 H   0  0  0  0  0  0
  -25.8028  -30.8927   27.0269 H   0  0  0  0  0  0
  -26.2877  -29.6649   24.1424 H   0  0  0  0  0  0
  -27.4146  -29.7275   25.4786 H   0  0  0  0  0  0
  -27.8764  -30.4198   23.9410 H   0  0  0  0  0  0
  -27.2602  -33.3676   26.2004 H   0  0  0  0  0  0
  -28.3921  -32.6892   25.0428 H   0  0  0  0  0  0
  -28.0644  -31.8558   26.5498 H   0  0  0  0  0  0
  -28.2494  -38.0094   24.7485 H   0  0  0  0  0  0
  -28.1039  -36.2615   24.6271 H   0  0  0  0  0  0
  -27.2175  -37.1389   25.8790 H   0  0  0  0  0  0
  -20.9195  -29.8863   21.6907 H   0  0  0  0  0  0
  -26.0110  -38.2700   24.1574 H   0  0  0  0  0  0
  -32.1279  -16.4565   17.6413 H   0  0  0  0  0  0
  -30.7449  -17.0278   16.7100 H   0  0  0  0  0  0
  -30.0987  -18.4422   18.3181 H   0  0  0  0  0  0
  -31.7312  -18.3194   18.9445 H   0  0  0  0  0  0
  -30.8244  -14.6446   17.8407 H   0  0  0  0  0  0
  -29.2730  -15.4946   17.7449 H   0  0  0  0  0  0
  -31.0743  -17.0853   20.7689 H   0  0  0  0  0  0
  -29.3527  -23.8956   17.0365 H   0  0  0  0  0  0
  -28.1720  -22.6025   17.2930 H   0  0  0  0  0  0
  -29.8874  -22.2499   17.1943 H   0  0  0  0  0  0
  -32.1876  -21.5155   21.3440 H   0  0  0  0  0  0
  -30.8283  -22.5250   21.8257 H   0  0  0  0  0  0
  -31.7770  -22.8876   20.3955 H   0  0  0  0  0  0
  -28.8793  -17.3982   21.6284 H   0  0  0  0  0  0
  -28.1331  -17.2316   20.0631 H   0  0  0  0  0  0
  -27.3965  -23.9464   19.7911 H   0  0  0  0  0  0
  -28.7482  -24.2799   20.8185 H   0  0  0  0  0  0
  -29.5663  -20.2855   22.0001 H   0  0  0  0  0  0
  -30.8518  -19.3704   21.2503 H   0  0  0  0  0  0
  -29.6559  -25.7682   18.8197 H   0  0  0  0  0  0
  -28.0247  -25.7135   18.2377 H   0  0  0  0  0  0
  -30.3453  -23.5343   19.2002 H   0  0  0  0  0  0
  -30.8697  -20.8212   19.2546 H   0  0  0  0  0  0
  -28.5116  -21.3320   19.1978 H   0  0  0  0  0  0
  -28.0377  -19.4563   20.7034 H   0  0  0  0  0  0
  -28.9865  -19.2923   19.4039 H   0  0  0  0  0  0
  1 25  1  0  0  0
  1 30  2  0  0  0
  1 83  1  0  0  0
  2  3  1  0  0  0
  2 25  1  0  0  0
  2 86  1  0  0  0
  2 87  1  0  0  0
  3  4  1  0  0  0
  3 88  1  0  0  0
  3 89  1  0  0  0
  4  5  1  0  0  0
  4 90  1  0  0  0
  4 91  1  0  0  0
  5  6  1  0  0  0
  5 26  1  0  0  0
  5 92  1  0  0  0
  6 25  1  0  0  0
  6 93  1  0  0  0
  6 94  1  0  0  0
  7  8  2  0  0  0
  7 26  1  0  0  0
  7 29  1  0  0  0
  8  9  1  0  0  0
  8 22  1  0  0  0
  9 10  1  0  0  0
  9 27  2  0  0  0
 10 11  2  0  0  0
 10 15  1  0  0  0
 11 12  1  0  0  0
 11 95  1  0  0  0
 12 13  2  0  0  0
 12 96  1  0  0  0
 13 14  1  0  0  0
 13 31  1  0  0  0
 14 15  2  0  0  0
 14 97  1  0  0  0
 15 98  1  0  0  0
 16 17  2  0  0  0
 16 21  1  0  0  0
 16 31  1  0  0  0
 17 18  1  0  0  0
 17 99  1  0  0  0
 18 19  2  0  0  0
 18100  1  0  0  0
 19 20  1  0  0  0
 19 24  1  0  0  0
 20 21  2  0  0  0
 20101  1  0  0  0
 21 23  1  0  0  0
 22 28  1  0  0  0
 22 32  2  0  0  0
 26 27  1  0  0  0
 28102  1  0  0  0
 28103  1  0  0  0
 29104  1  0  0  0
 29105  1  0  0  0
 33 34  1  0  0  0
 33 66  1  0  0  0
 33 70  2  0  0  0
 34 36  1  0  0  0
 34 59  1  0  0  0
 34106  1  0  0  0
 35 44  2  0  0  0
 35 45  1  0  0  0
 35 68  1  0  0  0
 36 56  1  0  0  0
 36107  1  0  0  0
 37 39  1  0  0  0
 37 47  1  0  0  0
 37 66  1  0  0  0
 37108  1  0  0  0
 38 43  2  0  0  0
 38 46  1  0  0  0
 38 47  1  0  0  0
 39 64  1  0  0  0
 39 67  2  0  0  0
 40 52  1  0  0  0
 40 53  2  0  0  0
 40 58  1  0  0  0
 41109  1  0  0  0
 41110  1  0  0  0
 41111  1  0  0  0
 41 48  1  0  0  0
 42 43  1  0  0  0
 42 66  1  0  0  0
 42112  1  0  0  0
 42113  1  0  0  0
 43 44  1  0  0  0
 44114  1  0  0  0
 45 46  2  0  0  0
 45115  1  0  0  0
 46116  1  0  0  0
 47117  1  0  0  0
 47118  1  0  0  0
 48 56  1  0  0  0
 48 65  1  0  0  0
 48119  1  0  0  0
 49 50  1  0  0  0
 49 53  1  0  0  0
 49 64  1  0  0  0
 49120  1  0  0  0
 50 51  1  0  0  0
 50121  1  0  0  0
 50122  1  0  0  0
 51 52  1  0  0  0
 51123  1  0  0  0
 51124  1  0  0  0
 52125  1  0  0  0
 52126  1  0  0  0
 53 54  1  0  0  0
 54 55  2  0  0  0
 54127  1  0  0  0
 55 57  1  0  0  0
 55128  1  0  0  0
 56 69  2  0  0  0
 57 58  2  0  0  0
 57129  1  0  0  0
 58130  1  0  0  0
 59 60  1  0  0  0
 59 61  1  0  0  0
 59 62  1  0  0  0
 60131  1  0  0  0
 60132  1  0  0  0
 60133  1  0  0  0
 61134  1  0  0  0
 61135  1  0  0  0
 61136  1  0  0  0
 62137  1  0  0  0
 62138  1  0  0  0
 62139  1  0  0  0
 63 65  1  0  0  0
 63140  1  0  0  0
 63141  1  0  0  0
 63142  1  0  0  0
 64143  1  0  0  0
 65144  1  0  0  0
 68 80  1  0  0  0
 71 72  1  0  0  0
 71 73  1  0  0  0
 71145  1  0  0  0
 71146  1  0  0  0
 72 74  1  0  0  0
 72147  1  0  0  0
 72148  1  0  0  0
 73 83  1  0  0  0
 73149  1  0  0  0
 73150  1  0  0  0
 74 77  1  0  0  0
 74 83  1  0  0  0
 74151  1  0  0  0
 75152  1  0  0  0
 75153  1  0  0  0
 75154  1  0  0  0
 75 81  1  0  0  0
 76155  1  0  0  0
 76156  1  0  0  0
 76157  1  0  0  0
 76 82  1  0  0  0
 77 85  1  0  0  0
 77158  1  0  0  0
 77159  1  0  0  0
 78 80  1  0  0  0
 78 81  1  0  0  0
 78160  1  0  0  0
 78161  1  0  0  0
 79 82  1  0  0  0
 79 85  1  0  0  0
 79162  1  0  0  0
 79163  1  0  0  0
 80164  1  0  0  0
 80165  1  0  0  0
 81 84  1  0  0  0
 81166  1  0  0  0
 82 84  1  0  0  0
 82167  1  0  0  0
 84168  1  0  0  0
 85169  1  0  0  0
 85170  1  0  0  0
M  CHG  1  85   1
M  ISO  4   1 100  68 101  80 101  83 100
M  END
> <chiral flag>
0

> <version>
0

> <s_m_source_file>
/data/baiqing/PycharmProjects/Reinvent-master-3.2/result/LINK_invent/BTK/process_docking_weight1_custom_sum_contain_oxygen_bond_distance_aromatic_linkinvent_7_9_3/rearranged_h_0193.sdf

> <i_m_source_file_index>
70

> <r_mmod_Potential_Energy-OPLS-2005>
166.360763549805

> <r_mmod_Stretch_Energy-OPLS-2005>
42.0509796142578

> <r_mmod_Bend_Energy-OPLS-2005>
148.144332885742

> <r_mmod_Torsional_Energy-OPLS-2005>
411.060089111328

> <r_mmod_Improper_Torsional_Energy-OPLS-2005>
26.1645259857178

> <r_mmod_Van_der_Waal_Energy-OPLS-2005>
146.389083862305

> <r_mmod_Electrostatic_Energy-OPLS-2005>
-209.926620483398

> <r_mmod_Solvation_Energy-OPLS-2005>
-455.281402587891

> <b_mmod_Minimization_Converged-OPLS-2005>
0

> <r_mmod_RMS_Derivative-OPLS-2005>
8.75380516052246

$$$$
70
                    3D
 Structure written by MMmdl.
155163  0  0  1  0            999 V2000
  -30.6173  -14.7876   20.4314 C   0  0  0  0  0  0
  -30.4249  -12.4805   19.4753 C   0  0  0  0  0  0
  -29.5080  -12.4991   18.2342 C   0  0  0  0  0  0
  -28.0323  -12.3358   18.6467 C   0  0  0  0  0  0
  -27.6356  -13.2403   19.8441 C   0  0  2  0  0  0
  -28.6822  -13.2114   20.9764 C   0  0  0  0  0  0
  -25.2484  -13.8201   20.5704 C   0  0  0  0  0  0
  -24.1786  -13.0434   20.9198 C   0  0  0  0  0  0
  -24.6395  -11.6914   20.8737 C   0  0  0  0  0  0
  -23.9077  -10.4291   21.0405 C   0  0  0  0  0  0
  -24.3625   -9.4216   21.9188 C   0  0  0  0  0  0
  -23.6302   -8.2245   22.0749 C   0  0  0  0  0  0
  -22.4284   -8.0277   21.3535 C   0  0  0  0  0  0
  -21.9921   -9.0250   20.4632 C   0  0  0  0  0  0
  -22.7246  -10.2138   20.3052 C   0  0  0  0  0  0
  -21.6855   -6.0736   22.5282 C   0  0  0  0  0  0
  -21.4008   -6.5643   23.8215 C   0  0  0  0  0  0
  -21.3667   -5.6795   24.9175 C   0  0  0  0  0  0
  -21.6055   -4.3057   24.7229 C   0  0  0  0  0  0
  -21.8818   -3.8147   23.4354 C   0  0  0  0  0  0
  -21.9188   -4.6961   22.3408 C   0  0  0  0  0  0
  -22.7810  -13.5212   21.1861 C   0  0  0  0  0  0
  -22.1650   -4.2154   21.0981 F   0  0  0  0  0  0
  -21.5646   -3.4541   25.7744 F   0  0  0  0  0  0
  -29.9731  -13.5673   20.3796 N   0  0  0  0  0  0
  -26.2917  -12.9424   20.3284 N   0  0  0  0  0  0
  -25.9336  -11.6558   20.5760 N   0  0  0  0  0  0
  -22.0458  -12.8196   22.0419 N   0  0  0  0  0  0
  -25.4154  -15.1924   20.4124 N   0  0  0  0  0  0
  -31.8185  -14.8310   20.1564 O   0  0  0  0  0  0
  -21.6645   -6.8878   21.4239 O   0  0  0  0  0  0
  -22.3503  -14.5522   20.6708 O   0  0  0  0  0  0
  -24.6360  -31.8528   23.1937 C   0  0  0  0  0  0
  -25.9171  -32.4736   23.8311 C   0  0  1  0  0  0
  -27.2211  -27.2267   20.1206 C   0  0  0  0  0  0
  -25.5951  -33.8547   24.2232 N   0  0  0  0  0  0
  -23.4339  -30.4733   21.5394 C   0  0  2  0  0  0
  -24.8784  -28.9136   20.1087 C   0  0  0  0  0  0
  -22.7515  -29.4600   22.4908 C   0  0  0  0  0  0
  -18.0289  -28.1398   22.8485 C   0  0  0  0  0  0
  -24.1494  -36.7273   23.2645 C   0  0  0  0  0  0
  -25.9815  -30.7535   21.3767 C   0  0  0  0  0  0
  -26.0510  -29.3716   20.7195 C   0  0  0  0  0  0
  -27.2191  -28.5398   20.7164 C   0  0  0  0  0  0
  -26.0179  -26.8421   19.4856 C   0  0  0  0  0  0
  -24.8685  -27.6583   19.4837 C   0  0  0  0  0  0
  -23.6515  -29.8040   20.1572 C   0  0  0  0  0  0
  -25.4119  -36.3055   24.0324 C   0  0  1  0  0  0
  -20.5890  -28.3728   23.1257 C   0  0  2  0  0  0
  -20.6776  -26.9446   22.5410 C   0  0  0  0  0  0
  -19.5754  -26.6396   21.5216 C   0  0  0  0  0  0
  -18.1925  -26.7942   22.1624 C   0  0  0  0  0  0
  -19.1541  -28.8878   23.2872 C   0  0  0  0  0  0
  -18.9465  -30.1476   23.8902 C   0  0  0  0  0  0
  -17.6463  -30.6608   24.0563 C   0  0  0  0  0  0
  -25.9075  -34.9435   23.5081 C   0  0  0  0  0  0
  -16.5357  -29.9103   23.6338 C   0  0  0  0  0  0
  -16.7270  -28.6513   23.0367 C   0  0  0  0  0  0
  -26.4509  -31.6572   25.0726 C   0  0  0  0  0  0
  -25.3704  -31.3712   26.1419 C   0  0  0  0  0  0
  -27.0374  -30.2984   24.6255 C   0  0  0  0  0  0
  -27.6067  -32.4302   25.7504 C   0  0  0  0  0  0
  -27.5571  -37.1792   24.8469 C   0  0  0  0  0  0
  -21.4216  -29.3067   22.3641 N   0  0  0  0  0  0
  -26.4280  -37.3768   23.9415 N   0  0  0  0  0  0
  -24.7038  -31.0458   22.0926 N   0  0  0  0  0  0
  -23.4189  -28.8149   23.3044 O   0  0  0  0  0  0
  -28.3358  -26.3462   20.2017 O   0  0  0  0  0  0
  -26.5658  -34.8906   22.4656 O   0  0  0  0  0  0
  -23.5502  -32.1371   23.7204 O   0  0  0  0  0  0
  -29.4472  -19.5744   19.9501 C   0  0  0  0  0  0
  -30.5453  -17.2838   21.0777 C   0  0  0  0  0  0
  -29.3018  -18.0979   20.5970 C   0  0  2  0  0  0
  -29.0990  -16.8137   19.7002 C   0  0  1  0  0  0
  -29.6434  -16.7386   18.2648 C   0  0  0  0  0  0
  -28.9596  -20.9004   20.7264 C   0  0  0  0  0  0
  -28.5955  -23.5862   20.5820 C   0  0  0  0  0  0
  -28.3902  -24.9242   19.6593 C   0  0  0  0  0  0
  -29.9101  -15.9820   20.6627 N   0  0  0  0  0  0
  -28.9108  -22.2174   19.9059 N   0  3  0  0  0  0
  -29.9232  -19.7672   18.8265 O   0  0  0  0  0  0
  -31.4657  -12.5979   19.1693 H   0  0  0  0  0  0
  -30.3733  -11.5151   19.9808 H   0  0  0  0  0  0
  -29.7905  -11.7049   17.5427 H   0  0  0  0  0  0
  -29.6414  -13.4340   17.6889 H   0  0  0  0  0  0
  -27.8799  -11.2877   18.9055 H   0  0  0  0  0  0
  -27.3802  -12.5298   17.7946 H   0  0  0  0  0  0
  -27.6150  -14.2546   19.4497 H   0  0  0  0  0  0
  -28.7320  -12.2277   21.4454 H   0  0  0  0  0  0
  -28.4171  -13.9190   21.7639 H   0  0  0  0  0  0
  -25.2764   -9.5699   22.4770 H   0  0  0  0  0  0
  -24.0015   -7.4639   22.7474 H   0  0  0  0  0  0
  -21.0853   -8.8753   19.8942 H   0  0  0  0  0  0
  -22.3685  -10.9668   19.6161 H   0  0  0  0  0  0
  -21.1982   -7.6145   23.9719 H   0  0  0  0  0  0
  -21.1497   -6.0526   25.9085 H   0  0  0  0  0  0
  -22.0587   -2.7607   23.2854 H   0  0  0  0  0  0
  -22.4050  -11.9849   22.4812 H   0  0  0  0  0  0
  -21.1072  -13.1203   22.2611 H   0  0  0  0  0  0
  -24.6508  -15.8476   20.5324 H   0  0  0  0  0  0
  -26.2767  -15.6322   20.1167 H   0  0  0  0  0  0
  -26.7255  -32.5357   23.1068 H   0  0  0  0  0  0
  -25.0041  -33.9685   25.0335 H   0  0  0  0  0  0
  -22.7345  -31.2980   21.3887 H   0  0  0  0  0  0
  -23.3754  -35.9606   23.3299 H   0  0  0  0  0  0
  -24.3592  -36.8916   22.2065 H   0  0  0  0  0  0
  -23.7245  -37.6465   23.6686 H   0  0  0  0  0  0
  -26.1212  -31.5098   20.6030 H   0  0  0  0  0  0
  -26.8584  -30.8068   22.0102 H   0  0  0  0  0  0
  -28.1173  -28.8866   21.2093 H   0  0  0  0  0  0
  -25.9057  -25.8871   19.0018 H   0  0  0  0  0  0
  -23.9674  -27.3014   19.0044 H   0  0  0  0  0  0
  -23.7757  -30.5759   19.3974 H   0  0  0  0  0  0
  -22.7691  -29.2376   19.8555 H   0  0  0  0  0  0
  -25.1305  -36.1891   25.0816 H   0  0  0  0  0  0
  -20.9979  -28.3315   24.1377 H   0  0  0  0  0  0
  -20.5668  -26.2356   23.3630 H   0  0  0  0  0  0
  -21.6646  -26.7470   22.1208 H   0  0  0  0  0  0
  -19.6927  -25.6301   21.1263 H   0  0  0  0  0  0
  -19.6675  -27.3200   20.6736 H   0  0  0  0  0  0
  -17.4197  -26.6691   21.4020 H   0  0  0  0  0  0
  -18.0333  -26.0083   22.9018 H   0  0  0  0  0  0
  -19.7943  -30.7289   24.2270 H   0  0  0  0  0  0
  -17.5023  -31.6281   24.5171 H   0  0  0  0  0  0
  -15.5363  -30.3011   23.7658 H   0  0  0  0  0  0
  -15.8665  -28.0832   22.7096 H   0  0  0  0  0  0
  -24.5938  -30.7008   25.7715 H   0  0  0  0  0  0
  -24.8815  -32.2866   26.4766 H   0  0  0  0  0  0
  -25.7988  -30.8941   27.0247 H   0  0  0  0  0  0
  -26.2986  -29.6708   24.1262 H   0  0  0  0  0  0
  -27.4024  -29.7267   25.4802 H   0  0  0  0  0  0
  -27.8870  -30.4244   23.9536 H   0  0  0  0  0  0
  -27.2717  -33.3635   26.2033 H   0  0  0  0  0  0
  -28.3903  -32.6804   25.0343 H   0  0  0  0  0  0
  -28.0716  -31.8455   26.5454 H   0  0  0  0  0  0
  -28.2577  -38.0100   24.7519 H   0  0  0  0  0  0
  -28.1068  -36.2626   24.6275 H   0  0  0  0  0  0
  -27.2297  -37.1426   25.8874 H   0  0  0  0  0  0
  -20.9420  -29.8793   21.6838 H   0  0  0  0  0  0
  -26.0145  -38.2835   24.1401 H   0  0  0  0  0  0
  -30.7214  -17.3764   22.1499 H   0  0  0  0  0  0
  -31.4583  -17.5255   20.5283 H   0  0  0  0  0  0
  -28.5498  -18.1024   21.3872 H   0  0  0  0  0  0
  -28.0435  -16.5436   19.7219 H   0  0  0  0  0  0
  -30.6903  -17.0375   18.2026 H   0  0  0  0  0  0
  -29.0809  -17.3913   17.5943 H   0  0  0  0  0  0
  -29.5691  -15.7331   17.8535 H   0  0  0  0  0  0
  -29.6333  -21.0453   21.5706 H   0  0  0  0  0  0
  -27.9718  -20.7067   21.1433 H   0  0  0  0  0  0
  -27.6993  -23.4602   21.1883 H   0  0  0  0  0  0
  -29.4014  -23.7841   21.2896 H   0  0  0  0  0  0
  -27.5719  -24.7264   18.9752 H   0  0  0  0  0  0
  -29.2552  -24.9505   18.9961 H   0  0  0  0  0  0
  -28.2383  -22.0611   19.1714 H   0  0  0  0  0  0
  -29.8045  -22.2884   19.4448 H   0  0  0  0  0  0
  1 25  1  0  0  0
  1 30  2  0  0  0
  1 79  1  0  0  0
  2  3  1  0  0  0
  2 25  1  0  0  0
  2 82  1  0  0  0
  2 83  1  0  0  0
  3  4  1  0  0  0
  3 84  1  0  0  0
  3 85  1  0  0  0
  4  5  1  0  0  0
  4 86  1  0  0  0
  4 87  1  0  0  0
  5  6  1  0  0  0
  5 26  1  0  0  0
  5 88  1  0  0  0
  6 25  1  0  0  0
  6 89  1  0  0  0
  6 90  1  0  0  0
  7  8  2  0  0  0
  7 26  1  0  0  0
  7 29  1  0  0  0
  8  9  1  0  0  0
  8 22  1  0  0  0
  9 10  1  0  0  0
  9 27  2  0  0  0
 10 11  2  0  0  0
 10 15  1  0  0  0
 11 12  1  0  0  0
 11 91  1  0  0  0
 12 13  2  0  0  0
 12 92  1  0  0  0
 13 14  1  0  0  0
 13 31  1  0  0  0
 14 15  2  0  0  0
 14 93  1  0  0  0
 15 94  1  0  0  0
 16 17  2  0  0  0
 16 21  1  0  0  0
 16 31  1  0  0  0
 17 18  1  0  0  0
 17 95  1  0  0  0
 18 19  2  0  0  0
 18 96  1  0  0  0
 19 20  1  0  0  0
 19 24  1  0  0  0
 20 21  2  0  0  0
 20 97  1  0  0  0
 21 23  1  0  0  0
 22 28  1  0  0  0
 22 32  2  0  0  0
 26 27  1  0  0  0
 28 98  1  0  0  0
 28 99  1  0  0  0
 29100  1  0  0  0
 29101  1  0  0  0
 33 34  1  0  0  0
 33 66  1  0  0  0
 33 70  2  0  0  0
 34 36  1  0  0  0
 34 59  1  0  0  0
 34102  1  0  0  0
 35 44  2  0  0  0
 35 45  1  0  0  0
 35 68  1  0  0  0
 36 56  1  0  0  0
 36103  1  0  0  0
 37 39  1  0  0  0
 37 47  1  0  0  0
 37 66  1  0  0  0
 37104  1  0  0  0
 38 43  2  0  0  0
 38 46  1  0  0  0
 38 47  1  0  0  0
 39 64  1  0  0  0
 39 67  2  0  0  0
 40 52  1  0  0  0
 40 53  2  0  0  0
 40 58  1  0  0  0
 41105  1  0  0  0
 41106  1  0  0  0
 41107  1  0  0  0
 41 48  1  0  0  0
 42 43  1  0  0  0
 42 66  1  0  0  0
 42108  1  0  0  0
 42109  1  0  0  0
 43 44  1  0  0  0
 44110  1  0  0  0
 45 46  2  0  0  0
 45111  1  0  0  0
 46112  1  0  0  0
 47113  1  0  0  0
 47114  1  0  0  0
 48 56  1  0  0  0
 48 65  1  0  0  0
 48115  1  0  0  0
 49 50  1  0  0  0
 49 53  1  0  0  0
 49 64  1  0  0  0
 49116  1  0  0  0
 50 51  1  0  0  0
 50117  1  0  0  0
 50118  1  0  0  0
 51 52  1  0  0  0
 51119  1  0  0  0
 51120  1  0  0  0
 52121  1  0  0  0
 52122  1  0  0  0
 53 54  1  0  0  0
 54 55  2  0  0  0
 54123  1  0  0  0
 55 57  1  0  0  0
 55124  1  0  0  0
 56 69  2  0  0  0
 57 58  2  0  0  0
 57125  1  0  0  0
 58126  1  0  0  0
 59 60  1  0  0  0
 59 61  1  0  0  0
 59 62  1  0  0  0
 60127  1  0  0  0
 60128  1  0  0  0
 60129  1  0  0  0
 61130  1  0  0  0
 61131  1  0  0  0
 61132  1  0  0  0
 62133  1  0  0  0
 62134  1  0  0  0
 62135  1  0  0  0
 63 65  1  0  0  0
 63136  1  0  0  0
 63137  1  0  0  0
 63138  1  0  0  0
 64139  1  0  0  0
 65140  1  0  0  0
 68 78  1  0  0  0
 71 76  1  0  0  0
 71 81  2  0  0  0
 71 73  1  0  0  0
 72 73  1  0  0  0
 72 79  1  0  0  0
 72141  1  0  0  0
 72142  1  0  0  0
 73 74  1  0  0  0
 73143  1  0  0  0
 74 75  1  0  0  0
 74 79  1  0  0  0
 74144  1  0  0  0
 75145  1  0  0  0
 75146  1  0  0  0
 75147  1  0  0  0
 76 80  1  0  0  0
 76148  1  0  0  0
 76149  1  0  0  0
 77 78  1  0  0  0
 77 80  1  0  0  0
 77150  1  0  0  0
 77151  1  0  0  0
 78152  1  0  0  0
 78153  1  0  0  0
 80154  1  0  0  0
 80155  1  0  0  0
M  CHG  1  80   1
M  ISO  4   1 100  68 101  78 101  79 100
M  END
> <chiral flag>
0

> <version>
0

> <s_m_source_file>
/data/baiqing/PycharmProjects/Reinvent-master-3.2/result/LINK_invent/BTK/process_docking_weight1_custom_sum_contain_oxygen_bond_distance_aromatic_linkinvent_7_9_3/rearranged_h_0193.sdf

> <i_m_source_file_index>
71

> <r_mmod_Potential_Energy-OPLS-2005>
131.777877807617

> <r_mmod_Stretch_Energy-OPLS-2005>
152.625015258789

> <r_mmod_Bend_Energy-OPLS-2005>
203.201049804688

> <r_mmod_Torsional_Energy-OPLS-2005>
257.350738525391

> <r_mmod_Improper_Torsional_Energy-OPLS-2005>
9.26586532592773

> <r_mmod_Van_der_Waal_Energy-OPLS-2005>
114.991683959961

> <r_mmod_Electrostatic_Energy-OPLS-2005>
-236.099380493164

> <r_mmod_Solvation_Energy-OPLS-2005>
-474.034881591797

> <b_mmod_Minimization_Converged-OPLS-2005>
0

> <r_mmod_RMS_Derivative-OPLS-2005>
2.13816857337952

$$$$
71
                    3D
 Structure written by MMmdl.
153162  0  0  1  0            999 V2000
  -30.5224  -15.1218   20.3985 C   0  0  0  0  0  0
  -30.4356  -12.7162   19.5005 C   0  0  0  0  0  0
  -29.5202  -12.5527   18.2644 C   0  0  0  0  0  0
  -28.0643  -12.3008   18.6952 C   0  0  0  0  0  0
  -27.6174  -13.2568   19.8300 C   0  0  2  0  0  0
  -28.6652  -13.3633   20.9592 C   0  0  0  0  0  0
  -25.2397  -13.8197   20.5742 C   0  0  0  0  0  0
  -24.1736  -13.0408   20.9250 C   0  0  0  0  0  0
  -24.6382  -11.6906   20.8772 C   0  0  0  0  0  0
  -23.9077  -10.4276   21.0416 C   0  0  0  0  0  0
  -24.3625   -9.4190   21.9192 C   0  0  0  0  0  0
  -23.6295   -8.2230   22.0757 C   0  0  0  0  0  0
  -22.4276   -8.0273   21.3545 C   0  0  0  0  0  0
  -21.9915   -9.0248   20.4646 C   0  0  0  0  0  0
  -22.7251  -10.2122   20.3059 C   0  0  0  0  0  0
  -21.6850   -6.0732   22.5279 C   0  0  0  0  0  0
  -21.4013   -6.5637   23.8213 C   0  0  0  0  0  0
  -21.3660   -5.6791   24.9175 C   0  0  0  0  0  0
  -21.6043   -4.3053   24.7227 C   0  0  0  0  0  0
  -21.8819   -3.8145   23.4348 C   0  0  0  0  0  0
  -21.9192   -4.6961   22.3403 C   0  0  0  0  0  0
  -22.7757  -13.5178   21.1894 C   0  0  0  0  0  0
  -22.1661   -4.2147   21.0981 F   0  0  0  0  0  0
  -21.5629   -3.4537   25.7740 F   0  0  0  0  0  0
  -29.9044  -13.8510   20.3315 N   0  0  0  0  0  0
  -26.2838  -12.9457   20.3268 N   0  0  0  0  0  0
  -25.9321  -11.6579   20.5763 N   0  0  0  0  0  0
  -22.0413  -12.8170   22.0453 N   0  0  0  0  0  0
  -25.3978  -15.1923   20.4159 N   0  0  0  0  0  0
  -31.7421  -15.0923   20.1833 O   0  0  0  0  0  0
  -21.6636   -6.8874   21.4241 O   0  0  0  0  0  0
  -22.3441  -14.5482   20.6735 O   0  0  0  0  0  0
  -24.6547  -31.8342   23.1803 C   0  0  0  0  0  0
  -25.9269  -32.4644   23.8230 C   0  0  1  0  0  0
  -27.2153  -27.0254   20.1612 C   0  0  0  0  0  0
  -25.5973  -33.8454   24.2136 N   0  0  0  0  0  0
  -23.4642  -30.4516   21.5282 C   0  0  2  0  0  0
  -24.9161  -28.8631   20.1098 C   0  0  0  0  0  0
  -22.7627  -29.4500   22.4816 C   0  0  0  0  0  0
  -18.0317  -28.1404   22.8472 C   0  0  0  0  0  0
  -24.1493  -36.7231   23.2644 C   0  0  0  0  0  0
  -26.0293  -30.6715   21.3981 C   0  0  0  0  0  0
  -26.0989  -29.2729   20.7385 C   0  0  0  0  0  0
  -27.2465  -28.3726   20.7459 C   0  0  0  0  0  0
  -26.0047  -26.7545   19.4809 C   0  0  0  0  0  0
  -24.8890  -27.6207   19.4632 C   0  0  0  0  0  0
  -23.6981  -29.7783   20.1501 C   0  0  0  0  0  0
  -25.4129  -36.3000   24.0307 C   0  0  1  0  0  0
  -20.5938  -28.3742   23.1206 C   0  0  2  0  0  0
  -20.6797  -26.9432   22.5400 C   0  0  0  0  0  0
  -19.5768  -26.6379   21.5213 C   0  0  0  0  0  0
  -18.1951  -26.7938   22.1624 C   0  0  0  0  0  0
  -19.1576  -28.8892   23.2828 C   0  0  0  0  0  0
  -18.9488  -30.1484   23.8859 C   0  0  0  0  0  0
  -17.6482  -30.6595   24.0557 C   0  0  0  0  0  0
  -25.9088  -34.9379   23.5035 C   0  0  0  0  0  0
  -16.5373  -29.9084   23.6340 C   0  0  0  0  0  0
  -16.7300  -28.6504   23.0360 C   0  0  0  0  0  0
  -26.4547  -31.6552   25.0718 C   0  0  0  0  0  0
  -25.3695  -31.3779   26.1388 C   0  0  0  0  0  0
  -27.0431  -30.2930   24.6391 C   0  0  0  0  0  0
  -27.6053  -32.4344   25.7516 C   0  0  0  0  0  0
  -27.5573  -37.1774   24.8465 C   0  0  0  0  0  0
  -21.4306  -29.3051   22.3566 N   0  0  0  0  0  0
  -26.4283  -37.3725   23.9407 N   0  0  0  0  0  0
  -24.7367  -31.0095   22.0897 N   0  0  0  0  0  0
  -23.4218  -28.8050   23.3010 O   0  0  0  0  0  0
  -28.2129  -25.9455   20.2461 O   0  0  0  0  0  0
  -26.5685  -34.8896   22.4622 O   0  0  0  0  0  0
  -23.5637  -32.1270   23.6951 O   0  0  0  0  0  0
  -28.6977  -23.0016   20.2676 C   0  0  0  0  0  0
  -30.2393  -21.5558   20.8058 C   0  0  0  0  0  0
  -28.1558  -18.2918   20.9038 C   0  0  0  0  0  0
  -28.4138  -16.7347   20.6910 C   0  0  0  0  0  0
  -30.3692  -17.9121   20.3035 C   0  0  0  0  0  0
  -29.2004  -19.1006   20.1128 C   0  0  2  0  0  0
  -31.5415  -21.0063   21.2818 C   0  0  0  0  0  0
  -27.8073  -24.4159   19.9876 C   0  0  0  0  0  0
  -29.9670  -22.8998   20.7955 N   0  0  0  0  0  0
  -28.2581  -21.6979   19.9934 N   0  0  0  0  0  0
  -29.2685  -20.7263   20.3472 N   0  0  0  0  0  0
  -29.8442  -16.4260   20.4559 N   0  0  0  0  0  0
  -31.4589  -12.8948   19.1674 H   0  0  0  0  0  0
  -30.4766  -11.7919   20.0794 H   0  0  0  0  0  0
  -29.8728  -11.7350   17.6342 H   0  0  0  0  0  0
  -29.5693  -13.4552   17.6529 H   0  0  0  0  0  0
  -27.9980  -11.2681   19.0399 H   0  0  0  0  0  0
  -27.3927  -12.3808   17.8394 H   0  0  0  0  0  0
  -27.5488  -14.2340   19.3555 H   0  0  0  0  0  0
  -28.8130  -12.3993   21.4483 H   0  0  0  0  0  0
  -28.3350  -14.0428   21.7425 H   0  0  0  0  0  0
  -25.2767   -9.5667   22.4772 H   0  0  0  0  0  0
  -23.9999   -7.4619   22.7476 H   0  0  0  0  0  0
  -21.0846   -8.8772   19.8951 H   0  0  0  0  0  0
  -22.3713  -10.9665   19.6171 H   0  0  0  0  0  0
  -21.2007   -7.6145   23.9714 H   0  0  0  0  0  0
  -21.1482   -6.0522   25.9077 H   0  0  0  0  0  0
  -22.0598   -2.7608   23.2848 H   0  0  0  0  0  0
  -22.4040  -11.9841   22.4851 H   0  0  0  0  0  0
  -21.1027  -13.1186   22.2659 H   0  0  0  0  0  0
  -24.6252  -15.8383   20.5347 H   0  0  0  0  0  0
  -26.2438  -15.6413   20.0948 H   0  0  0  0  0  0
  -26.7338  -32.5213   23.0952 H   0  0  0  0  0  0
  -25.0080  -33.9551   25.0258 H   0  0  0  0  0  0
  -22.7725  -31.2811   21.3671 H   0  0  0  0  0  0
  -23.3763  -35.9553   23.3284 H   0  0  0  0  0  0
  -24.3573  -36.8893   22.2062 H   0  0  0  0  0  0
  -23.7242  -37.6415   23.6705 H   0  0  0  0  0  0
  -26.2003  -31.4205   20.6236 H   0  0  0  0  0  0
  -26.8933  -30.7231   22.0489 H   0  0  0  0  0  0
  -28.1404  -28.6804   21.2700 H   0  0  0  0  0  0
  -25.8694  -25.8125   18.9732 H   0  0  0  0  0  0
  -23.9900  -27.3024   18.9533 H   0  0  0  0  0  0
  -23.8454  -30.5519   19.3956 H   0  0  0  0  0  0
  -22.8099  -29.2286   19.8336 H   0  0  0  0  0  0
  -25.1323  -36.1811   25.0798 H   0  0  0  0  0  0
  -21.0028  -28.3342   24.1328 H   0  0  0  0  0  0
  -20.5686  -26.2359   23.3632 H   0  0  0  0  0  0
  -21.6661  -26.7422   22.1201 H   0  0  0  0  0  0
  -19.6927  -25.6280   21.1268 H   0  0  0  0  0  0
  -19.6703  -27.3168   20.6725 H   0  0  0  0  0  0
  -17.4218  -26.6680   21.4031 H   0  0  0  0  0  0
  -18.0351  -26.0091   22.9032 H   0  0  0  0  0  0
  -19.7963  -30.7312   24.2212 H   0  0  0  0  0  0
  -17.5033  -31.6271   24.5166 H   0  0  0  0  0  0
  -15.5372  -30.2973   23.7685 H   0  0  0  0  0  0
  -15.8701  -28.0810   22.7096 H   0  0  0  0  0  0
  -24.5885  -30.7119   25.7701 H   0  0  0  0  0  0
  -24.8874  -32.2973   26.4718 H   0  0  0  0  0  0
  -25.7943  -30.9009   27.0229 H   0  0  0  0  0  0
  -26.3081  -29.6625   24.1374 H   0  0  0  0  0  0
  -27.3970  -29.7268   25.5017 H   0  0  0  0  0  0
  -27.9021  -30.4132   23.9786 H   0  0  0  0  0  0
  -27.2627  -33.3676   26.2002 H   0  0  0  0  0  0
  -28.3913  -32.6857   25.0381 H   0  0  0  0  0  0
  -28.0667  -31.8533   26.5510 H   0  0  0  0  0  0
  -28.2576  -38.0083   24.7512 H   0  0  0  0  0  0
  -28.1083  -36.2610   24.6292 H   0  0  0  0  0  0
  -27.2289  -37.1418   25.8868 H   0  0  0  0  0  0
  -20.9539  -29.8758   21.6723 H   0  0  0  0  0  0
  -26.0140  -38.2788   24.1412 H   0  0  0  0  0  0
  -28.2620  -18.5294   21.9632 H   0  0  0  0  0  0
  -27.1393  -18.5711   20.6239 H   0  0  0  0  0  0
  -27.8705  -16.4125   19.8045 H   0  0  0  0  0  0
  -28.0227  -16.1812   21.5428 H   0  0  0  0  0  0
  -30.9486  -18.1251   21.2020 H   0  0  0  0  0  0
  -31.0768  -17.9550   19.4750 H   0  0  0  0  0  0
  -28.9054  -19.0143   19.0663 H   0  0  0  0  0  0
  -32.2186  -21.8119   21.5656 H   0  0  0  0  0  0
  -32.0144  -20.4218   20.4929 H   0  0  0  0  0  0
  -31.3831  -20.3667   22.1498 H   0  0  0  0  0  0
  -26.8687  -24.2702   20.5228 H   0  0  0  0  0  0
  -27.5401  -24.3664   18.9322 H   0  0  0  0  0  0
  1 25  1  0  0  0
  1 30  2  0  0  0
  1 82  1  0  0  0
  2  3  1  0  0  0
  2 25  1  0  0  0
  2 83  1  0  0  0
  2 84  1  0  0  0
  3  4  1  0  0  0
  3 85  1  0  0  0
  3 86  1  0  0  0
  4  5  1  0  0  0
  4 87  1  0  0  0
  4 88  1  0  0  0
  5  6  1  0  0  0
  5 26  1  0  0  0
  5 89  1  0  0  0
  6 25  1  0  0  0
  6 90  1  0  0  0
  6 91  1  0  0  0
  7  8  2  0  0  0
  7 26  1  0  0  0
  7 29  1  0  0  0
  8  9  1  0  0  0
  8 22  1  0  0  0
  9 10  1  0  0  0
  9 27  2  0  0  0
 10 11  2  0  0  0
 10 15  1  0  0  0
 11 12  1  0  0  0
 11 92  1  0  0  0
 12 13  2  0  0  0
 12 93  1  0  0  0
 13 14  1  0  0  0
 13 31  1  0  0  0
 14 15  2  0  0  0
 14 94  1  0  0  0
 15 95  1  0  0  0
 16 17  2  0  0  0
 16 21  1  0  0  0
 16 31  1  0  0  0
 17 18  1  0  0  0
 17 96  1  0  0  0
 18 19  2  0  0  0
 18 97  1  0  0  0
 19 20  1  0  0  0
 19 24  1  0  0  0
 20 21  2  0  0  0
 20 98  1  0  0  0
 21 23  1  0  0  0
 22 28  1  0  0  0
 22 32  2  0  0  0
 26 27  1  0  0  0
 28 99  1  0  0  0
 28100  1  0  0  0
 29101  1  0  0  0
 29102  1  0  0  0
 33 34  1  0  0  0
 33 66  1  0  0  0
 33 70  2  0  0  0
 34 36  1  0  0  0
 34 59  1  0  0  0
 34103  1  0  0  0
 35 44  2  0  0  0
 35 45  1  0  0  0
 35 68  1  0  0  0
 36 56  1  0  0  0
 36104  1  0  0  0
 37 39  1  0  0  0
 37 47  1  0  0  0
 37 66  1  0  0  0
 37105  1  0  0  0
 38 43  2  0  0  0
 38 46  1  0  0  0
 38 47  1  0  0  0
 39 64  1  0  0  0
 39 67  2  0  0  0
 40 52  1  0  0  0
 40 53  2  0  0  0
 40 58  1  0  0  0
 41106  1  0  0  0
 41107  1  0  0  0
 41108  1  0  0  0
 41 48  1  0  0  0
 42 43  1  0  0  0
 42 66  1  0  0  0
 42109  1  0  0  0
 42110  1  0  0  0
 43 44  1  0  0  0
 44111  1  0  0  0
 45 46  2  0  0  0
 45112  1  0  0  0
 46113  1  0  0  0
 47114  1  0  0  0
 47115  1  0  0  0
 48 56  1  0  0  0
 48 65  1  0  0  0
 48116  1  0  0  0
 49 50  1  0  0  0
 49 53  1  0  0  0
 49 64  1  0  0  0
 49117  1  0  0  0
 50 51  1  0  0  0
 50118  1  0  0  0
 50119  1  0  0  0
 51 52  1  0  0  0
 51120  1  0  0  0
 51121  1  0  0  0
 52122  1  0  0  0
 52123  1  0  0  0
 53 54  1  0  0  0
 54 55  2  0  0  0
 54124  1  0  0  0
 55 57  1  0  0  0
 55125  1  0  0  0
 56 69  2  0  0  0
 57 58  2  0  0  0
 57126  1  0  0  0
 58127  1  0  0  0
 59 60  1  0  0  0
 59 61  1  0  0  0
 59 62  1  0  0  0
 60128  1  0  0  0
 60129  1  0  0  0
 60130  1  0  0  0
 61131  1  0  0  0
 61132  1  0  0  0
 61133  1  0  0  0
 62134  1  0  0  0
 62135  1  0  0  0
 62136  1  0  0  0
 63 65  1  0  0  0
 63137  1  0  0  0
 63138  1  0  0  0
 63139  1  0  0  0
 64140  1  0  0  0
 65141  1  0  0  0
 68 78  1  0  0  0
 71 78  1  0  0  0
 71 79  1  0  0  0
 71 80  2  0  0  0
 72 77  1  0  0  0
 72 79  2  0  0  0
 72 81  1  0  0  0
 73 74  1  0  0  0
 73 76  1  0  0  0
 73142  1  0  0  0
 73143  1  0  0  0
 74 82  1  0  0  0
 74144  1  0  0  0
 74145  1  0  0  0
 75 76  1  0  0  0
 75 82  1  0  0  0
 75146  1  0  0  0
 75147  1  0  0  0
 76 81  1  0  0  0
 76148  1  0  0  0
 77149  1  0  0  0
 77150  1  0  0  0
 77151  1  0  0  0
 78152  1  0  0  0
 78153  1  0  0  0
 80 81  1  0  0  0
M  ISO  4   1 100  68 101  78 101  82 100
M  END
> <chiral flag>
0

> <version>
0

> <s_m_source_file>
/data/baiqing/PycharmProjects/Reinvent-master-3.2/result/LINK_invent/BTK/process_docking_weight1_custom_sum_contain_oxygen_bond_distance_aromatic_linkinvent_7_9_3/rearranged_h_0193.sdf

> <i_m_source_file_index>
72

> <r_mmod_Potential_Energy-OPLS-2005>
1017.33227539062

> <r_mmod_Stretch_Energy-OPLS-2005>
375.249206542969

> <r_mmod_Bend_Energy-OPLS-2005>
391.464263916016

> <r_mmod_Torsional_Energy-OPLS-2005>
319.750854492188

> <r_mmod_Improper_Torsional_Energy-OPLS-2005>
5.31338119506836

> <r_mmod_Van_der_Waal_Energy-OPLS-2005>
104.618850708008

> <r_mmod_Electrostatic_Energy-OPLS-2005>
-264.825103759766

> <r_mmod_Solvation_Energy-OPLS-2005>
-235.503936767578

> <b_mmod_Minimization_Converged-OPLS-2005>
0

> <r_mmod_RMS_Derivative-OPLS-2005>
0.287661224603653

$$$$
72
                    3D
 Structure written by MMmdl.
174183  0  0  1  0            999 V2000
  -30.8571  -14.2088   20.7790 C   0  0  0  0  0  0
  -30.4032  -12.2698   19.3438 C   0  0  0  0  0  0
  -29.4607  -12.5454   18.1647 C   0  0  0  0  0  0
  -27.9945  -12.3869   18.5991 C   0  0  0  0  0  0
  -27.6677  -13.2016   19.8756 C   0  0  2  0  0  0
  -28.7081  -12.9374   20.9865 C   0  0  0  0  0  0
  -25.2612  -13.8164   20.5679 C   0  0  0  0  0  0
  -24.1858  -13.0448   20.9166 C   0  0  0  0  0  0
  -24.6403  -11.6906   20.8730 C   0  0  0  0  0  0
  -23.9068  -10.4299   21.0397 C   0  0  0  0  0  0
  -24.3615   -9.4219   21.9183 C   0  0  0  0  0  0
  -23.6288   -8.2259   22.0761 C   0  0  0  0  0  0
  -22.4270   -8.0286   21.3548 C   0  0  0  0  0  0
  -21.9916   -9.0258   20.4644 C   0  0  0  0  0  0
  -22.7242  -10.2141   20.3053 C   0  0  0  0  0  0
  -21.6853   -6.0738   22.5277 C   0  0  0  0  0  0
  -21.4015   -6.5642   23.8210 C   0  0  0  0  0  0
  -21.3658   -5.6795   24.9170 C   0  0  0  0  0  0
  -21.6046   -4.3056   24.7222 C   0  0  0  0  0  0
  -21.8822   -3.8149   23.4345 C   0  0  0  0  0  0
  -21.9193   -4.6964   22.3398 C   0  0  0  0  0  0
  -22.7876  -13.5237   21.1823 C   0  0  0  0  0  0
  -22.1664   -4.2147   21.0976 F   0  0  0  0  0  0
  -21.5629   -3.4543   25.7740 F   0  0  0  0  0  0
  -30.0615  -13.1700   20.4487 N   0  0  0  0  0  0
  -26.3058  -12.9335   20.3383 N   0  0  0  0  0  0
  -25.9326  -11.6490   20.5751 N   0  0  0  0  0  0
  -22.0517  -12.8234   22.0375 N   0  0  0  0  0  0
  -25.4347  -15.1886   20.4093 N   0  0  0  0  0  0
  -31.7293  -14.6818   20.0427 O   0  0  0  0  0  0
  -21.6637   -6.8881   21.4237 O   0  0  0  0  0  0
  -22.3563  -14.5541   20.6662 O   0  0  0  0  0  0
  -24.6059  -31.8730   23.2117 C   0  0  0  0  0  0
  -25.8988  -32.4857   23.8390 C   0  0  1  0  0  0
  -27.2668  -27.4965   20.0847 C   0  0  0  0  0  0
  -25.5888  -33.8662   24.2321 N   0  0  0  0  0  0
  -23.3907  -30.4886   21.5520 C   0  0  2  0  0  0
  -24.8433  -28.9535   20.1220 C   0  0  0  0  0  0
  -22.7368  -29.4649   22.5047 C   0  0  0  0  0  0
  -18.0262  -28.1359   22.8502 C   0  0  0  0  0  0
  -24.1485  -36.7323   23.2624 C   0  0  0  0  0  0
  -25.9076  -30.8550   21.3560 C   0  0  0  0  0  0
  -25.9919  -29.4885   20.7143 C   0  0  0  0  0  0
  -27.1968  -28.7642   20.7105 C   0  0  0  0  0  0
  -26.0955  -26.9565   19.5125 C   0  0  0  0  0  0
  -24.8846  -27.6794   19.5244 C   0  0  0  0  0  0
  -23.5974  -29.8080   20.1694 C   0  0  0  0  0  0
  -25.4105  -36.3130   24.0332 C   0  0  1  0  0  0
  -20.5841  -28.3618   23.1370 C   0  0  2  0  0  0
  -20.6749  -26.9362   22.5438 C   0  0  0  0  0  0
  -19.5736  -26.6362   21.5219 C   0  0  0  0  0  0
  -18.1897  -26.7922   22.1600 C   0  0  0  0  0  0
  -19.1510  -28.8811   23.2929 C   0  0  0  0  0  0
  -18.9437  -30.1438   23.8898 C   0  0  0  0  0  0
  -17.6435  -30.6570   24.0551 C   0  0  0  0  0  0
  -25.9043  -34.9508   23.5116 C   0  0  0  0  0  0
  -16.5327  -29.9060   23.6328 C   0  0  0  0  0  0
  -16.7253  -28.6486   23.0341 C   0  0  0  0  0  0
  -26.4452  -31.6609   25.0693 C   0  0  0  0  0  0
  -25.3753  -31.3682   26.1456 C   0  0  0  0  0  0
  -27.0280  -30.3067   24.6010 C   0  0  0  0  0  0
  -27.6005  -32.4336   25.7492 C   0  0  0  0  0  0
  -27.5607  -37.1793   24.8434 C   0  0  0  0  0  0
  -21.4108  -29.2990   22.3782 N   0  0  0  0  0  0
  -26.4272  -37.3837   23.9450 N   0  0  0  0  0  0
  -24.6524  -31.0861   22.0996 N   0  0  0  0  0  0
  -23.4176  -28.8223   23.3088 O   0  0  0  0  0  0
  -28.4312  -26.7645   19.9851 O   0  0  0  0  0  0
  -26.5610  -34.8953   22.4677 O   0  0  0  0  0  0
  -23.5272  -32.1460   23.7553 O   0  0  0  0  0  0
  -30.9528  -19.6820   22.1253 C   0  0  0  0  0  0
  -33.2443  -21.0730   22.4426 C   0  0  0  0  0  0
  -32.1082  -21.6417   21.8078 C   0  0  0  0  0  0
  -32.0909  -19.1096   22.7518 C   0  0  0  0  0  0
  -31.1979  -23.8032   22.0843 C   0  0  0  0  0  0
  -31.9221  -23.0093   19.8774 C   0  0  0  0  0  0
  -31.2101  -25.2449   21.5613 C   0  0  0  0  0  0
  -31.9413  -24.4563   19.3438 C   0  0  1  0  0  0
  -34.5324  -21.8521   22.6232 C   0  0  0  0  0  0
  -31.7163  -24.4315   17.8180 C   0  0  0  0  0  0
  -31.3246  -16.8527   22.4525 C   0  0  0  0  0  0
  -31.6886  -15.4077   22.7805 C   0  0  0  0  0  0
  -30.8261  -26.6887   19.5766 C   0  0  0  0  0  0
  -29.6560  -27.4758   20.1853 C   0  0  0  0  0  0
  -30.9605  -20.9443   21.6504 N   0  0  0  0  0  0
  -33.2357  -19.8032   22.9153 N   0  0  0  0  0  0
  -32.1144  -22.9557   21.3260 N   0  0  0  0  0  0
  -32.1273  -17.7950   23.2112 N   0  0  0  0  0  0
  -30.7906  -14.5120   22.0777 N   0  0  0  0  0  0
  -30.9534  -25.2970   20.0928 N   0  3  2  0  0  0
  -31.4424  -12.3778   19.0273 H   0  0  0  0  0  0
  -30.3015  -11.2366   19.6785 H   0  0  0  0  0  0
  -29.6812  -11.8694   17.3374 H   0  0  0  0  0  0
  -29.6269  -13.5562   17.7875 H   0  0  0  0  0  0
  -27.8054  -11.3267   18.7723 H   0  0  0  0  0  0
  -27.3301  -12.6849   17.7867 H   0  0  0  0  0  0
  -27.7302  -14.2568   19.6084 H   0  0  0  0  0  0
  -28.6410  -11.9073   21.3394 H   0  0  0  0  0  0
  -28.4725  -13.5681   21.8450 H   0  0  0  0  0  0
  -25.2752   -9.5695   22.4771 H   0  0  0  0  0  0
  -23.9984   -7.4660   22.7495 H   0  0  0  0  0  0
  -21.0852   -8.8772   19.8950 H   0  0  0  0  0  0
  -22.3687  -10.9680   19.6172 H   0  0  0  0  0  0
  -21.2017   -7.6152   23.9707 H   0  0  0  0  0  0
  -21.1479   -6.0528   25.9071 H   0  0  0  0  0  0
  -22.0610   -2.7616   23.2845 H   0  0  0  0  0  0
  -22.4110  -11.9877   22.4756 H   0  0  0  0  0  0
  -21.1140  -13.1272   22.2572 H   0  0  0  0  0  0
  -24.6737  -15.8488   20.5245 H   0  0  0  0  0  0
  -26.2974  -15.6279   20.1127 H   0  0  0  0  0  0
  -26.7074  -32.5607   23.1178 H   0  0  0  0  0  0
  -25.0082  -33.9854   25.0488 H   0  0  0  0  0  0
  -22.6743  -31.3005   21.4102 H   0  0  0  0  0  0
  -23.3810  -35.9586   23.3185 H   0  0  0  0  0  0
  -24.3596  -36.9057   22.2058 H   0  0  0  0  0  0
  -23.7160  -37.6453   23.6730 H   0  0  0  0  0  0
  -26.0048  -31.6187   20.5829 H   0  0  0  0  0  0
  -26.7992  -30.9204   21.9673 H   0  0  0  0  0  0
  -28.0599  -29.2044   21.1877 H   0  0  0  0  0  0
  -26.1293  -25.9862   19.0367 H   0  0  0  0  0  0
  -24.0002  -27.2572   19.0684 H   0  0  0  0  0  0
  -23.6906  -30.5731   19.3982 H   0  0  0  0  0  0
  -22.7286  -29.2107   19.8865 H   0  0  0  0  0  0
  -25.1265  -36.1978   25.0823 H   0  0  0  0  0  0
  -20.9929  -28.3163   24.1499 H   0  0  0  0  0  0
  -20.5657  -26.2205   23.3601 H   0  0  0  0  0  0
  -21.6627  -26.7410   22.1243 H   0  0  0  0  0  0
  -19.6894  -25.6277   21.1242 H   0  0  0  0  0  0
  -19.6697  -27.3173   20.6756 H   0  0  0  0  0  0
  -17.4196  -26.6737   21.3953 H   0  0  0  0  0  0
  -18.0224  -26.0030   22.8951 H   0  0  0  0  0  0
  -19.7908  -30.7277   24.2241 H   0  0  0  0  0  0
  -17.4978  -31.6258   24.5141 H   0  0  0  0  0  0
  -15.5320  -30.2955   23.7649 H   0  0  0  0  0  0
  -15.8661  -28.0818   22.7015 H   0  0  0  0  0  0
  -24.5913  -30.7045   25.7792 H   0  0  0  0  0  0
  -24.8970  -32.2832   26.4961 H   0  0  0  0  0  0
  -25.8149  -30.8813   27.0172 H   0  0  0  0  0  0
  -26.2791  -29.6857   24.1084 H   0  0  0  0  0  0
  -27.4085  -29.7268   25.4429 H   0  0  0  0  0  0
  -27.8613  -30.4401   23.9110 H   0  0  0  0  0  0
  -27.2566  -33.3590   26.2142 H   0  0  0  0  0  0
  -28.3802  -32.6991   25.0335 H   0  0  0  0  0  0
  -28.0700  -31.8430   26.5375 H   0  0  0  0  0  0
  -28.2518  -38.0201   24.7690 H   0  0  0  0  0  0
  -28.1221  -36.2760   24.6002 H   0  0  0  0  0  0
  -27.2362  -37.1121   25.8832 H   0  0  0  0  0  0
  -20.9260  -29.8701   21.6999 H   0  0  0  0  0  0
  -26.0157  -38.2890   24.1575 H   0  0  0  0  0  0
  -30.0314  -19.1348   21.9909 H   0  0  0  0  0  0
  -30.1809  -23.4086   22.0315 H   0  0  0  0  0  0
  -31.4757  -23.7968   23.1401 H   0  0  0  0  0  0
  -32.7021  -22.4232   19.3873 H   0  0  0  0  0  0
  -30.9732  -22.5418   19.6078 H   0  0  0  0  0  0
  -32.1710  -25.7125   21.7823 H   0  0  0  0  0  0
  -30.4581  -25.7975   22.1224 H   0  0  0  0  0  0
  -32.9374  -24.8676   19.5227 H   0  0  0  0  0  0
  -34.9276  -22.1495   21.6516 H   0  0  0  0  0  0
  -35.2936  -21.2610   23.1358 H   0  0  0  0  0  0
  -34.3463  -22.7523   23.2095 H   0  0  0  0  0  0
  -30.6872  -24.1751   17.5658 H   0  0  0  0  0  0
  -32.3624  -23.6900   17.3451 H   0  0  0  0  0  0
  -31.9620  -25.3833   17.3489 H   0  0  0  0  0  0
  -30.2666  -17.0153   22.6684 H   0  0  0  0  0  0
  -31.4663  -17.0328   21.3838 H   0  0  0  0  0  0
  -31.5922  -15.2194   23.8505 H   0  0  0  0  0  0
  -32.7247  -15.1912   22.5105 H   0  0  0  0  0  0
  -31.7582  -27.2281   19.7452 H   0  0  0  0  0  0
  -30.6576  -26.6876   18.5017 H   0  0  0  0  0  0
  -29.6230  -28.4429   19.6793 H   0  0  0  0  0  0
  -29.8149  -27.6811   21.2434 H   0  0  0  0  0  0
  -33.0412  -17.4752   23.5132 H   0  0  0  0  0  0
  -30.1117  -14.0061   22.6286 H   0  0  0  0  0  0
  -30.0517  -24.8628   19.9581 H   0  0  0  0  0  0
  1 25  1  0  0  0
  1 30  2  0  0  0
  1 89  1  0  0  0
  2  3  1  0  0  0
  2 25  1  0  0  0
  2 91  1  0  0  0
  2 92  1  0  0  0
  3  4  1  0  0  0
  3 93  1  0  0  0
  3 94  1  0  0  0
  4  5  1  0  0  0
  4 95  1  0  0  0
  4 96  1  0  0  0
  5  6  1  0  0  0
  5 26  1  0  0  0
  5 97  1  0  0  0
  6 25  1  0  0  0
  6 98  1  0  0  0
  6 99  1  0  0  0
  7  8  2  0  0  0
  7 26  1  0  0  0
  7 29  1  0  0  0
  8  9  1  0  0  0
  8 22  1  0  0  0
  9 10  1  0  0  0
  9 27  2  0  0  0
 10 11  2  0  0  0
 10 15  1  0  0  0
 11 12  1  0  0  0
 11100  1  0  0  0
 12 13  2  0  0  0
 12101  1  0  0  0
 13 14  1  0  0  0
 13 31  1  0  0  0
 14 15  2  0  0  0
 14102  1  0  0  0
 15103  1  0  0  0
 16 17  2  0  0  0
 16 21  1  0  0  0
 16 31  1  0  0  0
 17 18  1  0  0  0
 17104  1  0  0  0
 18 19  2  0  0  0
 18105  1  0  0  0
 19 20  1  0  0  0
 19 24  1  0  0  0
 20 21  2  0  0  0
 20106  1  0  0  0
 21 23  1  0  0  0
 22 28  1  0  0  0
 22 32  2  0  0  0
 26 27  1  0  0  0
 28107  1  0  0  0
 28108  1  0  0  0
 29109  1  0  0  0
 29110  1  0  0  0
 33 34  1  0  0  0
 33 66  1  0  0  0
 33 70  2  0  0  0
 34 36  1  0  0  0
 34 59  1  0  0  0
 34111  1  0  0  0
 35 44  2  0  0  0
 35 45  1  0  0  0
 35 68  1  0  0  0
 36 56  1  0  0  0
 36112  1  0  0  0
 37 39  1  0  0  0
 37 47  1  0  0  0
 37 66  1  0  0  0
 37113  1  0  0  0
 38 43  2  0  0  0
 38 46  1  0  0  0
 38 47  1  0  0  0
 39 64  1  0  0  0
 39 67  2  0  0  0
 40 52  1  0  0  0
 40 53  2  0  0  0
 40 58  1  0  0  0
 41114  1  0  0  0
 41115  1  0  0  0
 41116  1  0  0  0
 41 48  1  0  0  0
 42 43  1  0  0  0
 42 66  1  0  0  0
 42117  1  0  0  0
 42118  1  0  0  0
 43 44  1  0  0  0
 44119  1  0  0  0
 45 46  2  0  0  0
 45120  1  0  0  0
 46121  1  0  0  0
 47122  1  0  0  0
 47123  1  0  0  0
 48 56  1  0  0  0
 48 65  1  0  0  0
 48124  1  0  0  0
 49 50  1  0  0  0
 49 53  1  0  0  0
 49 64  1  0  0  0
 49125  1  0  0  0
 50 51  1  0  0  0
 50126  1  0  0  0
 50127  1  0  0  0
 51 52  1  0  0  0
 51128  1  0  0  0
 51129  1  0  0  0
 52130  1  0  0  0
 52131  1  0  0  0
 53 54  1  0  0  0
 54 55  2  0  0  0
 54132  1  0  0  0
 55 57  1  0  0  0
 55133  1  0  0  0
 56 69  2  0  0  0
 57 58  2  0  0  0
 57134  1  0  0  0
 58135  1  0  0  0
 59 60  1  0  0  0
 59 61  1  0  0  0
 59 62  1  0  0  0
 60136  1  0  0  0
 60137  1  0  0  0
 60138  1  0  0  0
 61139  1  0  0  0
 61140  1  0  0  0
 61141  1  0  0  0
 62142  1  0  0  0
 62143  1  0  0  0
 62144  1  0  0  0
 63 65  1  0  0  0
 63145  1  0  0  0
 63146  1  0  0  0
 63147  1  0  0  0
 64148  1  0  0  0
 65149  1  0  0  0
 68 84  1  0  0  0
 71 74  2  0  0  0
 71 85  1  0  0  0
 71150  1  0  0  0
 72 73  1  0  0  0
 72 79  1  0  0  0
 72 86  2  0  0  0
 73 85  2  0  0  0
 73 87  1  0  0  0
 74 86  1  0  0  0
 74 88  1  0  0  0
 75 77  1  0  0  0
 75 87  1  0  0  0
 75151  1  0  0  0
 75152  1  0  0  0
 76 78  1  0  0  0
 76 87  1  0  0  0
 76153  1  0  0  0
 76154  1  0  0  0
 77 90  1  0  0  0
 77155  1  0  0  0
 77156  1  0  0  0
 78 80  1  0  0  0
 78 90  1  0  0  0
 78157  1  0  0  0
 79158  1  0  0  0
 79159  1  0  0  0
 79160  1  0  0  0
 80161  1  0  0  0
 80162  1  0  0  0
 80163  1  0  0  0
 81 82  1  0  0  0
 81 88  1  0  0  0
 81164  1  0  0  0
 81165  1  0  0  0
 82 89  1  0  0  0
 82166  1  0  0  0
 82167  1  0  0  0
 83 84  1  0  0  0
 83168  1  0  0  0
 83169  1  0  0  0
 83 90  1  0  0  0
 84170  1  0  0  0
 84171  1  0  0  0
 88172  1  0  0  0
 89173  1  0  0  0
 90174  1  0  0  0
M  CHG  1  90   1
M  ISO  4   1 100  68 101  84 101  89 100
M  END
> <chiral flag>
0

> <version>
0

> <s_m_source_file>
/data/baiqing/PycharmProjects/Reinvent-master-3.2/result/LINK_invent/BTK/process_docking_weight1_custom_sum_contain_oxygen_bond_distance_aromatic_linkinvent_7_9_3/rearranged_h_0193.sdf

> <i_m_source_file_index>
73

> <r_mmod_Potential_Energy-OPLS-2005>
-167.043838500977

> <r_mmod_Stretch_Energy-OPLS-2005>
34.7543869018555

> <r_mmod_Bend_Energy-OPLS-2005>
95.6714630126953

> <r_mmod_Torsional_Energy-OPLS-2005>
282.983123779297

> <r_mmod_Improper_Torsional_Energy-OPLS-2005>
13.7753086090088

> <r_mmod_Van_der_Waal_Energy-OPLS-2005>
187.845199584961

> <r_mmod_Electrostatic_Energy-OPLS-2005>
-369.107879638672

> <r_mmod_Solvation_Energy-OPLS-2005>
-423.656982421875

> <b_mmod_Minimization_Converged-OPLS-2005>
0

> <r_mmod_RMS_Derivative-OPLS-2005>
1.95904469490051

$$$$
73
                    3D
 Structure written by MMmdl.
166175  0  0  1  0            999 V2000
  -30.6991  -14.5744   20.4846 C   0  0  0  0  0  0
  -30.4080  -12.3471   19.4519 C   0  0  0  0  0  0
  -29.4910  -12.4772   18.2195 C   0  0  0  0  0  0
  -28.0129  -12.3468   18.6336 C   0  0  0  0  0  0
  -27.6455  -13.2274   19.8594 C   0  0  2  0  0  0
  -28.6922  -13.1156   20.9890 C   0  0  0  0  0  0
  -25.2521  -13.8216   20.5694 C   0  0  0  0  0  0
  -24.1797  -13.0458   20.9186 C   0  0  0  0  0  0
  -24.6389  -11.6935   20.8755 C   0  0  0  0  0  0
  -23.9067  -10.4305   21.0419 C   0  0  0  0  0  0
  -24.3617   -9.4217   21.9192 C   0  0  0  0  0  0
  -23.6293   -8.2251   22.0763 C   0  0  0  0  0  0
  -22.4277   -8.0287   21.3551 C   0  0  0  0  0  0
  -21.9915   -9.0260   20.4650 C   0  0  0  0  0  0
  -22.7244  -10.2145   20.3065 C   0  0  0  0  0  0
  -21.6856   -6.0735   22.5273 C   0  0  0  0  0  0
  -21.4007   -6.5636   23.8201 C   0  0  0  0  0  0
  -21.3654   -5.6798   24.9169 C   0  0  0  0  0  0
  -21.6046   -4.3059   24.7226 C   0  0  0  0  0  0
  -21.8819   -3.8146   23.4348 C   0  0  0  0  0  0
  -21.9197   -4.6965   22.3407 C   0  0  0  0  0  0
  -22.7820  -13.5234   21.1860 C   0  0  0  0  0  0
  -22.1661   -4.2147   21.0987 F   0  0  0  0  0  0
  -21.5638   -3.4550   25.7737 F   0  0  0  0  0  0
  -30.0048  -13.4025   20.4002 N   0  0  0  0  0  0
  -26.2952  -12.9417   20.3345 N   0  0  0  0  0  0
  -25.9328  -11.6549   20.5806 N   0  0  0  0  0  0
  -22.0487  -12.8193   22.0413 N   0  0  0  0  0  0
  -25.4249  -15.1932   20.4107 N   0  0  0  0  0  0
  -31.9050  -14.6121   20.2170 O   0  0  0  0  0  0
  -21.6649   -6.8884   21.4235 O   0  0  0  0  0  0
  -22.3496  -14.5550   20.6742 O   0  0  0  0  0  0
  -24.6229  -31.8670   23.2071 C   0  0  0  0  0  0
  -25.9103  -32.4810   23.8384 C   0  0  1  0  0  0
  -27.2152  -27.3530   20.0961 C   0  0  0  0  0  0
  -25.5918  -33.8605   24.2292 N   0  0  0  0  0  0
  -23.4122  -30.4951   21.5499 C   0  0  2  0  0  0
  -24.8577  -28.9640   20.1100 C   0  0  0  0  0  0
  -22.7461  -29.4653   22.4931 C   0  0  0  0  0  0
  -18.0293  -28.1393   22.8468 C   0  0  0  0  0  0
  -24.1488  -36.7301   23.2628 C   0  0  0  0  0  0
  -25.9523  -30.8085   21.3741 C   0  0  0  0  0  0
  -26.0245  -29.4383   20.7198 C   0  0  0  0  0  0
  -27.2026  -28.6389   20.7155 C   0  0  0  0  0  0
  -26.0253  -26.9396   19.4466 C   0  0  0  0  0  0
  -24.8579  -27.7189   19.4698 C   0  0  0  0  0  0
  -23.6262  -29.8409   20.1622 C   0  0  0  0  0  0
  -25.4115  -36.3087   24.0315 C   0  0  1  0  0  0
  -20.5893  -28.3690   23.1317 C   0  0  2  0  0  0
  -20.6776  -26.9408   22.5442 C   0  0  0  0  0  0
  -19.5770  -26.6381   21.5231 C   0  0  0  0  0  0
  -18.1930  -26.7941   22.1615 C   0  0  0  0  0  0
  -19.1539  -28.8860   23.2885 C   0  0  0  0  0  0
  -18.9459  -30.1465   23.8911 C   0  0  0  0  0  0
  -17.6468  -30.6584   24.0572 C   0  0  0  0  0  0
  -25.9058  -34.9455   23.5101 C   0  0  0  0  0  0
  -16.5351  -29.9083   23.6352 C   0  0  0  0  0  0
  -16.7280  -28.6519   23.0346 C   0  0  0  0  0  0
  -26.4471  -31.6600   25.0737 C   0  0  0  0  0  0
  -25.3658  -31.3747   26.1426 C   0  0  0  0  0  0
  -27.0281  -30.3017   24.6151 C   0  0  0  0  0  0
  -27.6050  -32.4294   25.7518 C   0  0  0  0  0  0
  -27.5575  -37.1803   24.8465 C   0  0  0  0  0  0
  -21.4176  -29.3042   22.3693 N   0  0  0  0  0  0
  -26.4294  -37.3777   23.9409 N   0  0  0  0  0  0
  -24.6806  -31.0710   22.1018 N   0  0  0  0  0  0
  -23.4215  -28.8148   23.2959 O   0  0  0  0  0  0
  -28.3528  -26.5386   20.1595 O   0  0  0  0  0  0
  -26.5605  -34.8910   22.4652 O   0  0  0  0  0  0
  -23.5403  -32.1442   23.7442 O   0  0  0  0  0  0
  -27.4844  -20.2634   20.2163 C   0  0  0  0  0  0
  -26.3521  -20.0573   19.5182 C   0  0  0  0  0  0
  -27.7501  -21.0837   21.4608 C   0  0  0  0  0  0
  -29.8120  -16.6049   21.5968 C   0  0  0  0  0  0
  -30.3295  -16.5999   19.2516 C   0  0  0  0  0  0
  -29.0420  -17.9595   21.3597 C   0  0  0  0  0  0
  -29.4197  -17.8319   19.0750 C   0  0  0  0  0  0
  -28.9508  -20.0870   19.8810 C   0  0  1  0  0  0
  -29.0774  -21.4272   20.7210 C   0  0  1  0  0  0
  -26.2762  -19.4522   18.1307 C   0  0  0  0  0  0
  -29.0064  -24.0328   20.5397 C   0  0  0  0  0  0
  -28.3044  -25.1475   19.6822 C   0  0  0  0  0  0
  -29.9780  -15.7404   20.4021 N   0  0  0  0  0  0
  -29.5676  -18.7382   20.2178 N   0  0  0  0  0  0
  -28.9902  -22.6792   19.8714 N   0  3  0  0  0  0
  -31.4549  -12.4238   19.1549 H   0  0  0  0  0  0
  -30.2979  -11.3639   19.9085 H   0  0  0  0  0  0
  -29.7389  -11.7115   17.4832 H   0  0  0  0  0  0
  -29.6561  -13.4383   17.7299 H   0  0  0  0  0  0
  -27.8298  -11.2970   18.8612 H   0  0  0  0  0  0
  -27.3621  -12.5875   17.7924 H   0  0  0  0  0  0
  -27.6578  -14.2600   19.5078 H   0  0  0  0  0  0
  -28.6858  -12.1182   21.4299 H   0  0  0  0  0  0
  -28.4619  -13.8128   21.7962 H   0  0  0  0  0  0
  -25.2770   -9.5688   22.4759 H   0  0  0  0  0  0
  -24.0007   -7.4642   22.7476 H   0  0  0  0  0  0
  -21.0858   -8.8769   19.8948 H   0  0  0  0  0  0
  -22.3706  -10.9675   19.6165 H   0  0  0  0  0  0
  -21.1979   -7.6140   23.9700 H   0  0  0  0  0  0
  -21.1479   -6.0531   25.9069 H   0  0  0  0  0  0
  -22.0604   -2.7611   23.2854 H   0  0  0  0  0  0
  -22.4121  -11.9830   22.4719 H   0  0  0  0  0  0
  -21.1111  -13.1197   22.2681 H   0  0  0  0  0  0
  -24.6608  -15.8510   20.5134 H   0  0  0  0  0  0
  -26.2901  -15.6291   20.1179 H   0  0  0  0  0  0
  -26.7154  -32.5522   23.1132 H   0  0  0  0  0  0
  -25.0099  -33.9764   25.0457 H   0  0  0  0  0  0
  -22.7036  -31.3140   21.4121 H   0  0  0  0  0  0
  -23.3743  -35.9638   23.3291 H   0  0  0  0  0  0
  -24.3581  -36.8936   22.2043 H   0  0  0  0  0  0
  -23.7253  -37.6499   23.6673 H   0  0  0  0  0  0
  -26.0698  -31.5718   20.6016 H   0  0  0  0  0  0
  -26.8388  -30.8657   21.9933 H   0  0  0  0  0  0
  -28.0966  -28.9931   21.2117 H   0  0  0  0  0  0
  -25.9335  -26.0176   18.8969 H   0  0  0  0  0  0
  -23.9652  -27.3569   18.9788 H   0  0  0  0  0  0
  -23.7353  -30.6241   19.4111 H   0  0  0  0  0  0
  -22.7488  -29.2676   19.8588 H   0  0  0  0  0  0
  -25.1278  -36.1933   25.0805 H   0  0  0  0  0  0
  -20.9987  -28.3281   24.1435 H   0  0  0  0  0  0
  -20.5752  -26.2265   23.3633 H   0  0  0  0  0  0
  -21.6641  -26.7509   22.1183 H   0  0  0  0  0  0
  -19.6956  -25.6291   21.1263 H   0  0  0  0  0  0
  -19.6739  -27.3192   20.6767 H   0  0  0  0  0  0
  -17.4215  -26.6721   21.3983 H   0  0  0  0  0  0
  -18.0301  -26.0091   22.9026 H   0  0  0  0  0  0
  -19.7944  -30.7265   24.2282 H   0  0  0  0  0  0
  -17.5025  -31.6285   24.5141 H   0  0  0  0  0  0
  -15.5347  -30.2977   23.7704 H   0  0  0  0  0  0
  -15.8683  -28.0852   22.7045 H   0  0  0  0  0  0
  -24.5963  -30.6939   25.7777 H   0  0  0  0  0  0
  -24.8664  -32.2876   26.4678 H   0  0  0  0  0  0
  -25.7935  -30.9111   27.0323 H   0  0  0  0  0  0
  -26.2822  -29.6782   24.1206 H   0  0  0  0  0  0
  -27.4013  -29.7262   25.4636 H   0  0  0  0  0  0
  -27.8670  -30.4289   23.9306 H   0  0  0  0  0  0
  -27.2743  -33.3684   26.1968 H   0  0  0  0  0  0
  -28.3941  -32.6690   25.0381 H   0  0  0  0  0  0
  -28.0575  -31.8448   26.5537 H   0  0  0  0  0  0
  -28.2582  -38.0108   24.7501 H   0  0  0  0  0  0
  -28.1067  -36.2629   24.6295 H   0  0  0  0  0  0
  -27.2278  -37.1450   25.8863 H   0  0  0  0  0  0
  -20.9331  -29.8801   21.6935 H   0  0  0  0  0  0
  -26.0163  -38.2846   24.1417 H   0  0  0  0  0  0
  -25.4121  -20.3863   19.9389 H   0  0  0  0  0  0
  -27.9357  -20.5331   22.3839 H   0  0  0  0  0  0
  -27.1108  -21.9430   21.6641 H   0  0  0  0  0  0
  -29.3009  -16.0375   22.3756 H   0  0  0  0  0  0
  -30.8016  -16.8318   21.9991 H   0  0  0  0  0  0
  -31.3611  -16.9459   19.3501 H   0  0  0  0  0  0
  -30.2964  -16.0112   18.3332 H   0  0  0  0  0  0
  -29.1016  -18.5622   22.2671 H   0  0  0  0  0  0
  -27.9806  -17.7465   21.2071 H   0  0  0  0  0  0
  -28.3783  -17.5266   18.9455 H   0  0  0  0  0  0
  -29.7144  -18.3403   18.1561 H   0  0  0  0  0  0
  -29.2299  -20.3101   18.8502 H   0  0  0  0  0  0
  -29.9454  -21.4392   21.3809 H   0  0  0  0  0  0
  -27.2579  -19.1652   17.7589 H   0  0  0  0  0  0
  -25.8629  -20.1815   17.4315 H   0  0  0  0  0  0
  -25.6270  -18.5755   18.1269 H   0  0  0  0  0  0
  -28.5029  -23.9730   21.5049 H   0  0  0  0  0  0
  -30.0391  -24.3095   20.7481 H   0  0  0  0  0  0
  -27.2926  -24.7669   19.6009 H   0  0  0  0  0  0
  -28.7131  -25.1443   18.6719 H   0  0  0  0  0  0
  -28.1536  -22.6053   19.3142 H   0  0  0  0  0  0
  -29.7594  -22.6599   19.2196 H   0  0  0  0  0  0
  1 25  1  0  0  0
  1 30  2  0  0  0
  1 83  1  0  0  0
  2  3  1  0  0  0
  2 25  1  0  0  0
  2 86  1  0  0  0
  2 87  1  0  0  0
  3  4  1  0  0  0
  3 88  1  0  0  0
  3 89  1  0  0  0
  4  5  1  0  0  0
  4 90  1  0  0  0
  4 91  1  0  0  0
  5  6  1  0  0  0
  5 26  1  0  0  0
  5 92  1  0  0  0
  6 25  1  0  0  0
  6 93  1  0  0  0
  6 94  1  0  0  0
  7  8  2  0  0  0
  7 26  1  0  0  0
  7 29  1  0  0  0
  8  9  1  0  0  0
  8 22  1  0  0  0
  9 10  1  0  0  0
  9 27  2  0  0  0
 10 11  2  0  0  0
 10 15  1  0  0  0
 11 12  1  0  0  0
 11 95  1  0  0  0
 12 13  2  0  0  0
 12 96  1  0  0  0
 13 14  1  0  0  0
 13 31  1  0  0  0
 14 15  2  0  0  0
 14 97  1  0  0  0
 15 98  1  0  0  0
 16 17  2  0  0  0
 16 21  1  0  0  0
 16 31  1  0  0  0
 17 18  1  0  0  0
 17 99  1  0  0  0
 18 19  2  0  0  0
 18100  1  0  0  0
 19 20  1  0  0  0
 19 24  1  0  0  0
 20 21  2  0  0  0
 20101  1  0  0  0
 21 23  1  0  0  0
 22 28  1  0  0  0
 22 32  2  0  0  0
 26 27  1  0  0  0
 28102  1  0  0  0
 28103  1  0  0  0
 29104  1  0  0  0
 29105  1  0  0  0
 33 34  1  0  0  0
 33 66  1  0  0  0
 33 70  2  0  0  0
 34 36  1  0  0  0
 34 59  1  0  0  0
 34106  1  0  0  0
 35 44  2  0  0  0
 35 45  1  0  0  0
 35 68  1  0  0  0
 36 56  1  0  0  0
 36107  1  0  0  0
 37 39  1  0  0  0
 37 47  1  0  0  0
 37 66  1  0  0  0
 37108  1  0  0  0
 38 43  2  0  0  0
 38 46  1  0  0  0
 38 47  1  0  0  0
 39 64  1  0  0  0
 39 67  2  0  0  0
 40 52  1  0  0  0
 40 53  2  0  0  0
 40 58  1  0  0  0
 41109  1  0  0  0
 41110  1  0  0  0
 41111  1  0  0  0
 41 48  1  0  0  0
 42 43  1  0  0  0
 42 66  1  0  0  0
 42112  1  0  0  0
 42113  1  0  0  0
 43 44  1  0  0  0
 44114  1  0  0  0
 45 46  2  0  0  0
 45115  1  0  0  0
 46116  1  0  0  0
 47117  1  0  0  0
 47118  1  0  0  0
 48 56  1  0  0  0
 48 65  1  0  0  0
 48119  1  0  0  0
 49 50  1  0  0  0
 49 53  1  0  0  0
 49 64  1  0  0  0
 49120  1  0  0  0
 50 51  1  0  0  0
 50121  1  0  0  0
 50122  1  0  0  0
 51 52  1  0  0  0
 51123  1  0  0  0
 51124  1  0  0  0
 52125  1  0  0  0
 52126  1  0  0  0
 53 54  1  0  0  0
 54 55  2  0  0  0
 54127  1  0  0  0
 55 57  1  0  0  0
 55128  1  0  0  0
 56 69  2  0  0  0
 57 58  2  0  0  0
 57129  1  0  0  0
 58130  1  0  0  0
 59 60  1  0  0  0
 59 61  1  0  0  0
 59 62  1  0  0  0
 60131  1  0  0  0
 60132  1  0  0  0
 60133  1  0  0  0
 61134  1  0  0  0
 61135  1  0  0  0
 61136  1  0  0  0
 62137  1  0  0  0
 62138  1  0  0  0
 62139  1  0  0  0
 63 65  1  0  0  0
 63140  1  0  0  0
 63141  1  0  0  0
 63142  1  0  0  0
 64143  1  0  0  0
 65144  1  0  0  0
 68 82  1  0  0  0
 71 72  2  0  0  0
 71 73  1  0  0  0
 71 78  1  0  0  0
 72 80  1  0  0  0
 72145  1  0  0  0
 73 79  1  0  0  0
 73146  1  0  0  0
 73147  1  0  0  0
 74 76  1  0  0  0
 74 83  1  0  0  0
 74148  1  0  0  0
 74149  1  0  0  0
 75 77  1  0  0  0
 75 83  1  0  0  0
 75150  1  0  0  0
 75151  1  0  0  0
 76152  1  0  0  0
 76153  1  0  0  0
 76 84  1  0  0  0
 77 84  1  0  0  0
 77154  1  0  0  0
 77155  1  0  0  0
 78 79  1  0  0  0
 78 84  1  0  0  0
 78156  1  0  0  0
 79 85  1  0  0  0
 79157  1  0  0  0
 80158  1  0  0  0
 80159  1  0  0  0
 80160  1  0  0  0
 81 82  1  0  0  0
 81 85  1  0  0  0
 81161  1  0  0  0
 81162  1  0  0  0
 82163  1  0  0  0
 82164  1  0  0  0
 85165  1  0  0  0
 85166  1  0  0  0
M  CHG  1  85   1
M  ISO  4   1 100  68 101  82 101  83 100
M  END
> <chiral flag>
0

> <version>
0

> <s_m_source_file>
/data/baiqing/PycharmProjects/Reinvent-master-3.2/result/LINK_invent/BTK/process_docking_weight1_custom_sum_contain_oxygen_bond_distance_aromatic_linkinvent_7_9_3/rearranged_h_0193.sdf

> <i_m_source_file_index>
74

> <r_mmod_Potential_Energy-OPLS-2005>
137.001342773438

> <r_mmod_Stretch_Energy-OPLS-2005>
67.9557723999023

> <r_mmod_Bend_Energy-OPLS-2005>
161.105484008789

> <r_mmod_Torsional_Energy-OPLS-2005>
397.942962646484

> <r_mmod_Improper_Torsional_Energy-OPLS-2005>
18.977840423584

> <r_mmod_Van_der_Waal_Energy-OPLS-2005>
142.568923950195

> <r_mmod_Electrostatic_Energy-OPLS-2005>
-249.549865722656

> <r_mmod_Solvation_Energy-OPLS-2005>
-443.004241943359

> <b_mmod_Minimization_Converged-OPLS-2005>
0

> <r_mmod_RMS_Derivative-OPLS-2005>
3.04700207710266

$$$$
74
                    3D
 Structure written by MMmdl.
166175  0  0  1  0            999 V2000
  -30.7114  -14.5280   20.5993 C   0  0  0  0  0  0
  -30.4262  -12.3471   19.4539 C   0  0  0  0  0  0
  -29.5109  -12.5062   18.2243 C   0  0  0  0  0  0
  -28.0267  -12.3753   18.6240 C   0  0  0  0  0  0
  -27.6567  -13.2271   19.8694 C   0  0  2  0  0  0
  -28.6947  -13.0477   20.9973 C   0  0  0  0  0  0
  -25.2500  -13.8209   20.5687 C   0  0  0  0  0  0
  -24.1790  -13.0467   20.9188 C   0  0  0  0  0  0
  -24.6385  -11.6934   20.8741 C   0  0  0  0  0  0
  -23.9085  -10.4297   21.0426 C   0  0  0  0  0  0
  -24.3620   -9.4213   21.9188 C   0  0  0  0  0  0
  -23.6291   -8.2263   22.0741 C   0  0  0  0  0  0
  -22.4276   -8.0276   21.3546 C   0  0  0  0  0  0
  -21.9923   -9.0279   20.4688 C   0  0  0  0  0  0
  -22.7261  -10.2152   20.3103 C   0  0  0  0  0  0
  -21.6863   -6.0752   22.5286 C   0  0  0  0  0  0
  -21.4052   -6.5649   23.8223 C   0  0  0  0  0  0
  -21.3703   -5.6797   24.9180 C   0  0  0  0  0  0
  -21.6069   -4.3058   24.7221 C   0  0  0  0  0  0
  -21.8794   -3.8147   23.4324 C   0  0  0  0  0  0
  -21.9169   -4.6974   22.3392 C   0  0  0  0  0  0
  -22.7799  -13.5248   21.1838 C   0  0  0  0  0  0
  -22.1610   -4.2151   21.0967 F   0  0  0  0  0  0
  -21.5642   -3.4528   25.7725 F   0  0  0  0  0  0
  -30.0239  -13.3581   20.4458 N   0  0  0  0  0  0
  -26.2968  -12.9439   20.3308 N   0  0  0  0  0  0
  -25.9315  -11.6578   20.5729 N   0  0  0  0  0  0
  -22.0453  -12.8291   22.0420 N   0  0  0  0  0  0
  -25.4201  -15.1944   20.4171 N   0  0  0  0  0  0
  -31.8345  -14.6984   20.1197 O   0  0  0  0  0  0
  -21.6649   -6.8880   21.4240 O   0  0  0  0  0  0
  -22.3501  -14.5565   20.6656 O   0  0  0  0  0  0
  -24.6209  -31.8679   23.2088 C   0  0  0  0  0  0
  -25.9097  -32.4813   23.8417 C   0  0  1  0  0  0
  -27.2288  -27.3980   20.1180 C   0  0  0  0  0  0
  -25.5941  -33.8615   24.2346 N   0  0  0  0  0  0
  -23.4123  -30.4977   21.5479 C   0  0  2  0  0  0
  -24.8591  -28.9686   20.1039 C   0  0  0  0  0  0
  -22.7468  -29.4678   22.4907 C   0  0  0  0  0  0
  -18.0313  -28.1383   22.8516 C   0  0  0  0  0  0
  -24.1464  -36.7319   23.2644 C   0  0  0  0  0  0
  -25.9463  -30.8276   21.3672 C   0  0  0  0  0  0
  -26.0212  -29.4623   20.7096 C   0  0  0  0  0  0
  -27.2116  -28.6883   20.7095 C   0  0  0  0  0  0
  -26.0543  -26.9537   19.4630 C   0  0  0  0  0  0
  -24.8759  -27.7201   19.4620 C   0  0  0  0  0  0
  -23.6239  -29.8413   20.1594 C   0  0  0  0  0  0
  -25.4082  -36.3112   24.0361 C   0  0  1  0  0  0
  -20.5906  -28.3703   23.1269 C   0  0  2  0  0  0
  -20.6771  -26.9430   22.5394 C   0  0  0  0  0  0
  -19.5725  -26.6413   21.5215 C   0  0  0  0  0  0
  -18.1932  -26.7933   22.1652 C   0  0  0  0  0  0
  -19.1566  -28.8853   23.2901 C   0  0  0  0  0  0
  -18.9481  -30.1455   23.8934 C   0  0  0  0  0  0
  -17.6475  -30.6580   24.0575 C   0  0  0  0  0  0
  -25.9030  -34.9485   23.5147 C   0  0  0  0  0  0
  -16.5366  -29.9086   23.6307 C   0  0  0  0  0  0
  -16.7306  -28.6487   23.0364 C   0  0  0  0  0  0
  -26.4506  -31.6595   25.0761 C   0  0  0  0  0  0
  -25.3772  -31.3753   26.1517 C   0  0  0  0  0  0
  -27.0312  -30.3019   24.6157 C   0  0  0  0  0  0
  -27.6096  -32.4314   25.7501 C   0  0  0  0  0  0
  -27.5568  -37.1805   24.8477 C   0  0  0  0  0  0
  -21.4189  -29.3065   22.3657 N   0  0  0  0  0  0
  -26.4270  -37.3805   23.9449 N   0  0  0  0  0  0
  -24.6791  -31.0761   22.0996 N   0  0  0  0  0  0
  -23.4200  -28.8222   23.2981 O   0  0  0  0  0  0
  -28.3362  -26.5594   20.2181 O   0  0  0  0  0  0
  -26.5563  -34.8929   22.4688 O   0  0  0  0  0  0
  -23.5389  -32.1429   23.7454 O   0  0  0  0  0  0
  -29.3678  -23.0237   20.4211 C   0  0  0  0  0  0
  -29.0909  -24.2251   21.1539 C   0  0  0  0  0  0
  -29.9687  -21.9694   21.1691 C   0  0  0  0  0  0
  -30.2594  -23.3759   22.9457 C   0  0  0  0  0  0
  -27.9499  -23.2762   18.1186 C   0  0  0  0  0  0
  -28.2587  -21.8177   18.3557 C   0  0  0  0  0  0
  -29.1942  -22.8790   18.9124 C   0  0  0  0  0  0
  -30.8923  -23.6184   24.2990 C   0  0  0  0  0  0
  -30.5610  -23.0652   18.2489 C   0  0  0  0  0  0
  -27.9953  -25.2681   20.8040 C   0  0  0  0  0  0
  -30.0884  -18.1063   20.9124 C   0  0  0  0  0  0
  -30.5554  -19.4961   21.4729 C   0  0  0  0  0  0
  -30.6038  -16.8427   21.6941 C   0  0  0  0  0  0
  -29.5908  -24.3789   22.4002 N   0  0  0  0  0  0
  -30.4214  -22.1721   22.4129 N   0  0  0  0  0  0
  -30.1342  -20.6575   20.6536 N   0  0  0  0  0  0
  -30.0631  -15.5312   21.2402 N   0  0  0  0  0  0
  -30.3263  -11.3473   19.8798 H   0  0  0  0  0  0
  -31.4756  -12.4361   19.1645 H   0  0  0  0  0  0
  -29.7642  -11.7561   17.4743 H   0  0  0  0  0  0
  -29.6820  -13.4840   17.7676 H   0  0  0  0  0  0
  -27.8288  -11.3214   18.8229 H   0  0  0  0  0  0
  -27.3888  -12.6496   17.7811 H   0  0  0  0  0  0
  -27.6927  -14.2763   19.5627 H   0  0  0  0  0  0
  -28.4399  -13.6824   21.8484 H   0  0  0  0  0  0
  -28.6829  -12.0264   21.3790 H   0  0  0  0  0  0
  -25.2784   -9.5689   22.4723 H   0  0  0  0  0  0
  -24.0025   -7.4681   22.7465 H   0  0  0  0  0  0
  -21.0827   -8.8836   19.9015 H   0  0  0  0  0  0
  -22.3717  -10.9687   19.6188 H   0  0  0  0  0  0
  -21.2068   -7.6162   23.9726 H   0  0  0  0  0  0
  -21.1569   -6.0530   25.9093 H   0  0  0  0  0  0
  -22.0519   -2.7601   23.2817 H   0  0  0  0  0  0
  -22.4034  -11.9942   22.4842 H   0  0  0  0  0  0
  -21.1070  -13.1330   22.2668 H   0  0  0  0  0  0
  -24.6669  -15.8511   20.5902 H   0  0  0  0  0  0
  -26.2774  -15.6417   20.1200 H   0  0  0  0  0  0
  -26.7179  -32.5480   23.1191 H   0  0  0  0  0  0
  -25.0128  -33.9762   25.0512 H   0  0  0  0  0  0
  -22.7062  -31.3204   21.4117 H   0  0  0  0  0  0
  -23.3709  -35.9662   23.3310 H   0  0  0  0  0  0
  -24.3580  -36.8913   22.2059 H   0  0  0  0  0  0
  -23.7210  -37.6548   23.6606 H   0  0  0  0  0  0
  -26.0619  -31.5975   20.6033 H   0  0  0  0  0  0
  -26.8351  -30.8796   21.9843 H   0  0  0  0  0  0
  -28.1007  -29.0586   21.2020 H   0  0  0  0  0  0
  -26.0307  -26.0031   18.9502 H   0  0  0  0  0  0
  -23.9924  -27.3483   18.9630 H   0  0  0  0  0  0
  -23.7443  -30.6238   19.4114 H   0  0  0  0  0  0
  -22.7401  -29.2803   19.8464 H   0  0  0  0  0  0
  -25.1225  -36.2007   25.0851 H   0  0  0  0  0  0
  -21.0058  -28.3292   24.1361 H   0  0  0  0  0  0
  -20.5677  -26.2345   23.3624 H   0  0  0  0  0  0
  -21.6639  -26.7441   22.1185 H   0  0  0  0  0  0
  -19.6879  -25.6338   21.1221 H   0  0  0  0  0  0
  -19.6611  -27.3238   20.6744 H   0  0  0  0  0  0
  -17.4201  -26.6748   21.4050 H   0  0  0  0  0  0
  -18.0296  -26.0053   22.9010 H   0  0  0  0  0  0
  -19.7960  -30.7279   24.2312 H   0  0  0  0  0  0
  -17.5020  -31.6254   24.5208 H   0  0  0  0  0  0
  -15.5362  -30.2997   23.7581 H   0  0  0  0  0  0
  -15.8722  -28.0804   22.7041 H   0  0  0  0  0  0
  -24.5935  -30.7094   25.7899 H   0  0  0  0  0  0
  -24.8968  -32.2924   26.4932 H   0  0  0  0  0  0
  -25.8138  -30.8978   27.0302 H   0  0  0  0  0  0
  -26.2850  -29.6805   24.1193 H   0  0  0  0  0  0
  -27.4044  -29.7248   25.4637 H   0  0  0  0  0  0
  -27.8706  -30.4330   23.9328 H   0  0  0  0  0  0
  -27.2728  -33.3602   26.2124 H   0  0  0  0  0  0
  -28.3861  -32.6919   25.0295 H   0  0  0  0  0  0
  -28.0814  -31.8428   26.5380 H   0  0  0  0  0  0
  -28.2613  -38.0073   24.7492 H   0  0  0  0  0  0
  -28.1028  -36.2614   24.6292 H   0  0  0  0  0  0
  -27.2315  -37.1468   25.8891 H   0  0  0  0  0  0
  -20.9367  -29.8825   21.6919 H   0  0  0  0  0  0
  -26.0160  -38.2896   24.1431 H   0  0  0  0  0  0
  -26.9993  -23.5758   18.5549 H   0  0  0  0  0  0
  -28.1139  -23.6628   17.1106 H   0  0  0  0  0  0
  -28.5883  -21.2327   17.4927 H   0  0  0  0  0  0
  -27.5936  -21.2942   19.0430 H   0  0  0  0  0  0
  -30.6157  -22.8355   25.0094 H   0  0  0  0  0  0
  -30.5864  -24.5794   24.7147 H   0  0  0  0  0  0
  -31.9772  -23.6276   24.1910 H   0  0  0  0  0  0
  -30.5231  -22.8184   17.1866 H   0  0  0  0  0  0
  -30.9042  -24.0933   18.3487 H   0  0  0  0  0  0
  -31.3179  -22.4202   18.7054 H   0  0  0  0  0  0
  -27.5179  -25.5004   21.7619 H   0  0  0  0  0  0
  -27.2038  -24.7643   20.2632 H   0  0  0  0  0  0
  -30.4019  -18.0172   19.8712 H   0  0  0  0  0  0
  -28.9976  -18.0937   20.9042 H   0  0  0  0  0  0
  -31.6465  -19.5169   21.5468 H   0  0  0  0  0  0
  -30.1866  -19.6161   22.4939 H   0  0  0  0  0  0
  -30.3276  -16.9459   22.7455 H   0  0  0  0  0  0
  -31.6948  -16.8236   21.6986 H   0  0  0  0  0  0
  -29.7446  -20.4730   19.7359 H   0  0  0  0  0  0
  -29.1118  -15.3221   21.5170 H   0  0  0  0  0  0
  1 25  1  0  0  0
  1 30  2  0  0  0
  1 87  1  0  0  0
  2  3  1  0  0  0
  2 25  1  0  0  0
  2 88  1  0  0  0
  2 89  1  0  0  0
  3  4  1  0  0  0
  3 90  1  0  0  0
  3 91  1  0  0  0
  4  5  1  0  0  0
  4 92  1  0  0  0
  4 93  1  0  0  0
  5  6  1  0  0  0
  5 26  1  0  0  0
  5 94  1  0  0  0
  6 25  1  0  0  0
  6 95  1  0  0  0
  6 96  1  0  0  0
  7  8  2  0  0  0
  7 26  1  0  0  0
  7 29  1  0  0  0
  8  9  1  0  0  0
  8 22  1  0  0  0
  9 10  1  0  0  0
  9 27  2  0  0  0
 10 11  2  0  0  0
 10 15  1  0  0  0
 11 12  1  0  0  0
 11 97  1  0  0  0
 12 13  2  0  0  0
 12 98  1  0  0  0
 13 14  1  0  0  0
 13 31  1  0  0  0
 14 15  2  0  0  0
 14 99  1  0  0  0
 15100  1  0  0  0
 16 17  2  0  0  0
 16 21  1  0  0  0
 16 31  1  0  0  0
 17 18  1  0  0  0
 17101  1  0  0  0
 18 19  2  0  0  0
 18102  1  0  0  0
 19 20  1  0  0  0
 19 24  1  0  0  0
 20 21  2  0  0  0
 20103  1  0  0  0
 21 23  1  0  0  0
 22 28  1  0  0  0
 22 32  2  0  0  0
 26 27  1  0  0  0
 28104  1  0  0  0
 28105  1  0  0  0
 29106  1  0  0  0
 29107  1  0  0  0
 33 34  1  0  0  0
 33 66  1  0  0  0
 33 70  2  0  0  0
 34 36  1  0  0  0
 34 59  1  0  0  0
 34108  1  0  0  0
 35 44  2  0  0  0
 35 45  1  0  0  0
 35 68  1  0  0  0
 36 56  1  0  0  0
 36109  1  0  0  0
 37 39  1  0  0  0
 37 47  1  0  0  0
 37 66  1  0  0  0
 37110  1  0  0  0
 38 43  2  0  0  0
 38 46  1  0  0  0
 38 47  1  0  0  0
 39 64  1  0  0  0
 39 67  2  0  0  0
 40 52  1  0  0  0
 40 53  2  0  0  0
 40 58  1  0  0  0
 41111  1  0  0  0
 41112  1  0  0  0
 41113  1  0  0  0
 41 48  1  0  0  0
 42 43  1  0  0  0
 42 66  1  0  0  0
 42114  1  0  0  0
 42115  1  0  0  0
 43 44  1  0  0  0
 44116  1  0  0  0
 45 46  2  0  0  0
 45117  1  0  0  0
 46118  1  0  0  0
 47119  1  0  0  0
 47120  1  0  0  0
 48 56  1  0  0  0
 48 65  1  0  0  0
 48121  1  0  0  0
 49 50  1  0  0  0
 49 53  1  0  0  0
 49 64  1  0  0  0
 49122  1  0  0  0
 50 51  1  0  0  0
 50123  1  0  0  0
 50124  1  0  0  0
 51 52  1  0  0  0
 51125  1  0  0  0
 51126  1  0  0  0
 52127  1  0  0  0
 52128  1  0  0  0
 53 54  1  0  0  0
 54 55  2  0  0  0
 54129  1  0  0  0
 55 57  1  0  0  0
 55130  1  0  0  0
 56 69  2  0  0  0
 57 58  2  0  0  0
 57131  1  0  0  0
 58132  1  0  0  0
 59 60  1  0  0  0
 59 61  1  0  0  0
 59 62  1  0  0  0
 60133  1  0  0  0
 60134  1  0  0  0
 60135  1  0  0  0
 61136  1  0  0  0
 61137  1  0  0  0
 61138  1  0  0  0
 62139  1  0  0  0
 62140  1  0  0  0
 62141  1  0  0  0
 63 65  1  0  0  0
 63142  1  0  0  0
 63143  1  0  0  0
 63144  1  0  0  0
 64145  1  0  0  0
 65146  1  0  0  0
 68 80  1  0  0  0
 71 72  2  0  0  0
 71 73  1  0  0  0
 71 77  1  0  0  0
 72 80  1  0  0  0
 72 84  1  0  0  0
 73 85  2  0  0  0
 73 86  1  0  0  0
 74 78  1  0  0  0
 74 84  2  0  0  0
 74 85  1  0  0  0
 75 76  1  0  0  0
 75 77  1  0  0  0
 75147  1  0  0  0
 75148  1  0  0  0
 76 77  1  0  0  0
 76149  1  0  0  0
 76150  1  0  0  0
 77 79  1  0  0  0
 78151  1  0  0  0
 78152  1  0  0  0
 78153  1  0  0  0
 79154  1  0  0  0
 79155  1  0  0  0
 79156  1  0  0  0
 80157  1  0  0  0
 80158  1  0  0  0
 81 82  1  0  0  0
 81 83  1  0  0  0
 81159  1  0  0  0
 81160  1  0  0  0
 82 86  1  0  0  0
 82161  1  0  0  0
 82162  1  0  0  0
 83 87  1  0  0  0
 83163  1  0  0  0
 83164  1  0  0  0
 86165  1  0  0  0
 87166  1  0  0  0
M  ISO  4   1 100  68 101  80 101  87 100
M  END
> <chiral flag>
0

> <version>
0

> <s_m_source_file>
/data/baiqing/PycharmProjects/Reinvent-master-3.2/result/LINK_invent/BTK/process_docking_weight1_custom_sum_contain_oxygen_bond_distance_aromatic_linkinvent_7_9_3/rearranged_h_0193.sdf

> <i_m_source_file_index>
75

> <r_mmod_Potential_Energy-OPLS-2005>
-368.353057861328

> <r_mmod_Stretch_Energy-OPLS-2005>
55.2310905456543

> <r_mmod_Bend_Energy-OPLS-2005>
137.415603637695

> <r_mmod_Torsional_Energy-OPLS-2005>
273.716644287109

> <r_mmod_Improper_Torsional_Energy-OPLS-2005>
4.84588766098022

> <r_mmod_Van_der_Waal_Energy-OPLS-2005>
159.057723999023

> <r_mmod_Electrostatic_Energy-OPLS-2005>
-789.606872558594

> <r_mmod_Solvation_Energy-OPLS-2005>
-235.568771362305

> <b_mmod_Minimization_Converged-OPLS-2005>
0

> <r_mmod_RMS_Derivative-OPLS-2005>
6.58334875106812

$$$$
75
                    3D
 Structure written by MMmdl.
160169  0  0  1  0            999 V2000
  -30.7100  -14.4990   20.5622 C   0  0  0  0  0  0
  -30.4227  -12.3273   19.4180 C   0  0  0  0  0  0
  -29.4882  -12.4956   18.2025 C   0  0  0  0  0  0
  -28.0139  -12.3291   18.6223 C   0  0  0  0  0  0
  -27.6482  -13.1858   19.8610 C   0  0  2  0  0  0
  -28.6990  -13.0258   20.9849 C   0  0  0  0  0  0
  -25.2560  -13.8087   20.5684 C   0  0  0  0  0  0
  -24.1809  -13.0398   20.9207 C   0  0  0  0  0  0
  -24.6344  -11.6861   20.8767 C   0  0  0  0  0  0
  -23.9013  -10.4267   21.0426 C   0  0  0  0  0  0
  -24.3586   -9.4187   21.9192 C   0  0  0  0  0  0
  -23.6276   -8.2218   22.0753 C   0  0  0  0  0  0
  -22.4258   -8.0260   21.3544 C   0  0  0  0  0  0
  -21.9883   -9.0227   20.4646 C   0  0  0  0  0  0
  -22.7198  -10.2111   20.3062 C   0  0  0  0  0  0
  -21.6845   -6.0723   22.5280 C   0  0  0  0  0  0
  -21.4003   -6.5630   23.8213 C   0  0  0  0  0  0
  -21.3652   -5.6783   24.9176 C   0  0  0  0  0  0
  -21.6045   -4.3046   24.7226 C   0  0  0  0  0  0
  -21.8824   -3.8137   23.4349 C   0  0  0  0  0  0
  -21.9195   -4.6953   22.3404 C   0  0  0  0  0  0
  -22.7840  -13.5224   21.1859 C   0  0  0  0  0  0
  -22.1665   -4.2143   21.0981 F   0  0  0  0  0  0
  -21.5630   -3.4529   25.7739 F   0  0  0  0  0  0
  -30.0253  -13.3283   20.4197 N   0  0  0  0  0  0
  -26.2953  -12.9200   20.3334 N   0  0  0  0  0  0
  -25.9258  -11.6393   20.5783 N   0  0  0  0  0  0
  -22.0460  -12.8228   22.0409 N   0  0  0  0  0  0
  -25.4272  -15.1801   20.4060 N   0  0  0  0  0  0
  -31.8682  -14.6498   20.1633 O   0  0  0  0  0  0
  -21.6628   -6.8857   21.4240 O   0  0  0  0  0  0
  -22.3547  -14.5539   20.6705 O   0  0  0  0  0  0
  -24.6125  -31.8690   23.2102 C   0  0  0  0  0  0
  -25.9022  -32.4830   23.8398 C   0  0  1  0  0  0
  -27.2389  -27.4450   20.1032 C   0  0  0  0  0  0
  -25.5891  -33.8627   24.2334 N   0  0  0  0  0  0
  -23.4019  -30.4904   21.5495 C   0  0  2  0  0  0
  -24.8521  -28.9528   20.1197 C   0  0  0  0  0  0
  -22.7407  -29.4655   22.4988 C   0  0  0  0  0  0
  -18.0277  -28.1377   22.8491 C   0  0  0  0  0  0
  -24.1484  -36.7306   23.2637 C   0  0  0  0  0  0
  -25.9288  -30.8363   21.3634 C   0  0  0  0  0  0
  -26.0095  -29.4679   20.7190 C   0  0  0  0  0  0
  -27.2079  -28.7186   20.7138 C   0  0  0  0  0  0
  -26.0710  -26.9393   19.4997 C   0  0  0  0  0  0
  -24.8759  -27.6852   19.5096 C   0  0  0  0  0  0
  -23.6130  -29.8191   20.1654 C   0  0  0  0  0  0
  -25.4105  -36.3115   24.0345 C   0  0  1  0  0  0
  -20.5866  -28.3658   23.1328 C   0  0  2  0  0  0
  -20.6764  -26.9392   22.5434 C   0  0  0  0  0  0
  -19.5754  -26.6384   21.5217 C   0  0  0  0  0  0
  -18.1924  -26.7931   22.1610 C   0  0  0  0  0  0
  -19.1525  -28.8833   23.2913 C   0  0  0  0  0  0
  -18.9453  -30.1437   23.8926 C   0  0  0  0  0  0
  -17.6456  -30.6578   24.0571 C   0  0  0  0  0  0
  -25.9030  -34.9481   23.5136 C   0  0  0  0  0  0
  -16.5348  -29.9086   23.6323 C   0  0  0  0  0  0
  -16.7267  -28.6504   23.0342 C   0  0  0  0  0  0
  -26.4457  -31.6602   25.0716 C   0  0  0  0  0  0
  -25.3735  -31.3732   26.1481 C   0  0  0  0  0  0
  -27.0255  -30.3037   24.6066 C   0  0  0  0  0  0
  -27.6060  -32.4299   25.7461 C   0  0  0  0  0  0
  -27.5584  -37.1809   24.8461 C   0  0  0  0  0  0
  -21.4136  -29.3022   22.3727 N   0  0  0  0  0  0
  -26.4292  -37.3798   23.9411 N   0  0  0  0  0  0
  -24.6656  -31.0796   22.0999 N   0  0  0  0  0  0
  -23.4184  -28.8204   23.3031 O   0  0  0  0  0  0
  -28.3890  -26.6938   20.0576 O   0  0  0  0  0  0
  -26.5587  -34.8933   22.4693 O   0  0  0  0  0  0
  -23.5319  -32.1435   23.7501 O   0  0  0  0  0  0
  -29.9252  -22.9847   19.6432 C   0  0  0  0  0  0
  -28.4185  -23.3132   21.1956 C   0  0  0  0  0  0
  -29.0251  -22.2923   20.5056 C   0  0  0  0  0  0
  -30.6949  -17.7843   22.0664 C   0  0  0  0  0  0
  -29.4414  -17.7760   19.9372 C   0  0  0  0  0  0
  -30.3856  -16.2754   22.2709 C   0  0  0  0  0  0
  -29.0834  -16.2919   20.1493 C   0  0  0  0  0  0
  -29.5901  -18.5205   21.2765 C   0  0  0  0  0  0
  -28.7490  -20.7943   20.5697 C   0  0  0  0  0  0
  -28.6184  -25.8779   21.1789 C   0  0  0  0  0  0
  -29.8862  -24.3031   19.8005 N   0  0  0  0  0  0
  -28.9383  -24.5151   20.7433 N   0  0  0  0  0  0
  -30.0045  -15.5590   21.0385 N   0  0  0  0  0  0
  -29.8715  -19.9798   21.1119 N   0  3  0  0  0  0
  -31.4646  -12.4347   19.1102 H   0  0  0  0  0  0
  -30.3359  -11.3231   19.8358 H   0  0  0  0  0  0
  -29.7406  -11.7686   17.4297 H   0  0  0  0  0  0
  -29.6348  -13.4802   17.7548 H   0  0  0  0  0  0
  -27.8471  -11.2736   18.8402 H   0  0  0  0  0  0
  -27.3544  -12.5734   17.7885 H   0  0  0  0  0  0
  -27.6508  -14.2106   19.5120 H   0  0  0  0  0  0
  -28.6904  -12.0066   21.3732 H   0  0  0  0  0  0
  -28.4563  -13.6677   21.8334 H   0  0  0  0  0  0
  -25.2732   -9.5670   22.4764 H   0  0  0  0  0  0
  -23.9995   -7.4604   22.7464 H   0  0  0  0  0  0
  -21.0815   -8.8734   19.8954 H   0  0  0  0  0  0
  -22.3652  -10.9649   19.6171 H   0  0  0  0  0  0
  -21.1983   -7.6139   23.9713 H   0  0  0  0  0  0
  -21.1466   -6.0511   25.9077 H   0  0  0  0  0  0
  -22.0610   -2.7600   23.2845 H   0  0  0  0  0  0
  -22.4053  -11.9879   22.4799 H   0  0  0  0  0  0
  -21.1080  -13.1265   22.2598 H   0  0  0  0  0  0
  -24.6582  -15.8327   20.5123 H   0  0  0  0  0  0
  -26.2737  -15.6161   20.0662 H   0  0  0  0  0  0
  -26.7093  -32.5554   23.1169 H   0  0  0  0  0  0
  -25.0071  -33.9789   25.0499 H   0  0  0  0  0  0
  -22.6901  -31.3065   21.4082 H   0  0  0  0  0  0
  -23.3752  -35.9630   23.3305 H   0  0  0  0  0  0
  -24.3582  -36.8906   22.2049 H   0  0  0  0  0  0
  -23.7223  -37.6513   23.6634 H   0  0  0  0  0  0
  -26.0364  -31.5987   20.5905 H   0  0  0  0  0  0
  -26.8189  -30.8962   21.9777 H   0  0  0  0  0  0
  -28.1041  -29.1143   21.1714 H   0  0  0  0  0  0
  -26.0905  -25.9688   19.0238 H   0  0  0  0  0  0
  -23.9865  -27.2825   19.0445 H   0  0  0  0  0  0
  -23.7228  -30.5927   19.4044 H   0  0  0  0  0  0
  -22.7380  -29.2375   19.8688 H   0  0  0  0  0  0
  -25.1287  -36.1982   25.0839 H   0  0  0  0  0  0
  -20.9966  -28.3220   24.1446 H   0  0  0  0  0  0
  -20.5646  -26.2267   23.3619 H   0  0  0  0  0  0
  -21.6638  -26.7422   22.1239 H   0  0  0  0  0  0
  -19.6915  -25.6301   21.1229 H   0  0  0  0  0  0
  -19.6713  -27.3210   20.6764 H   0  0  0  0  0  0
  -17.4211  -26.6704   21.3991 H   0  0  0  0  0  0
  -18.0305  -26.0062   22.8987 H   0  0  0  0  0  0
  -19.7929  -30.7244   24.2307 H   0  0  0  0  0  0
  -17.5014  -31.6260   24.5174 H   0  0  0  0  0  0
  -15.5350  -30.2997   23.7636 H   0  0  0  0  0  0
  -15.8666  -28.0838   22.7033 H   0  0  0  0  0  0
  -24.5908  -30.7062   25.7846 H   0  0  0  0  0  0
  -24.8921  -32.2897   26.4905 H   0  0  0  0  0  0
  -25.8103  -30.8936   27.0249 H   0  0  0  0  0  0
  -26.2774  -29.6830   24.1119 H   0  0  0  0  0  0
  -27.4026  -29.7244   25.4502 H   0  0  0  0  0  0
  -27.8618  -30.4350   23.9196 H   0  0  0  0  0  0
  -27.2715  -33.3608   26.2052 H   0  0  0  0  0  0
  -28.3862  -32.6837   25.0271 H   0  0  0  0  0  0
  -28.0729  -31.8404   26.5360 H   0  0  0  0  0  0
  -28.2617  -38.0091   24.7490 H   0  0  0  0  0  0
  -28.1064  -36.2626   24.6296 H   0  0  0  0  0  0
  -27.2313  -37.1472   25.8868 H   0  0  0  0  0  0
  -20.9288  -29.8740   21.6952 H   0  0  0  0  0  0
  -26.0187  -38.2878   24.1415 H   0  0  0  0  0  0
  -30.5986  -22.5703   18.9057 H   0  0  0  0  0  0
  -27.6485  -23.2869   21.9552 H   0  0  0  0  0  0
  -31.6487  -17.8839   21.5458 H   0  0  0  0  0  0
  -30.8328  -18.2535   23.0418 H   0  0  0  0  0  0
  -28.6619  -18.2249   19.3222 H   0  0  0  0  0  0
  -30.3655  -17.8504   19.3614 H   0  0  0  0  0  0
  -29.5588  -16.1693   22.9748 H   0  0  0  0  0  0
  -31.2417  -15.7914   22.7461 H   0  0  0  0  0  0
  -29.0436  -15.8250   19.1632 H   0  0  0  0  0  0
  -28.0836  -16.2226   20.5772 H   0  0  0  0  0  0
  -28.6576  -18.4285   21.8373 H   0  0  0  0  0  0
  -28.4979  -20.4331   19.5729 H   0  0  0  0  0  0
  -27.8639  -20.6023   21.1783 H   0  0  0  0  0  0
  -29.4657  -26.2685   21.7444 H   0  0  0  0  0  0
  -27.7546  -25.8341   21.8469 H   0  0  0  0  0  0
  -30.6824  -20.0991   20.5278 H   0  0  0  0  0  0
  -30.0952  -20.3539   22.0199 H   0  0  0  0  0  0
  1 25  1  0  0  0
  1 30  2  0  0  0
  1 83  1  0  0  0
  2  3  1  0  0  0
  2 25  1  0  0  0
  2 85  1  0  0  0
  2 86  1  0  0  0
  3  4  1  0  0  0
  3 87  1  0  0  0
  3 88  1  0  0  0
  4  5  1  0  0  0
  4 89  1  0  0  0
  4 90  1  0  0  0
  5  6  1  0  0  0
  5 26  1  0  0  0
  5 91  1  0  0  0
  6 25  1  0  0  0
  6 92  1  0  0  0
  6 93  1  0  0  0
  7  8  2  0  0  0
  7 26  1  0  0  0
  7 29  1  0  0  0
  8  9  1  0  0  0
  8 22  1  0  0  0
  9 10  1  0  0  0
  9 27  2  0  0  0
 10 11  2  0  0  0
 10 15  1  0  0  0
 11 12  1  0  0  0
 11 94  1  0  0  0
 12 13  2  0  0  0
 12 95  1  0  0  0
 13 14  1  0  0  0
 13 31  1  0  0  0
 14 15  2  0  0  0
 14 96  1  0  0  0
 15 97  1  0  0  0
 16 17  2  0  0  0
 16 21  1  0  0  0
 16 31  1  0  0  0
 17 18  1  0  0  0
 17 98  1  0  0  0
 18 19  2  0  0  0
 18 99  1  0  0  0
 19 20  1  0  0  0
 19 24  1  0  0  0
 20 21  2  0  0  0
 20100  1  0  0  0
 21 23  1  0  0  0
 22 28  1  0  0  0
 22 32  2  0  0  0
 26 27  1  0  0  0
 28101  1  0  0  0
 28102  1  0  0  0
 29103  1  0  0  0
 29104  1  0  0  0
 33 34  1  0  0  0
 33 66  1  0  0  0
 33 70  2  0  0  0
 34 36  1  0  0  0
 34 59  1  0  0  0
 34105  1  0  0  0
 35 44  2  0  0  0
 35 45  1  0  0  0
 35 68  1  0  0  0
 36 56  1  0  0  0
 36106  1  0  0  0
 37 39  1  0  0  0
 37 47  1  0  0  0
 37 66  1  0  0  0
 37107  1  0  0  0
 38 43  2  0  0  0
 38 46  1  0  0  0
 38 47  1  0  0  0
 39 64  1  0  0  0
 39 67  2  0  0  0
 40 52  1  0  0  0
 40 53  2  0  0  0
 40 58  1  0  0  0
 41108  1  0  0  0
 41109  1  0  0  0
 41110  1  0  0  0
 41 48  1  0  0  0
 42 43  1  0  0  0
 42 66  1  0  0  0
 42111  1  0  0  0
 42112  1  0  0  0
 43 44  1  0  0  0
 44113  1  0  0  0
 45 46  2  0  0  0
 45114  1  0  0  0
 46115  1  0  0  0
 47116  1  0  0  0
 47117  1  0  0  0
 48 56  1  0  0  0
 48 65  1  0  0  0
 48118  1  0  0  0
 49 50  1  0  0  0
 49 53  1  0  0  0
 49 64  1  0  0  0
 49119  1  0  0  0
 50 51  1  0  0  0
 50120  1  0  0  0
 50121  1  0  0  0
 51 52  1  0  0  0
 51122  1  0  0  0
 51123  1  0  0  0
 52124  1  0  0  0
 52125  1  0  0  0
 53 54  1  0  0  0
 54 55  2  0  0  0
 54126  1  0  0  0
 55 57  1  0  0  0
 55127  1  0  0  0
 56 69  2  0  0  0
 57 58  2  0  0  0
 57128  1  0  0  0
 58129  1  0  0  0
 59 60  1  0  0  0
 59 61  1  0  0  0
 59 62  1  0  0  0
 60130  1  0  0  0
 60131  1  0  0  0
 60132  1  0  0  0
 61133  1  0  0  0
 61134  1  0  0  0
 61135  1  0  0  0
 62136  1  0  0  0
 62137  1  0  0  0
 62138  1  0  0  0
 63 65  1  0  0  0
 63139  1  0  0  0
 63140  1  0  0  0
 63141  1  0  0  0
 64142  1  0  0  0
 65143  1  0  0  0
 68 80  1  0  0  0
 71 73  1  0  0  0
 71 81  2  0  0  0
 71144  1  0  0  0
 72 73  2  0  0  0
 72 82  1  0  0  0
 72145  1  0  0  0
 73 79  1  0  0  0
 74 76  1  0  0  0
 74 78  1  0  0  0
 74146  1  0  0  0
 74147  1  0  0  0
 75 77  1  0  0  0
 75 78  1  0  0  0
 75148  1  0  0  0
 75149  1  0  0  0
 76 83  1  0  0  0
 76150  1  0  0  0
 76151  1  0  0  0
 77 83  1  0  0  0
 77152  1  0  0  0
 77153  1  0  0  0
 78 84  1  0  0  0
 78154  1  0  0  0
 79 84  1  0  0  0
 79155  1  0  0  0
 79156  1  0  0  0
 80 82  1  0  0  0
 80157  1  0  0  0
 80158  1  0  0  0
 81 82  1  0  0  0
 84159  1  0  0  0
 84160  1  0  0  0
M  CHG  1  84   1
M  ISO  4   1 100  68 101  80 101  83 100
M  END
> <chiral flag>
0

> <version>
0

> <s_m_source_file>
/data/baiqing/PycharmProjects/Reinvent-master-3.2/result/LINK_invent/BTK/process_docking_weight1_custom_sum_contain_oxygen_bond_distance_aromatic_linkinvent_7_9_3/rearranged_h_0193.sdf

> <i_m_source_file_index>
76

> <r_mmod_Potential_Energy-OPLS-2005>
-21.2122821807861

> <r_mmod_Stretch_Energy-OPLS-2005>
37.5860023498535

> <r_mmod_Bend_Energy-OPLS-2005>
94.8842926025391

> <r_mmod_Torsional_Energy-OPLS-2005>
356.350555419922

> <r_mmod_Improper_Torsional_Energy-OPLS-2005>
4.12661695480347

> <r_mmod_Van_der_Waal_Energy-OPLS-2005>
124.89323425293

> <r_mmod_Electrostatic_Energy-OPLS-2005>
-161.541595458984

> <r_mmod_Solvation_Energy-OPLS-2005>
-493.346069335938

> <b_mmod_Minimization_Converged-OPLS-2005>
0

> <r_mmod_RMS_Derivative-OPLS-2005>
0.698668539524078

$$$$
76
                    3D
 Structure written by MMmdl.
159169  0  0  1  0            999 V2000
  -30.6314  -14.7493   20.4321 C   0  0  0  0  0  0
  -30.4359  -12.4509   19.4663 C   0  0  0  0  0  0
  -29.5097  -12.5023   18.2311 C   0  0  0  0  0  0
  -28.0353  -12.3373   18.6498 C   0  0  0  0  0  0
  -27.6478  -13.2343   19.8565 C   0  0  2  0  0  0
  -28.7032  -13.1788   20.9867 C   0  0  0  0  0  0
  -25.2551  -13.8221   20.5768 C   0  0  0  0  0  0
  -24.1845  -13.0452   20.9246 C   0  0  0  0  0  0
  -24.6429  -11.6923   20.8776 C   0  0  0  0  0  0
  -23.9114  -10.4288   21.0411 C   0  0  0  0  0  0
  -24.3673   -9.4219   21.9197 C   0  0  0  0  0  0
  -23.6318   -8.2264   22.0742 C   0  0  0  0  0  0
  -22.4285   -8.0307   21.3554 C   0  0  0  0  0  0
  -21.9942   -9.0264   20.4653 C   0  0  0  0  0  0
  -22.7281  -10.2130   20.3067 C   0  0  0  0  0  0
  -21.6860   -6.0756   22.5290 C   0  0  0  0  0  0
  -21.4014   -6.5654   23.8233 C   0  0  0  0  0  0
  -21.3650   -5.6805   24.9193 C   0  0  0  0  0  0
  -21.6039   -4.3064   24.7261 C   0  0  0  0  0  0
  -21.8810   -3.8163   23.4377 C   0  0  0  0  0  0
  -21.9186   -4.6977   22.3432 C   0  0  0  0  0  0
  -22.7842  -13.5203   21.1898 C   0  0  0  0  0  0
  -22.1656   -4.2169   21.1000 F   0  0  0  0  0  0
  -21.5635   -3.4536   25.7761 F   0  0  0  0  0  0
  -29.9987  -13.5247   20.3874 N   0  0  0  0  0  0
  -26.3002  -12.9434   20.3380 N   0  0  0  0  0  0
  -25.9376  -11.6575   20.5824 N   0  0  0  0  0  0
  -22.0509  -12.8157   22.0432 N   0  0  0  0  0  0
  -25.4206  -15.1969   20.4182 N   0  0  0  0  0  0
  -31.8217  -14.8389   20.1241 O   0  0  0  0  0  0
  -21.6662   -6.8889   21.4248 O   0  0  0  0  0  0
  -22.3490  -14.5496   20.6736 O   0  0  0  0  0  0
  -24.6352  -31.8546   23.1970 C   0  0  0  0  0  0
  -25.9166  -32.4748   23.8326 C   0  0  1  0  0  0
  -27.2156  -27.2399   20.1119 C   0  0  0  0  0  0
  -25.5941  -33.8557   24.2236 N   0  0  0  0  0  0
  -23.4313  -30.4786   21.5436 C   0  0  2  0  0  0
  -24.8702  -28.9194   20.1125 C   0  0  0  0  0  0
  -22.7501  -29.4626   22.4921 C   0  0  0  0  0  0
  -18.0298  -28.1377   22.8510 C   0  0  0  0  0  0
  -24.1488  -36.7269   23.2642 C   0  0  0  0  0  0
  -25.9797  -30.7592   21.3801 C   0  0  0  0  0  0
  -26.0457  -29.3806   20.7186 C   0  0  0  0  0  0
  -27.2167  -28.5545   20.7044 C   0  0  0  0  0  0
  -26.0102  -26.8540   19.4812 C   0  0  0  0  0  0
  -24.8585  -27.6624   19.4885 C   0  0  0  0  0  0
  -23.6446  -29.8111   20.1608 C   0  0  0  0  0  0
  -25.4121  -36.3075   24.0328 C   0  0  1  0  0  0
  -20.5901  -28.3700   23.1271 C   0  0  2  0  0  0
  -20.6776  -26.9404   22.5420 C   0  0  0  0  0  0
  -19.5744  -26.6369   21.5237 C   0  0  0  0  0  0
  -18.1922  -26.7929   22.1639 C   0  0  0  0  0  0
  -19.1550  -28.8865   23.2891 C   0  0  0  0  0  0
  -18.9470  -30.1465   23.8911 C   0  0  0  0  0  0
  -17.6456  -30.6579   24.0565 C   0  0  0  0  0  0
  -25.9071  -34.9446   23.5092 C   0  0  0  0  0  0
  -16.5359  -29.9061   23.6320 C   0  0  0  0  0  0
  -16.7277  -28.6475   23.0363 C   0  0  0  0  0  0
  -26.4508  -31.6598   25.0739 C   0  0  0  0  0  0
  -25.3708  -31.3768   26.1443 C   0  0  0  0  0  0
  -27.0354  -30.2995   24.6281 C   0  0  0  0  0  0
  -27.6037  -32.4365   25.7519 C   0  0  0  0  0  0
  -27.5583  -37.1787   24.8459 C   0  0  0  0  0  0
  -21.4205  -29.3081   22.3683 N   0  0  0  0  0  0
  -26.4289  -37.3776   23.9419 N   0  0  0  0  0  0
  -24.7024  -31.0482   22.0961 N   0  0  0  0  0  0
  -23.4195  -28.8178   23.3032 O   0  0  0  0  0  0
  -28.3549  -26.3901   20.1264 O   0  0  0  0  0  0
  -26.5632  -34.8929   22.4661 O   0  0  0  0  0  0
  -23.5498  -32.1383   23.7246 O   0  0  0  0  0  0
  -29.2159  -22.9712   20.9914 C   0  0  0  0  0  0
  -28.5669  -22.1349   20.0440 C   0  0  0  0  0  0
  -27.7669  -22.9159   19.1464 C   0  0  0  0  0  0
  -28.3185  -24.9782   20.1493 C   0  0  0  0  0  0
  -25.3847  -22.5341   18.1225 C   0  0  0  0  0  0
  -25.9679  -21.1536   18.2179 C   0  0  0  0  0  0
  -29.4937  -18.4390   21.3511 C   0  0  0  0  0  0
  -29.6510  -18.2687   19.3623 C   0  0  0  0  0  0
  -26.8914  -22.3476   18.0519 C   0  0  0  0  0  0
  -30.2532  -17.3794   20.4920 C   0  0  2  0  0  0
  -28.5154  -20.5111   20.0937 C   0  0  0  0  0  0
  -29.1104  -24.3422   21.0250 N   0  0  0  0  0  0
  -27.6895  -24.2853   19.1944 N   0  0  0  0  0  0
  -29.8654  -15.8922   20.6028 N   0  0  0  0  0  0
  -29.6573  -19.4747   20.2717 N   0  3  1  0  0  0
  -31.4764  -12.5600   19.1610 H   0  0  0  0  0  0
  -30.3690  -11.4790   19.9570 H   0  0  0  0  0  0
  -29.7868  -11.7277   17.5139 H   0  0  0  0  0  0
  -29.6397  -13.4564   17.7148 H   0  0  0  0  0  0
  -27.8830  -11.2875   18.9065 H   0  0  0  0  0  0
  -27.3786  -12.5364   17.8025 H   0  0  0  0  0  0
  -27.6372  -14.2570   19.4795 H   0  0  0  0  0  0
  -28.7419  -12.1873   21.4402 H   0  0  0  0  0  0
  -28.4491  -13.8737   21.7890 H   0  0  0  0  0  0
  -25.2830   -9.5682   22.4784 H   0  0  0  0  0  0
  -24.0023   -7.4651   22.7451 H   0  0  0  0  0  0
  -21.0886   -8.8795   19.8950 H   0  0  0  0  0  0
  -22.3772  -10.9671   19.6175 H   0  0  0  0  0  0
  -21.2005   -7.6160   23.9734 H   0  0  0  0  0  0
  -21.1471   -6.0552   25.9097 H   0  0  0  0  0  0
  -22.0590   -2.7626   23.2898 H   0  0  0  0  0  0
  -22.4142  -11.9809   22.4786 H   0  0  0  0  0  0
  -21.1119  -13.1159   22.2614 H   0  0  0  0  0  0
  -24.6532  -15.8466   20.5547 H   0  0  0  0  0  0
  -26.2553  -15.6461   20.0687 H   0  0  0  0  0  0
  -26.7251  -32.5366   23.1072 H   0  0  0  0  0  0
  -25.0065  -33.9674   25.0370 H   0  0  0  0  0  0
  -22.7316  -31.3035   21.3990 H   0  0  0  0  0  0
  -23.3770  -35.9582   23.3298 H   0  0  0  0  0  0
  -24.3581  -36.8893   22.2054 H   0  0  0  0  0  0
  -23.7208  -37.6454   23.6680 H   0  0  0  0  0  0
  -26.1304  -31.5232   20.6173 H   0  0  0  0  0  0
  -26.8513  -30.7973   22.0237 H   0  0  0  0  0  0
  -28.1242  -28.9120   21.1742 H   0  0  0  0  0  0
  -25.9216  -25.9071   18.9733 H   0  0  0  0  0  0
  -23.9586  -27.3028   19.0082 H   0  0  0  0  0  0
  -23.7670  -30.5863   19.4044 H   0  0  0  0  0  0
  -22.7593  -29.2480   19.8587 H   0  0  0  0  0  0
  -25.1318  -36.1915   25.0818 H   0  0  0  0  0  0
  -21.0018  -28.3281   24.1377 H   0  0  0  0  0  0
  -20.5695  -26.2311   23.3630 H   0  0  0  0  0  0
  -21.6635  -26.7415   22.1215 H   0  0  0  0  0  0
  -19.6891  -25.6289   21.1258 H   0  0  0  0  0  0
  -19.6663  -27.3193   20.6785 H   0  0  0  0  0  0
  -17.4197  -26.6723   21.4024 H   0  0  0  0  0  0
  -18.0284  -26.0049   22.9015 H   0  0  0  0  0  0
  -19.7948  -30.7300   24.2258 H   0  0  0  0  0  0
  -17.5002  -31.6259   24.5163 H   0  0  0  0  0  0
  -15.5359  -30.2962   23.7640 H   0  0  0  0  0  0
  -15.8679  -28.0790   22.7063 H   0  0  0  0  0  0
  -24.5858  -30.7156   25.7765 H   0  0  0  0  0  0
  -24.8929  -32.2938   26.4890 H   0  0  0  0  0  0
  -25.7981  -30.8906   27.0217 H   0  0  0  0  0  0
  -26.2952  -29.6731   24.1279 H   0  0  0  0  0  0
  -27.3960  -29.7291   25.4858 H   0  0  0  0  0  0
  -27.8879  -30.4249   23.9599 H   0  0  0  0  0  0
  -27.2620  -33.3667   26.2080 H   0  0  0  0  0  0
  -28.3847  -32.6913   25.0347 H   0  0  0  0  0  0
  -28.0719  -31.8504   26.5441 H   0  0  0  0  0  0
  -28.2591  -38.0092   24.7534 H   0  0  0  0  0  0
  -28.1082  -36.2616   24.6263 H   0  0  0  0  0  0
  -27.2300  -37.1422   25.8859 H   0  0  0  0  0  0
  -20.9387  -29.8760   21.6852 H   0  0  0  0  0  0
  -26.0163  -38.2854   24.1414 H   0  0  0  0  0  0
  -29.8217  -22.5339   21.7714 H   0  0  0  0  0  0
  -24.9555  -22.9457   19.0342 H   0  0  0  0  0  0
  -24.8370  -22.7584   17.2099 H   0  0  0  0  0  0
  -25.8413  -20.5005   17.3547 H   0  0  0  0  0  0
  -25.9136  -20.6586   19.1847 H   0  0  0  0  0  0
  -30.0013  -18.7088   22.2760 H   0  0  0  0  0  0
  -28.4528  -18.1743   21.5484 H   0  0  0  0  0  0
  -28.6495  -17.9562   19.0604 H   0  0  0  0  0  0
  -30.2974  -18.3856   18.4905 H   0  0  0  0  0  0
  -27.3632  -22.4780   17.0800 H   0  0  0  0  0  0
  -31.3343  -17.5305   20.5565 H   0  0  0  0  0  0
  -28.1025  -20.2159   19.1352 H   0  0  0  0  0  0
  -27.7466  -20.2584   20.8246 H   0  0  0  0  0  0
  -28.8941  -15.7009   20.7945 H   0  0  0  0  0  0
  -30.5774  -19.8872   20.2902 H   0  0  0  0  0  0
  1 25  1  0  0  0
  1 30  2  0  0  0
  1 84  1  0  0  0
  2  3  1  0  0  0
  2 25  1  0  0  0
  2 86  1  0  0  0
  2 87  1  0  0  0
  3  4  1  0  0  0
  3 88  1  0  0  0
  3 89  1  0  0  0
  4  5  1  0  0  0
  4 90  1  0  0  0
  4 91  1  0  0  0
  5  6  1  0  0  0
  5 26  1  0  0  0
  5 92  1  0  0  0
  6 25  1  0  0  0
  6 93  1  0  0  0
  6 94  1  0  0  0
  7  8  2  0  0  0
  7 26  1  0  0  0
  7 29  1  0  0  0
  8  9  1  0  0  0
  8 22  1  0  0  0
  9 10  1  0  0  0
  9 27  2  0  0  0
 10 11  2  0  0  0
 10 15  1  0  0  0
 11 12  1  0  0  0
 11 95  1  0  0  0
 12 13  2  0  0  0
 12 96  1  0  0  0
 13 14  1  0  0  0
 13 31  1  0  0  0
 14 15  2  0  0  0
 14 97  1  0  0  0
 15 98  1  0  0  0
 16 17  2  0  0  0
 16 21  1  0  0  0
 16 31  1  0  0  0
 17 18  1  0  0  0
 17 99  1  0  0  0
 18 19  2  0  0  0
 18100  1  0  0  0
 19 20  1  0  0  0
 19 24  1  0  0  0
 20 21  2  0  0  0
 20101  1  0  0  0
 21 23  1  0  0  0
 22 28  1  0  0  0
 22 32  2  0  0  0
 26 27  1  0  0  0
 28102  1  0  0  0
 28103  1  0  0  0
 29104  1  0  0  0
 29105  1  0  0  0
 33 34  1  0  0  0
 33 66  1  0  0  0
 33 70  2  0  0  0
 34 36  1  0  0  0
 34 59  1  0  0  0
 34106  1  0  0  0
 35 44  2  0  0  0
 35 45  1  0  0  0
 35 68  1  0  0  0
 36 56  1  0  0  0
 36107  1  0  0  0
 37 39  1  0  0  0
 37 47  1  0  0  0
 37 66  1  0  0  0
 37108  1  0  0  0
 38 43  2  0  0  0
 38 46  1  0  0  0
 38 47  1  0  0  0
 39 64  1  0  0  0
 39 67  2  0  0  0
 40 52  1  0  0  0
 40 53  2  0  0  0
 40 58  1  0  0  0
 41109  1  0  0  0
 41110  1  0  0  0
 41111  1  0  0  0
 41 48  1  0  0  0
 42 43  1  0  0  0
 42 66  1  0  0  0
 42112  1  0  0  0
 42113  1  0  0  0
 43 44  1  0  0  0
 44114  1  0  0  0
 45 46  2  0  0  0
 45115  1  0  0  0
 46116  1  0  0  0
 47117  1  0  0  0
 47118  1  0  0  0
 48 56  1  0  0  0
 48 65  1  0  0  0
 48119  1  0  0  0
 49 50  1  0  0  0
 49 53  1  0  0  0
 49 64  1  0  0  0
 49120  1  0  0  0
 50 51  1  0  0  0
 50121  1  0  0  0
 50122  1  0  0  0
 51 52  1  0  0  0
 51123  1  0  0  0
 51124  1  0  0  0
 52125  1  0  0  0
 52126  1  0  0  0
 53 54  1  0  0  0
 54 55  2  0  0  0
 54127  1  0  0  0
 55 57  1  0  0  0
 55128  1  0  0  0
 56 69  2  0  0  0
 57 58  2  0  0  0
 57129  1  0  0  0
 58130  1  0  0  0
 59 60  1  0  0  0
 59 61  1  0  0  0
 59 62  1  0  0  0
 60131  1  0  0  0
 60132  1  0  0  0
 60133  1  0  0  0
 61134  1  0  0  0
 61135  1  0  0  0
 61136  1  0  0  0
 62137  1  0  0  0
 62138  1  0  0  0
 62139  1  0  0  0
 63 65  1  0  0  0
 63140  1  0  0  0
 63141  1  0  0  0
 63142  1  0  0  0
 64143  1  0  0  0
 65144  1  0  0  0
 68 74  1  0  0  0
 71 72  2  0  0  0
 71 82  1  0  0  0
 71145  1  0  0  0
 72 73  1  0  0  0
 72 81  1  0  0  0
 73 83  2  0  0  0
 73 79  1  0  0  0
 74 82  2  0  0  0
 74 83  1  0  0  0
 75 76  1  0  0  0
 75 79  1  0  0  0
 75146  1  0  0  0
 75147  1  0  0  0
 76 79  1  0  0  0
 76148  1  0  0  0
 76149  1  0  0  0
 77 80  1  0  0  0
 77 85  1  0  0  0
 77150  1  0  0  0
 77151  1  0  0  0
 78 80  1  0  0  0
 78 85  1  0  0  0
 78152  1  0  0  0
 78153  1  0  0  0
 79154  1  0  0  0
 80 84  1  0  0  0
 80155  1  0  0  0
 81156  1  0  0  0
 81157  1  0  0  0
 81 85  1  0  0  0
 84158  1  0  0  0
 85159  1  0  0  0
M  CHG  1  85   1
M  ISO  4   1 100  68 101  74 101  84 100
M  END
> <chiral flag>
0

> <version>
0

> <s_m_source_file>
/data/baiqing/PycharmProjects/Reinvent-master-3.2/result/LINK_invent/BTK/process_docking_weight1_custom_sum_contain_oxygen_bond_distance_aromatic_linkinvent_7_9_3/rearranged_h_0193.sdf

> <i_m_source_file_index>
77

> <r_mmod_Potential_Energy-OPLS-2005>
-284.019561767578

> <r_mmod_Stretch_Energy-OPLS-2005>
123.615135192871

> <r_mmod_Bend_Energy-OPLS-2005>
233.840103149414

> <r_mmod_Torsional_Energy-OPLS-2005>
276.927673339844

> <r_mmod_Improper_Torsional_Energy-OPLS-2005>
7.17731666564941

> <r_mmod_Van_der_Waal_Energy-OPLS-2005>
149.235305786133

> <r_mmod_Electrostatic_Energy-OPLS-2005>
-655.052062988281

> <r_mmod_Solvation_Energy-OPLS-2005>
-505.98876953125

> <b_mmod_Minimization_Converged-OPLS-2005>
0

> <r_mmod_RMS_Derivative-OPLS-2005>
4.36336660385132

$$$$
77
                    3D
 Structure written by MMmdl.
174183  0  0  1  0            999 V2000
  -30.6793  -14.4872   20.5625 C   0  0  0  0  0  0
  -30.4280  -12.3156   19.4244 C   0  0  0  0  0  0
  -29.4943  -12.5026   18.2093 C   0  0  0  0  0  0
  -28.0160  -12.3606   18.6243 C   0  0  0  0  0  0
  -27.6608  -13.2036   19.8787 C   0  0  2  0  0  0
  -28.7042  -12.9853   20.9989 C   0  0  0  0  0  0
  -25.2583  -13.8162   20.5712 C   0  0  0  0  0  0
  -24.1834  -13.0433   20.9201 C   0  0  0  0  0  0
  -24.6393  -11.6903   20.8755 C   0  0  0  0  0  0
  -23.9059  -10.4294   21.0415 C   0  0  0  0  0  0
  -24.3621   -9.4206   21.9189 C   0  0  0  0  0  0
  -23.6303   -8.2238   22.0762 C   0  0  0  0  0  0
  -22.4284   -8.0281   21.3548 C   0  0  0  0  0  0
  -21.9915   -9.0254   20.4653 C   0  0  0  0  0  0
  -22.7235  -10.2140   20.3060 C   0  0  0  0  0  0
  -21.6846   -6.0739   22.5292 C   0  0  0  0  0  0
  -21.4010   -6.5647   23.8226 C   0  0  0  0  0  0
  -21.3658   -5.6801   24.9192 C   0  0  0  0  0  0
  -21.6039   -4.3061   24.7242 C   0  0  0  0  0  0
  -21.8817   -3.8149   23.4365 C   0  0  0  0  0  0
  -21.9194   -4.6963   22.3419 C   0  0  0  0  0  0
  -22.7849  -13.5221   21.1857 C   0  0  0  0  0  0
  -22.1657   -4.2149   21.0988 F   0  0  0  0  0  0
  -21.5633   -3.4541   25.7752 F   0  0  0  0  0  0
  -30.0326  -13.2966   20.4464 N   0  0  0  0  0  0
  -26.3015  -12.9319   20.3395 N   0  0  0  0  0  0
  -25.9319  -11.6481   20.5792 N   0  0  0  0  0  0
  -22.0493  -12.8219   22.0421 N   0  0  0  0  0  0
  -25.4301  -15.1881   20.4105 N   0  0  0  0  0  0
  -31.7911  -14.7099   20.0721 O   0  0  0  0  0  0
  -21.6645   -6.8879   21.4249 O   0  0  0  0  0  0
  -22.3529  -14.5523   20.6701 O   0  0  0  0  0  0
  -24.6195  -31.8671   23.2116 C   0  0  0  0  0  0
  -25.9080  -32.4823   23.8404 C   0  0  1  0  0  0
  -27.2146  -27.4014   20.0863 C   0  0  0  0  0  0
  -25.5939  -33.8621   24.2336 N   0  0  0  0  0  0
  -23.4067  -30.4962   21.5549 C   0  0  2  0  0  0
  -24.8468  -28.9682   20.1124 C   0  0  0  0  0  0
  -22.7434  -29.4665   22.4991 C   0  0  0  0  0  0
  -18.0276  -28.1380   22.8492 C   0  0  0  0  0  0
  -24.1487  -36.7305   23.2628 C   0  0  0  0  0  0
  -25.9425  -30.8237   21.3698 C   0  0  0  0  0  0
  -26.0154  -29.4602   20.7077 C   0  0  0  0  0  0
  -27.2050  -28.6868   20.6871 C   0  0  0  0  0  0
  -26.0235  -26.9476   19.4683 C   0  0  0  0  0  0
  -24.8482  -27.7144   19.4875 C   0  0  0  0  0  0
  -23.6137  -29.8404   20.1664 C   0  0  0  0  0  0
  -25.4105  -36.3104   24.0333 C   0  0  1  0  0  0
  -20.5871  -28.3668   23.1312 C   0  0  2  0  0  0
  -20.6775  -26.9403   22.5416 C   0  0  0  0  0  0
  -19.5750  -26.6387   21.5215 C   0  0  0  0  0  0
  -18.1923  -26.7926   22.1622 C   0  0  0  0  0  0
  -19.1527  -28.8841   23.2897 C   0  0  0  0  0  0
  -18.9452  -30.1452   23.8905 C   0  0  0  0  0  0
  -17.6453  -30.6586   24.0566 C   0  0  0  0  0  0
  -25.9045  -34.9473   23.5125 C   0  0  0  0  0  0
  -16.5344  -29.9087   23.6332 C   0  0  0  0  0  0
  -16.7266  -28.6505   23.0350 C   0  0  0  0  0  0
  -26.4492  -31.6600   25.0737 C   0  0  0  0  0  0
  -25.3762  -31.3718   26.1493 C   0  0  0  0  0  0
  -27.0304  -30.3033   24.6122 C   0  0  0  0  0  0
  -27.6073  -32.4316   25.7491 C   0  0  0  0  0  0
  -27.5596  -37.1783   24.8444 C   0  0  0  0  0  0
  -21.4156  -29.3042   22.3727 N   0  0  0  0  0  0
  -26.4281  -37.3806   23.9430 N   0  0  0  0  0  0
  -24.6753  -31.0751   22.1040 N   0  0  0  0  0  0
  -23.4195  -28.8188   23.3022 O   0  0  0  0  0  0
  -28.3489  -26.5996   20.1198 O   0  0  0  0  0  0
  -26.5590  -34.8926   22.4678 O   0  0  0  0  0  0
  -23.5380  -32.1446   23.7496 O   0  0  0  0  0  0
  -28.7078  -20.9240   19.8767 C   0  0  0  0  0  0
  -30.8292  -21.3078   21.0686 C   0  0  0  0  0  0
  -31.8693  -19.1022   19.5227 C   0  0  0  0  0  0
  -28.0321  -22.0430   20.7138 C   0  0  0  0  0  0
  -30.1452  -22.3602   21.9689 C   0  0  0  0  0  0
  -32.1877  -18.3329   18.2214 C   0  0  0  0  0  0
  -29.8439  -20.1975   20.6319 C   0  0  2  0  0  0
  -29.8143  -17.7889   19.8266 C   0  0  1  0  0  0
  -30.0514  -17.1176   18.4410 C   0  0  1  0  0  0
  -29.2751  -17.8144   17.3022 C   0  0  0  0  0  0
  -30.3132  -16.9359   21.0552 C   0  0  0  0  0  0
  -29.3107  -24.2591   20.5213 C   0  0  0  0  0  0
  -28.0828  -25.1798   20.2750 C   0  0  0  0  0  0
  -30.4121  -19.1491   19.7491 N   0  0  0  0  0  0
  -29.9346  -15.5065   21.0376 N   0  0  0  0  0  0
  -31.5050  -17.0216   18.1669 N   0  3  0  0  0  0
  -28.9805  -23.0279   21.3209 N   0  3  1  0  0  0
  -31.4715  -12.4275   19.1231 H   0  0  0  0  0  0
  -30.3422  -11.3038   19.8238 H   0  0  0  0  0  0
  -29.7342  -11.7706   17.4356 H   0  0  0  0  0  0
  -29.6569  -13.4837   17.7613 H   0  0  0  0  0  0
  -27.8271  -11.3044   18.8232 H   0  0  0  0  0  0
  -27.3643  -12.6303   17.7914 H   0  0  0  0  0  0
  -27.7019  -14.2509   19.5768 H   0  0  0  0  0  0
  -28.6841  -11.9488   21.3404 H   0  0  0  0  0  0
  -28.4675  -13.5840   21.8801 H   0  0  0  0  0  0
  -25.2771   -9.5681   22.4760 H   0  0  0  0  0  0
  -24.0019   -7.4624   22.7472 H   0  0  0  0  0  0
  -21.0852   -8.8772   19.8949 H   0  0  0  0  0  0
  -22.3699  -10.9686   19.6172 H   0  0  0  0  0  0
  -21.1994   -7.6155   23.9729 H   0  0  0  0  0  0
  -21.1478   -6.0536   25.9097 H   0  0  0  0  0  0
  -22.0597   -2.7610   23.2876 H   0  0  0  0  0  0
  -22.4095  -11.9874   22.4806 H   0  0  0  0  0  0
  -21.1109  -13.1240   22.2620 H   0  0  0  0  0  0
  -24.6606  -15.8422   20.5116 H   0  0  0  0  0  0
  -26.2791  -15.6269   20.0788 H   0  0  0  0  0  0
  -26.7146  -32.5513   23.1155 H   0  0  0  0  0  0
  -25.0128  -33.9786   25.0506 H   0  0  0  0  0  0
  -22.6973  -31.3158   21.4226 H   0  0  0  0  0  0
  -23.3776  -35.9610   23.3241 H   0  0  0  0  0  0
  -24.3603  -36.8975   22.2056 H   0  0  0  0  0  0
  -23.7198  -37.6477   23.6676 H   0  0  0  0  0  0
  -26.0629  -31.5929   20.6058 H   0  0  0  0  0  0
  -26.8283  -30.8681   21.9923 H   0  0  0  0  0  0
  -28.1051  -29.0620   21.1539 H   0  0  0  0  0  0
  -25.9636  -26.0015   18.9532 H   0  0  0  0  0  0
  -23.9515  -27.3361   19.0153 H   0  0  0  0  0  0
  -23.7284  -30.6232   19.4154 H   0  0  0  0  0  0
  -22.7333  -29.2700   19.8640 H   0  0  0  0  0  0
  -25.1274  -36.1961   25.0826 H   0  0  0  0  0  0
  -20.9959  -28.3234   24.1432 H   0  0  0  0  0  0
  -20.5694  -26.2273   23.3602 H   0  0  0  0  0  0
  -21.6641  -26.7460   22.1194 H   0  0  0  0  0  0
  -19.6911  -25.6299   21.1239 H   0  0  0  0  0  0
  -19.6694  -27.3210   20.6751 H   0  0  0  0  0  0
  -17.4201  -26.6692   21.4014 H   0  0  0  0  0  0
  -18.0316  -26.0064   22.9013 H   0  0  0  0  0  0
  -19.7926  -30.7275   24.2276 H   0  0  0  0  0  0
  -17.5001  -31.6264   24.5169 H   0  0  0  0  0  0
  -15.5342  -30.2988   23.7649 H   0  0  0  0  0  0
  -15.8667  -28.0829   22.7053 H   0  0  0  0  0  0
  -24.5920  -30.7081   25.7836 H   0  0  0  0  0  0
  -24.8980  -32.2881   26.4963 H   0  0  0  0  0  0
  -25.8126  -30.8870   27.0235 H   0  0  0  0  0  0
  -26.2836  -29.6805   24.1186 H   0  0  0  0  0  0
  -27.4067  -29.7265   25.4578 H   0  0  0  0  0  0
  -27.8684  -30.4333   23.9271 H   0  0  0  0  0  0
  -27.2696  -33.3600   26.2105 H   0  0  0  0  0  0
  -28.3859  -32.6903   25.0305 H   0  0  0  0  0  0
  -28.0769  -31.8423   26.5375 H   0  0  0  0  0  0
  -28.2542  -38.0153   24.7612 H   0  0  0  0  0  0
  -28.1165  -36.2695   24.6111 H   0  0  0  0  0  0
  -27.2337  -37.1238   25.8847 H   0  0  0  0  0  0
  -20.9323  -29.8768   21.6950 H   0  0  0  0  0  0
  -26.0163  -38.2862   24.1529 H   0  0  0  0  0  0
  -29.0958  -21.3567   18.9535 H   0  0  0  0  0  0
  -27.9456  -20.2062   19.5715 H   0  0  0  0  0  0
  -31.6669  -20.8759   21.6163 H   0  0  0  0  0  0
  -31.2454  -21.8202   20.2003 H   0  0  0  0  0  0
  -32.2806  -20.1007   19.3915 H   0  0  0  0  0  0
  -32.3954  -18.6761   20.3756 H   0  0  0  0  0  0
  -27.4910  -21.5689   21.5341 H   0  0  0  0  0  0
  -27.2689  -22.5466   20.1214 H   0  0  0  0  0  0
  -30.8709  -23.0992   22.3073 H   0  0  0  0  0  0
  -29.7881  -21.8640   22.8721 H   0  0  0  0  0  0
  -33.2640  -18.1871   18.1271 H   0  0  0  0  0  0
  -31.8908  -18.9322   17.3596 H   0  0  0  0  0  0
  -29.4452  -19.7202   21.5295 H   0  0  0  0  0  0
  -28.7346  -17.9078   19.9375 H   0  0  0  0  0  0
  -29.6639  -16.1003   18.4679 H   0  0  0  0  0  0
  -29.5521  -18.8623   17.1886 H   0  0  0  0  0  0
  -28.2027  -17.7889   17.4965 H   0  0  0  0  0  0
  -29.4408  -17.3203   16.3452 H   0  0  0  0  0  0
  -29.9097  -17.3685   21.9713 H   0  0  0  0  0  0
  -31.3929  -16.9940   21.1723 H   0  0  0  0  0  0
  -30.0485  -24.8397   21.0762 H   0  0  0  0  0  0
  -29.7820  -23.9891   19.5753 H   0  0  0  0  0  0
  -27.3918  -25.0716   21.1142 H   0  0  0  0  0  0
  -27.5800  -24.7855   19.3930 H   0  0  0  0  0  0
  -29.0260  -15.2658   21.4046 H   0  0  0  0  0  0
  -31.9170  -16.4031   18.8547 H   0  0  0  0  0  0
  -31.6551  -16.6092   17.2608 H   0  0  0  0  0  0
  -28.4675  -23.4068   22.1060 H   0  0  0  0  0  0
  1 25  1  0  0  0
  1 30  2  0  0  0
  1 85  1  0  0  0
  2  3  1  0  0  0
  2 25  1  0  0  0
  2 88  1  0  0  0
  2 89  1  0  0  0
  3  4  1  0  0  0
  3 90  1  0  0  0
  3 91  1  0  0  0
  4  5  1  0  0  0
  4 92  1  0  0  0
  4 93  1  0  0  0
  5  6  1  0  0  0
  5 26  1  0  0  0
  5 94  1  0  0  0
  6 25  1  0  0  0
  6 95  1  0  0  0
  6 96  1  0  0  0
  7  8  2  0  0  0
  7 26  1  0  0  0
  7 29  1  0  0  0
  8  9  1  0  0  0
  8 22  1  0  0  0
  9 10  1  0  0  0
  9 27  2  0  0  0
 10 11  2  0  0  0
 10 15  1  0  0  0
 11 12  1  0  0  0
 11 97  1  0  0  0
 12 13  2  0  0  0
 12 98  1  0  0  0
 13 14  1  0  0  0
 13 31  1  0  0  0
 14 15  2  0  0  0
 14 99  1  0  0  0
 15100  1  0  0  0
 16 17  2  0  0  0
 16 21  1  0  0  0
 16 31  1  0  0  0
 17 18  1  0  0  0
 17101  1  0  0  0
 18 19  2  0  0  0
 18102  1  0  0  0
 19 20  1  0  0  0
 19 24  1  0  0  0
 20 21  2  0  0  0
 20103  1  0  0  0
 21 23  1  0  0  0
 22 28  1  0  0  0
 22 32  2  0  0  0
 26 27  1  0  0  0
 28104  1  0  0  0
 28105  1  0  0  0
 29106  1  0  0  0
 29107  1  0  0  0
 33 34  1  0  0  0
 33 66  1  0  0  0
 33 70  2  0  0  0
 34 36  1  0  0  0
 34 59  1  0  0  0
 34108  1  0  0  0
 35 44  2  0  0  0
 35 45  1  0  0  0
 35 68  1  0  0  0
 36 56  1  0  0  0
 36109  1  0  0  0
 37 39  1  0  0  0
 37 47  1  0  0  0
 37 66  1  0  0  0
 37110  1  0  0  0
 38 43  2  0  0  0
 38 46  1  0  0  0
 38 47  1  0  0  0
 39 64  1  0  0  0
 39 67  2  0  0  0
 40 52  1  0  0  0
 40 53  2  0  0  0
 40 58  1  0  0  0
 41111  1  0  0  0
 41112  1  0  0  0
 41113  1  0  0  0
 41 48  1  0  0  0
 42 43  1  0  0  0
 42 66  1  0  0  0
 42114  1  0  0  0
 42115  1  0  0  0
 43 44  1  0  0  0
 44116  1  0  0  0
 45 46  2  0  0  0
 45117  1  0  0  0
 46118  1  0  0  0
 47119  1  0  0  0
 47120  1  0  0  0
 48 56  1  0  0  0
 48 65  1  0  0  0
 48121  1  0  0  0
 49 50  1  0  0  0
 49 53  1  0  0  0
 49 64  1  0  0  0
 49122  1  0  0  0
 50 51  1  0  0  0
 50123  1  0  0  0
 50124  1  0  0  0
 51 52  1  0  0  0
 51125  1  0  0  0
 51126  1  0  0  0
 52127  1  0  0  0
 52128  1  0  0  0
 53 54  1  0  0  0
 54 55  2  0  0  0
 54129  1  0  0  0
 55 57  1  0  0  0
 55130  1  0  0  0
 56 69  2  0  0  0
 57 58  2  0  0  0
 57131  1  0  0  0
 58132  1  0  0  0
 59 60  1  0  0  0
 59 61  1  0  0  0
 59 62  1  0  0  0
 60133  1  0  0  0
 60134  1  0  0  0
 60135  1  0  0  0
 61136  1  0  0  0
 61137  1  0  0  0
 61138  1  0  0  0
 62139  1  0  0  0
 62140  1  0  0  0
 62141  1  0  0  0
 63 65  1  0  0  0
 63142  1  0  0  0
 63143  1  0  0  0
 63144  1  0  0  0
 64145  1  0  0  0
 65146  1  0  0  0
 68 83  1  0  0  0
 71 74  1  0  0  0
 71 77  1  0  0  0
 71147  1  0  0  0
 71148  1  0  0  0
 72 75  1  0  0  0
 72 77  1  0  0  0
 72149  1  0  0  0
 72150  1  0  0  0
 73 76  1  0  0  0
 73151  1  0  0  0
 73152  1  0  0  0
 73 84  1  0  0  0
 74 87  1  0  0  0
 74153  1  0  0  0
 74154  1  0  0  0
 75 87  1  0  0  0
 75155  1  0  0  0
 75156  1  0  0  0
 76 86  1  0  0  0
 76157  1  0  0  0
 76158  1  0  0  0
 77 84  1  0  0  0
 77159  1  0  0  0
 78 79  1  0  0  0
 78 81  1  0  0  0
 78 84  1  0  0  0
 78160  1  0  0  0
 79 80  1  0  0  0
 79 86  1  0  0  0
 79161  1  0  0  0
 80162  1  0  0  0
 80163  1  0  0  0
 80164  1  0  0  0
 81 85  1  0  0  0
 81165  1  0  0  0
 81166  1  0  0  0
 82 83  1  0  0  0
 82167  1  0  0  0
 82168  1  0  0  0
 82 87  1  0  0  0
 83169  1  0  0  0
 83170  1  0  0  0
 85171  1  0  0  0
 86172  1  0  0  0
 86173  1  0  0  0
 87174  1  0  0  0
M  CHG  2  86   1  87   1
M  ISO  4   1 100  68 101  83 101  85 100
M  END
> <chiral flag>
0

> <version>
0

> <s_m_source_file>
/data/baiqing/PycharmProjects/Reinvent-master-3.2/result/LINK_invent/BTK/process_docking_weight1_custom_sum_contain_oxygen_bond_distance_aromatic_linkinvent_7_9_3/rearranged_h_0193.sdf

> <i_m_source_file_index>
78

> <r_mmod_Potential_Energy-OPLS-2005>
-231.476058959961

> <r_mmod_Stretch_Energy-OPLS-2005>
51.1298484802246

> <r_mmod_Bend_Energy-OPLS-2005>
135.907348632812

> <r_mmod_Torsional_Energy-OPLS-2005>
293.016815185547

> <r_mmod_Improper_Torsional_Energy-OPLS-2005>
5.4417610168457

> <r_mmod_Van_der_Waal_Energy-OPLS-2005>
151.965698242188

> <r_mmod_Electrostatic_Energy-OPLS-2005>
-62.3963356018066

> <r_mmod_Solvation_Energy-OPLS-2005>
-824.766418457031

> <b_mmod_Minimization_Converged-OPLS-2005>
0

> <r_mmod_RMS_Derivative-OPLS-2005>
1.74275100231171

$$$$
78
                    3D
 Structure written by MMmdl.
162171  0  0  1  0            999 V2000
  -30.6032  -14.7416   20.4577 C   0  0  0  0  0  0
  -30.4298  -12.4545   19.4669 C   0  0  0  0  0  0
  -29.5110  -12.5241   18.2287 C   0  0  0  0  0  0
  -28.0289  -12.3606   18.6297 C   0  0  0  0  0  0
  -27.6395  -13.2378   19.8506 C   0  0  2  0  0  0
  -28.6855  -13.1565   20.9811 C   0  0  0  0  0  0
  -25.2497  -13.8202   20.5686 C   0  0  0  0  0  0
  -24.1787  -13.0446   20.9211 C   0  0  0  0  0  0
  -24.6389  -11.6923   20.8732 C   0  0  0  0  0  0
  -23.9058  -10.4296   21.0394 C   0  0  0  0  0  0
  -24.3609   -9.4211   21.9173 C   0  0  0  0  0  0
  -23.6301   -8.2242   22.0735 C   0  0  0  0  0  0
  -22.4285   -8.0275   21.3529 C   0  0  0  0  0  0
  -21.9907   -9.0241   20.4628 C   0  0  0  0  0  0
  -22.7224  -10.2131   20.3046 C   0  0  0  0  0  0
  -21.6854   -6.0740   22.5270 C   0  0  0  0  0  0
  -21.4007   -6.5634   23.8207 C   0  0  0  0  0  0
  -21.3677   -5.6783   24.9163 C   0  0  0  0  0  0
  -21.6062   -4.3050   24.7209 C   0  0  0  0  0  0
  -21.8822   -3.8146   23.4324 C   0  0  0  0  0  0
  -21.9185   -4.6965   22.3385 C   0  0  0  0  0  0
  -22.7804  -13.5227   21.1868 C   0  0  0  0  0  0
  -22.1657   -4.2148   21.0961 F   0  0  0  0  0  0
  -21.5641   -3.4535   25.7725 F   0  0  0  0  0  0
  -29.9825  -13.5153   20.3958 N   0  0  0  0  0  0
  -26.2929  -12.9428   20.3284 N   0  0  0  0  0  0
  -25.9325  -11.6568   20.5754 N   0  0  0  0  0  0
  -22.0441  -12.8217   22.0417 N   0  0  0  0  0  0
  -25.4180  -15.1925   20.4070 N   0  0  0  0  0  0
  -31.8007  -14.8379   20.1726 O   0  0  0  0  0  0
  -21.6638   -6.8882   21.4237 O   0  0  0  0  0  0
  -22.3488  -14.5534   20.6721 O   0  0  0  0  0  0
  -24.6294  -31.8551   23.1960 C   0  0  0  0  0  0
  -25.9122  -32.4762   23.8317 C   0  0  1  0  0  0
  -27.2384  -27.2889   20.1307 C   0  0  0  0  0  0
  -25.5914  -33.8560   24.2250 N   0  0  0  0  0  0
  -23.4263  -30.4729   21.5402 C   0  0  2  0  0  0
  -24.8765  -28.9100   20.1200 C   0  0  0  0  0  0
  -22.7513  -29.4592   22.4945 C   0  0  0  0  0  0
  -18.0287  -28.1395   22.8489 C   0  0  0  0  0  0
  -24.1481  -36.7287   23.2642 C   0  0  0  0  0  0
  -25.9678  -30.7778   21.3672 C   0  0  0  0  0  0
  -26.0449  -29.3971   20.7192 C   0  0  0  0  0  0
  -27.2319  -28.6007   20.7056 C   0  0  0  0  0  0
  -26.0458  -26.8463   19.5257 C   0  0  0  0  0  0
  -24.8793  -27.6424   19.5124 C   0  0  0  0  0  0
  -23.6440  -29.7957   20.1607 C   0  0  0  0  0  0
  -25.4107  -36.3076   24.0332 C   0  0  1  0  0  0
  -20.5891  -28.3688   23.1297 C   0  0  2  0  0  0
  -20.6774  -26.9410   22.5419 C   0  0  0  0  0  0
  -19.5745  -26.6394   21.5224 C   0  0  0  0  0  0
  -18.1922  -26.7939   22.1633 C   0  0  0  0  0  0
  -19.1537  -28.8858   23.2888 C   0  0  0  0  0  0
  -18.9461  -30.1463   23.8899 C   0  0  0  0  0  0
  -17.6454  -30.6592   24.0566 C   0  0  0  0  0  0
  -25.9048  -34.9446   23.5100 C   0  0  0  0  0  0
  -16.5346  -29.9090   23.6330 C   0  0  0  0  0  0
  -16.7271  -28.6510   23.0351 C   0  0  0  0  0  0
  -26.4486  -31.6583   25.0705 C   0  0  0  0  0  0
  -25.3712  -31.3722   26.1431 C   0  0  0  0  0  0
  -27.0325  -30.3012   24.6151 C   0  0  0  0  0  0
  -27.6046  -32.4326   25.7472 C   0  0  0  0  0  0
  -27.5581  -37.1795   24.8465 C   0  0  0  0  0  0
  -21.4211  -29.3032   22.3698 N   0  0  0  0  0  0
  -26.4284  -37.3781   23.9411 N   0  0  0  0  0  0
  -24.6940  -31.0540   22.0918 N   0  0  0  0  0  0
  -23.4219  -28.8153   23.3057 O   0  0  0  0  0  0
  -28.3757  -26.4667   20.0596 O   0  0  0  0  0  0
  -26.5633  -34.8926   22.4677 O   0  0  0  0  0  0
  -23.5453  -32.1347   23.7289 O   0  0  0  0  0  0
  -27.9620  -20.7504   19.1852 C   0  0  0  0  0  0
  -28.4111  -18.3461   19.2341 C   0  0  0  0  0  0
  -27.6890  -19.4466   18.7185 C   0  0  0  0  0  0
  -28.9314  -20.9620   20.1816 C   0  0  0  0  0  0
  -29.3944  -18.5541   20.2169 C   0  0  0  0  0  0
  -29.1556  -22.4693   22.3088 C   0  0  0  0  0  0
  -30.7263  -22.6314   21.0495 C   0  0  0  0  0  0
  -29.2193  -22.4415   20.7671 C   0  0  0  0  0  0
  -26.6299  -19.2440   17.6521 C   0  0  0  0  0  0
  -30.2830  -17.3328   20.7279 C   0  0  0  0  0  0
  -28.5079  -23.7104   20.0215 C   0  0  0  0  0  0
  -28.4376  -25.1531   20.7623 C   0  0  0  0  0  0
  -29.6240  -19.8511   20.6798 N   0  0  0  0  0  0
  -29.8299  -15.8758   20.6419 N   0  0  0  0  0  0
  -30.5112  -21.9377   22.3121 N   0  3  0  0  0  0
  -31.4716  -12.5793   19.1704 H   0  0  0  0  0  0
  -30.3687  -11.4745   19.9415 H   0  0  0  0  0  0
  -29.7966  -11.7586   17.5052 H   0  0  0  0  0  0
  -29.6471  -13.4853   17.7291 H   0  0  0  0  0  0
  -27.8587  -11.3085   18.8595 H   0  0  0  0  0  0
  -27.3835  -12.5976   17.7826 H   0  0  0  0  0  0
  -27.6377  -14.2650   19.4881 H   0  0  0  0  0  0
  -28.7180  -12.1516   21.4065 H   0  0  0  0  0  0
  -28.4265  -13.8264   21.8003 H   0  0  0  0  0  0
  -25.2753   -9.5709   22.4745 H   0  0  0  0  0  0
  -24.0030   -7.4634   22.7451 H   0  0  0  0  0  0
  -21.0843   -8.8740   19.8934 H   0  0  0  0  0  0
  -22.3666  -10.9666   19.6151 H   0  0  0  0  0  0
  -21.1992   -7.6138   23.9710 H   0  0  0  0  0  0
  -21.1513   -6.0504   25.9073 H   0  0  0  0  0  0
  -22.0594   -2.7610   23.2800 H   0  0  0  0  0  0
  -22.4052  -11.9897   22.4853 H   0  0  0  0  0  0
  -21.1049  -13.1251   22.2589 H   0  0  0  0  0  0
  -24.6505  -15.8469   20.5124 H   0  0  0  0  0  0
  -26.2619  -15.6294   20.0598 H   0  0  0  0  0  0
  -26.7198  -32.5426   23.1074 H   0  0  0  0  0  0
  -25.0035  -33.9677   25.0381 H   0  0  0  0  0  0
  -22.7201  -31.2928   21.3922 H   0  0  0  0  0  0
  -23.3750  -35.9615   23.3300 H   0  0  0  0  0  0
  -24.3573  -36.8916   22.2058 H   0  0  0  0  0  0
  -23.7226  -37.6486   23.6664 H   0  0  0  0  0  0
  -26.0943  -31.5340   20.5915 H   0  0  0  0  0  0
  -26.8503  -30.8377   21.9924 H   0  0  0  0  0  0
  -28.1391  -28.9823   21.1519 H   0  0  0  0  0  0
  -26.0199  -25.8736   19.0547 H   0  0  0  0  0  0
  -23.9855  -27.2640   19.0360 H   0  0  0  0  0  0
  -23.7656  -30.5655   19.3972 H   0  0  0  0  0  0
  -22.7627  -29.2245   19.8635 H   0  0  0  0  0  0
  -25.1289  -36.1925   25.0827 H   0  0  0  0  0  0
  -20.9970  -28.3254   24.1426 H   0  0  0  0  0  0
  -20.5683  -26.2290   23.3615 H   0  0  0  0  0  0
  -21.6638  -26.7445   22.1208 H   0  0  0  0  0  0
  -19.6897  -25.6313   21.1237 H   0  0  0  0  0  0
  -19.6681  -27.3217   20.6762 H   0  0  0  0  0  0
  -17.4200  -26.6701   21.4028 H   0  0  0  0  0  0
  -18.0307  -26.0082   22.9026 H   0  0  0  0  0  0
  -19.7926  -30.7288   24.2272 H   0  0  0  0  0  0
  -17.4998  -31.6266   24.5178 H   0  0  0  0  0  0
  -15.5344  -30.2989   23.7646 H   0  0  0  0  0  0
  -15.8676  -28.0831   22.7056 H   0  0  0  0  0  0
  -24.5889  -30.7065   25.7761 H   0  0  0  0  0  0
  -24.8884  -32.2878   26.4854 H   0  0  0  0  0  0
  -25.8035  -30.8904   27.0206 H   0  0  0  0  0  0
  -26.2884  -29.6768   24.1182 H   0  0  0  0  0  0
  -27.4038  -29.7270   25.4647 H   0  0  0  0  0  0
  -27.8749  -30.4315   23.9356 H   0  0  0  0  0  0
  -27.2657  -33.3636   26.2025 H   0  0  0  0  0  0
  -28.3854  -32.6869   25.0293 H   0  0  0  0  0  0
  -28.0701  -31.8456   26.5394 H   0  0  0  0  0  0
  -28.2596  -38.0097   24.7533 H   0  0  0  0  0  0
  -28.1080  -36.2631   24.6263 H   0  0  0  0  0  0
  -27.2302  -37.1422   25.8870 H   0  0  0  0  0  0
  -20.9412  -29.8733   21.6879 H   0  0  0  0  0  0
  -26.0167  -38.2858   24.1418 H   0  0  0  0  0  0
  -27.4050  -21.5747   18.7622 H   0  0  0  0  0  0
  -28.2306  -17.3501   18.8517 H   0  0  0  0  0  0
  -28.4133  -21.8060   22.7524 H   0  0  0  0  0  0
  -29.1209  -23.4615   22.7624 H   0  0  0  0  0  0
  -31.0477  -23.6630   21.1988 H   0  0  0  0  0  0
  -31.3969  -22.1069   20.3662 H   0  0  0  0  0  0
  -26.9928  -19.5824   16.6808 H   0  0  0  0  0  0
  -25.7276  -19.8071   17.8916 H   0  0  0  0  0  0
  -26.3485  -18.1954   17.5678 H   0  0  0  0  0  0
  -30.5200  -17.5253   21.7741 H   0  0  0  0  0  0
  -31.2361  -17.4157   20.2044 H   0  0  0  0  0  0
  -27.4739  -23.4625   19.7875 H   0  0  0  0  0  0
  -28.9827  -23.8522   19.0511 H   0  0  0  0  0  0
  -29.3569  -25.2486   21.3384 H   0  0  0  0  0  0
  -27.6480  -25.1211   21.5140 H   0  0  0  0  0  0
  -28.8448  -15.7260   20.7890 H   0  0  0  0  0  0
  -30.4898  -20.9381   22.1491 H   0  0  0  0  0  0
  -31.0981  -22.2086   23.0842 H   0  0  0  0  0  0
  1 25  1  0  0  0
  1 30  2  0  0  0
  1 84  1  0  0  0
  2  3  1  0  0  0
  2 25  1  0  0  0
  2 86  1  0  0  0
  2 87  1  0  0  0
  3  4  1  0  0  0
  3 88  1  0  0  0
  3 89  1  0  0  0
  4  5  1  0  0  0
  4 90  1  0  0  0
  4 91  1  0  0  0
  5  6  1  0  0  0
  5 26  1  0  0  0
  5 92  1  0  0  0
  6 25  1  0  0  0
  6 93  1  0  0  0
  6 94  1  0  0  0
  7  8  2  0  0  0
  7 26  1  0  0  0
  7 29  1  0  0  0
  8  9  1  0  0  0
  8 22  1  0  0  0
  9 10  1  0  0  0
  9 27  2  0  0  0
 10 11  2  0  0  0
 10 15  1  0  0  0
 11 12  1  0  0  0
 11 95  1  0  0  0
 12 13  2  0  0  0
 12 96  1  0  0  0
 13 14  1  0  0  0
 13 31  1  0  0  0
 14 15  2  0  0  0
 14 97  1  0  0  0
 15 98  1  0  0  0
 16 17  2  0  0  0
 16 21  1  0  0  0
 16 31  1  0  0  0
 17 18  1  0  0  0
 17 99  1  0  0  0
 18 19  2  0  0  0
 18100  1  0  0  0
 19 20  1  0  0  0
 19 24  1  0  0  0
 20 21  2  0  0  0
 20101  1  0  0  0
 21 23  1  0  0  0
 22 28  1  0  0  0
 22 32  2  0  0  0
 26 27  1  0  0  0
 28102  1  0  0  0
 28103  1  0  0  0
 29104  1  0  0  0
 29105  1  0  0  0
 33 34  1  0  0  0
 33 66  1  0  0  0
 33 70  2  0  0  0
 34 36  1  0  0  0
 34 59  1  0  0  0
 34106  1  0  0  0
 35 44  2  0  0  0
 35 45  1  0  0  0
 35 68  1  0  0  0
 36 56  1  0  0  0
 36107  1  0  0  0
 37 39  1  0  0  0
 37 47  1  0  0  0
 37 66  1  0  0  0
 37108  1  0  0  0
 38 43  2  0  0  0
 38 46  1  0  0  0
 38 47  1  0  0  0
 39 64  1  0  0  0
 39 67  2  0  0  0
 40 52  1  0  0  0
 40 53  2  0  0  0
 40 58  1  0  0  0
 41109  1  0  0  0
 41110  1  0  0  0
 41111  1  0  0  0
 41 48  1  0  0  0
 42 43  1  0  0  0
 42 66  1  0  0  0
 42112  1  0  0  0
 42113  1  0  0  0
 43 44  1  0  0  0
 44114  1  0  0  0
 45 46  2  0  0  0
 45115  1  0  0  0
 46116  1  0  0  0
 47117  1  0  0  0
 47118  1  0  0  0
 48 56  1  0  0  0
 48 65  1  0  0  0
 48119  1  0  0  0
 49 50  1  0  0  0
 49 53  1  0  0  0
 49 64  1  0  0  0
 49120  1  0  0  0
 50 51  1  0  0  0
 50121  1  0  0  0
 50122  1  0  0  0
 51 52  1  0  0  0
 51123  1  0  0  0
 51124  1  0  0  0
 52125  1  0  0  0
 52126  1  0  0  0
 53 54  1  0  0  0
 54 55  2  0  0  0
 54127  1  0  0  0
 55 57  1  0  0  0
 55128  1  0  0  0
 56 69  2  0  0  0
 57 58  2  0  0  0
 57129  1  0  0  0
 58130  1  0  0  0
 59 60  1  0  0  0
 59 61  1  0  0  0
 59 62  1  0  0  0
 60131  1  0  0  0
 60132  1  0  0  0
 60133  1  0  0  0
 61134  1  0  0  0
 61135  1  0  0  0
 61136  1  0  0  0
 62137  1  0  0  0
 62138  1  0  0  0
 62139  1  0  0  0
 63 65  1  0  0  0
 63140  1  0  0  0
 63141  1  0  0  0
 63142  1  0  0  0
 64143  1  0  0  0
 65144  1  0  0  0
 68 82  1  0  0  0
 71 73  2  0  0  0
 71 74  1  0  0  0
 71145  1  0  0  0
 72 73  1  0  0  0
 72 75  2  0  0  0
 72146  1  0  0  0
 73 79  1  0  0  0
 74 78  1  0  0  0
 74 83  2  0  0  0
 75 80  1  0  0  0
 75 83  1  0  0  0
 76 78  1  0  0  0
 76 85  1  0  0  0
 76147  1  0  0  0
 76148  1  0  0  0
 77 78  1  0  0  0
 77 85  1  0  0  0
 77149  1  0  0  0
 77150  1  0  0  0
 78 81  1  0  0  0
 79151  1  0  0  0
 79152  1  0  0  0
 79153  1  0  0  0
 80 84  1  0  0  0
 80154  1  0  0  0
 80155  1  0  0  0
 81 82  1  0  0  0
 81156  1  0  0  0
 81157  1  0  0  0
 82158  1  0  0  0
 82159  1  0  0  0
 84160  1  0  0  0
 85161  1  0  0  0
 85162  1  0  0  0
M  CHG  1  85   1
M  ISO  4   1 100  68 101  82 101  84 100
M  END
> <chiral flag>
0

> <version>
0

> <s_m_source_file>
/data/baiqing/PycharmProjects/Reinvent-master-3.2/result/LINK_invent/BTK/process_docking_weight1_custom_sum_contain_oxygen_bond_distance_aromatic_linkinvent_7_9_3/rearranged_h_0193.sdf

> <i_m_source_file_index>
79

> <r_mmod_Potential_Energy-OPLS-2005>
-341.059783935547

> <r_mmod_Stretch_Energy-OPLS-2005>
127.741577148438

> <r_mmod_Bend_Energy-OPLS-2005>
191.893447875977

> <r_mmod_Torsional_Energy-OPLS-2005>
274.701507568359

> <r_mmod_Improper_Torsional_Energy-OPLS-2005>
4.62990570068359

> <r_mmod_Van_der_Waal_Energy-OPLS-2005>
149.377471923828

> <r_mmod_Electrostatic_Energy-OPLS-2005>
-690.686767578125

> <r_mmod_Solvation_Energy-OPLS-2005>
-471.260925292969

> <b_mmod_Minimization_Converged-OPLS-2005>
0

> <r_mmod_RMS_Derivative-OPLS-2005>
2.76625823974609

$$$$
79
                    3D
 Structure written by MMmdl.
166176  0  0  1  0            999 V2000
  -30.7208  -14.7038   20.4551 C   0  0  0  0  0  0
  -30.4017  -12.4384   19.4704 C   0  0  0  0  0  0
  -29.4896  -12.4763   18.2298 C   0  0  0  0  0  0
  -28.0250  -12.2710   18.6540 C   0  0  0  0  0  0
  -27.6201  -13.1946   19.8266 C   0  0  2  0  0  0
  -28.6752  -13.2277   20.9632 C   0  0  0  0  0  0
  -25.2501  -13.8093   20.5722 C   0  0  0  0  0  0
  -24.1759  -13.0398   20.9234 C   0  0  0  0  0  0
  -24.6307  -11.6864   20.8784 C   0  0  0  0  0  0
  -23.8983  -10.4271   21.0440 C   0  0  0  0  0  0
  -24.3568   -9.4194   21.9203 C   0  0  0  0  0  0
  -23.6273   -8.2226   22.0757 C   0  0  0  0  0  0
  -22.4252   -8.0265   21.3547 C   0  0  0  0  0  0
  -21.9866   -9.0225   20.4646 C   0  0  0  0  0  0
  -22.7175  -10.2116   20.3068 C   0  0  0  0  0  0
  -21.6845   -6.0719   22.5280 C   0  0  0  0  0  0
  -21.4009   -6.5623   23.8211 C   0  0  0  0  0  0
  -21.3656   -5.6776   24.9173 C   0  0  0  0  0  0
  -21.6048   -4.3041   24.7218 C   0  0  0  0  0  0
  -21.8826   -3.8135   23.4339 C   0  0  0  0  0  0
  -21.9192   -4.6951   22.3403 C   0  0  0  0  0  0
  -22.7805  -13.5241   21.1879 C   0  0  0  0  0  0
  -22.1676   -4.2138   21.0978 F   0  0  0  0  0  0
  -21.5620   -3.4533   25.7736 F   0  0  0  0  0  0
  -29.9765  -13.5450   20.3644 N   0  0  0  0  0  0
  -26.2834  -12.9200   20.3251 N   0  0  0  0  0  0
  -25.9212  -11.6389   20.5772 N   0  0  0  0  0  0
  -22.0420  -12.8261   22.0434 N   0  0  0  0  0  0
  -25.4244  -15.1823   20.4162 N   0  0  0  0  0  0
  -31.9182  -14.6471   20.1630 O   0  0  0  0  0  0
  -21.6630   -6.8859   21.4243 O   0  0  0  0  0  0
  -22.3523  -14.5545   20.6695 O   0  0  0  0  0  0
  -24.6280  -31.8611   23.2009 C   0  0  0  0  0  0
  -25.9133  -32.4778   23.8337 C   0  0  1  0  0  0
  -27.2140  -27.3103   20.1223 C   0  0  0  0  0  0
  -25.5940  -33.8575   24.2266 N   0  0  0  0  0  0
  -23.4202  -30.4868   21.5435 C   0  0  2  0  0  0
  -24.8651  -28.9438   20.1080 C   0  0  0  0  0  0
  -22.7484  -29.4645   22.4919 C   0  0  0  0  0  0
  -18.0296  -28.1394   22.8480 C   0  0  0  0  0  0
  -24.1493  -36.7287   23.2636 C   0  0  0  0  0  0
  -25.9631  -30.7911   21.3730 C   0  0  0  0  0  0
  -26.0358  -29.4192   20.7126 C   0  0  0  0  0  0
  -27.2154  -28.6152   20.7078 C   0  0  0  0  0  0
  -26.0223  -26.8957   19.4846 C   0  0  0  0  0  0
  -24.8610  -27.6886   19.4841 C   0  0  0  0  0  0
  -23.6336  -29.8241   20.1577 C   0  0  0  0  0  0
  -25.4119  -36.3077   24.0328 C   0  0  1  0  0  0
  -20.5896  -28.3701   23.1267 C   0  0  2  0  0  0
  -20.6782  -26.9426   22.5392 C   0  0  0  0  0  0
  -19.5750  -26.6393   21.5202 C   0  0  0  0  0  0
  -18.1937  -26.7931   22.1626 C   0  0  0  0  0  0
  -19.1546  -28.8865   23.2868 C   0  0  0  0  0  0
  -18.9468  -30.1468   23.8880 C   0  0  0  0  0  0
  -17.6464  -30.6589   24.0566 C   0  0  0  0  0  0
  -25.9061  -34.9451   23.5096 C   0  0  0  0  0  0
  -16.5354  -29.9086   23.6333 C   0  0  0  0  0  0
  -16.7282  -28.6512   23.0336 C   0  0  0  0  0  0
  -26.4504  -31.6588   25.0717 C   0  0  0  0  0  0
  -25.3728  -31.3735   26.1434 C   0  0  0  0  0  0
  -27.0354  -30.3008   24.6199 C   0  0  0  0  0  0
  -27.6060  -32.4329   25.7480 C   0  0  0  0  0  0
  -27.5584  -37.1793   24.8466 C   0  0  0  0  0  0
  -21.4200  -29.3052   22.3660 N   0  0  0  0  0  0
  -26.4295  -37.3777   23.9411 N   0  0  0  0  0  0
  -24.6889  -31.0637   22.0948 N   0  0  0  0  0  0
  -23.4215  -28.8196   23.3005 O   0  0  0  0  0  0
  -28.3148  -26.4373   20.1953 O   0  0  0  0  0  0
  -26.5635  -34.8923   22.4664 O   0  0  0  0  0  0
  -23.5448  -32.1407   23.7342 O   0  0  0  0  0  0
  -31.1353  -20.8429   18.0747 C   0  0  0  0  0  0
  -30.3858  -21.9936   18.4273 C   0  0  0  0  0  0
  -29.7030  -21.6263   19.5664 C   0  0  0  0  0  0
  -29.1460  -23.7460   16.9167 C   0  0  0  0  0  0
  -30.3595  -23.3074   16.1390 C   0  0  0  0  0  0
  -30.5404  -18.4383   21.5275 C   0  0  0  0  0  0
  -28.7488  -17.9627   19.8678 C   0  0  0  0  0  0
  -31.1404  -17.0892   20.9932 C   0  0  0  0  0  0
  -28.8307  -16.4992   20.4574 C   0  0  0  0  0  0
  -30.3863  -23.2936   17.6553 C   0  0  0  0  0  0
  -29.4496  -19.1239   20.6512 C   0  0  0  0  0  0
  -29.1473  -23.9313   20.5568 C   0  0  0  0  0  0
  -28.0535  -24.9797   20.0698 C   0  0  0  0  0  0
  -30.8849  -19.8120   18.8524 N   0  0  0  0  0  0
  -29.9586  -20.2224   19.7529 N   0  0  0  0  0  0
  -30.1874  -15.9640   20.7521 N   0  0  0  0  0  0
  -28.8667  -22.4629   20.3630 N   0  0  0  0  0  0
  -31.4445  -12.5119   19.1586 H   0  0  0  0  0  0
  -30.3178  -11.4798   19.9862 H   0  0  0  0  0  0
  -29.7861  -11.7054   17.5179 H   0  0  0  0  0  0
  -29.5994  -13.4299   17.7107 H   0  0  0  0  0  0
  -27.9076  -11.2280   18.9500 H   0  0  0  0  0  0
  -27.3596  -12.4217   17.8031 H   0  0  0  0  0  0
  -27.5465  -14.1566   19.3447 H   0  0  0  0  0  0
  -28.7232  -12.2664   21.4776 H   0  0  0  0  0  0
  -28.4061  -13.9662   21.7188 H   0  0  0  0  0  0
  -25.2715   -9.5691   22.4772 H   0  0  0  0  0  0
  -23.9994   -7.4609   22.7465 H   0  0  0  0  0  0
  -21.0799   -8.8726   19.8953 H   0  0  0  0  0  0
  -22.3630  -10.9650   19.6180 H   0  0  0  0  0  0
  -21.2010   -7.6133   23.9716 H   0  0  0  0  0  0
  -21.1472   -6.0500   25.9068 H   0  0  0  0  0  0
  -22.0610   -2.7599   23.2834 H   0  0  0  0  0  0
  -22.4002  -11.9921   22.4852 H   0  0  0  0  0  0
  -21.1041  -13.1315   22.2607 H   0  0  0  0  0  0
  -24.6611  -15.8387   20.5355 H   0  0  0  0  0  0
  -26.2797  -15.6204   20.1036 H   0  0  0  0  0  0
  -26.7208  -32.5450   23.1089 H   0  0  0  0  0  0
  -25.0068  -33.9715   25.0397 H   0  0  0  0  0  0
  -22.7134  -31.3074   21.4026 H   0  0  0  0  0  0
  -23.3758  -35.9615   23.3294 H   0  0  0  0  0  0
  -24.3575  -36.8916   22.2050 H   0  0  0  0  0  0
  -23.7246  -37.6488   23.6657 H   0  0  0  0  0  0
  -26.1051  -31.5580   20.6096 H   0  0  0  0  0  0
  -26.8381  -30.8304   22.0097 H   0  0  0  0  0  0
  -28.1121  -28.9749   21.1930 H   0  0  0  0  0  0
  -25.9514  -25.9375   18.9922 H   0  0  0  0  0  0
  -23.9653  -27.3178   19.0057 H   0  0  0  0  0  0
  -23.7523  -30.6009   19.4013 H   0  0  0  0  0  0
  -22.7526  -29.2548   19.8547 H   0  0  0  0  0  0
  -25.1300  -36.1916   25.0822 H   0  0  0  0  0  0
  -20.9997  -28.3277   24.1384 H   0  0  0  0  0  0
  -20.5686  -26.2320   23.3598 H   0  0  0  0  0  0
  -21.6650  -26.7454   22.1185 H   0  0  0  0  0  0
  -19.6906  -25.6306   21.1230 H   0  0  0  0  0  0
  -19.6670  -27.3202   20.6731 H   0  0  0  0  0  0
  -17.4203  -26.6672   21.4035 H   0  0  0  0  0  0
  -18.0343  -26.0077   22.9029 H   0  0  0  0  0  0
  -19.7947  -30.7289   24.2231 H   0  0  0  0  0  0
  -17.5022  -31.6260   24.5182 H   0  0  0  0  0  0
  -15.5354  -30.2975   23.7669 H   0  0  0  0  0  0
  -15.8690  -28.0833   22.7029 H   0  0  0  0  0  0
  -24.5885  -30.7119   25.7741 H   0  0  0  0  0  0
  -24.8945  -32.2911   26.4870 H   0  0  0  0  0  0
  -25.8032  -30.8881   27.0201 H   0  0  0  0  0  0
  -26.2936  -29.6741   24.1239 H   0  0  0  0  0  0
  -27.4052  -29.7288   25.4719 H   0  0  0  0  0  0
  -27.8801  -30.4276   23.9426 H   0  0  0  0  0  0
  -27.2664  -33.3617   26.2067 H   0  0  0  0  0  0
  -28.3846  -32.6916   25.0294 H   0  0  0  0  0  0
  -28.0757  -31.8462   26.5382 H   0  0  0  0  0  0
  -28.2603  -38.0090   24.7531 H   0  0  0  0  0  0
  -28.1078  -36.2627   24.6265 H   0  0  0  0  0  0
  -27.2307  -37.1419   25.8871 H   0  0  0  0  0  0
  -20.9386  -29.8779   21.6869 H   0  0  0  0  0  0
  -26.0176  -38.2853   24.1398 H   0  0  0  0  0  0
  -31.8277  -20.7194   17.2531 H   0  0  0  0  0  0
  -28.2849  -23.0806   16.9154 H   0  0  0  0  0  0
  -28.9144  -24.8094   16.9265 H   0  0  0  0  0  0
  -30.9120  -24.0881   15.6198 H   0  0  0  0  0  0
  -30.2863  -22.3619   15.6063 H   0  0  0  0  0  0
  -31.3493  -19.1429   21.7227 H   0  0  0  0  0  0
  -30.1006  -18.2320   22.5039 H   0  0  0  0  0  0
  -27.7009  -18.2293   19.7275 H   0  0  0  0  0  0
  -29.1527  -17.9123   18.8577 H   0  0  0  0  0  0
  -31.9005  -16.7575   21.7034 H   0  0  0  0  0  0
  -31.6715  -17.2894   20.0615 H   0  0  0  0  0  0
  -28.3873  -15.8951   19.6847 H   0  0  0  0  0  0
  -28.2106  -16.4143   21.3503 H   0  0  0  0  0  0
  -31.0064  -24.0554   18.1212 H   0  0  0  0  0  0
  -28.7264  -19.5879   21.3236 H   0  0  0  0  0  0
  -29.2771  -24.0774   21.6304 H   0  0  0  0  0  0
  -30.1143  -24.1906   20.1290 H   0  0  0  0  0  0
  -27.1421  -24.7466   20.6234 H   0  0  0  0  0  0
  -27.8324  -24.7713   19.0245 H   0  0  0  0  0  0
  -28.4132  -22.0022   21.1465 H   0  0  0  0  0  0
  1 25  1  0  0  0
  1 30  2  0  0  0
  1 86  1  0  0  0
  2  3  1  0  0  0
  2 25  1  0  0  0
  2 88  1  0  0  0
  2 89  1  0  0  0
  3  4  1  0  0  0
  3 90  1  0  0  0
  3 91  1  0  0  0
  4  5  1  0  0  0
  4 92  1  0  0  0
  4 93  1  0  0  0
  5  6  1  0  0  0
  5 26  1  0  0  0
  5 94  1  0  0  0
  6 25  1  0  0  0
  6 95  1  0  0  0
  6 96  1  0  0  0
  7  8  2  0  0  0
  7 26  1  0  0  0
  7 29  1  0  0  0
  8  9  1  0  0  0
  8 22  1  0  0  0
  9 10  1  0  0  0
  9 27  2  0  0  0
 10 11  2  0  0  0
 10 15  1  0  0  0
 11 12  1  0  0  0
 11 97  1  0  0  0
 12 13  2  0  0  0
 12 98  1  0  0  0
 13 14  1  0  0  0
 13 31  1  0  0  0
 14 15  2  0  0  0
 14 99  1  0  0  0
 15100  1  0  0  0
 16 17  2  0  0  0
 16 21  1  0  0  0
 16 31  1  0  0  0
 17 18  1  0  0  0
 17101  1  0  0  0
 18 19  2  0  0  0
 18102  1  0  0  0
 19 20  1  0  0  0
 19 24  1  0  0  0
 20 21  2  0  0  0
 20103  1  0  0  0
 21 23  1  0  0  0
 22 28  1  0  0  0
 22 32  2  0  0  0
 26 27  1  0  0  0
 28104  1  0  0  0
 28105  1  0  0  0
 29106  1  0  0  0
 29107  1  0  0  0
 33 34  1  0  0  0
 33 66  1  0  0  0
 33 70  2  0  0  0
 34 36  1  0  0  0
 34 59  1  0  0  0
 34108  1  0  0  0
 35 44  2  0  0  0
 35 45  1  0  0  0
 35 68  1  0  0  0
 36 56  1  0  0  0
 36109  1  0  0  0
 37 39  1  0  0  0
 37 47  1  0  0  0
 37 66  1  0  0  0
 37110  1  0  0  0
 38 43  2  0  0  0
 38 46  1  0  0  0
 38 47  1  0  0  0
 39 64  1  0  0  0
 39 67  2  0  0  0
 40 52  1  0  0  0
 40 53  2  0  0  0
 40 58  1  0  0  0
 41111  1  0  0  0
 41112  1  0  0  0
 41113  1  0  0  0
 41 48  1  0  0  0
 42 43  1  0  0  0
 42 66  1  0  0  0
 42114  1  0  0  0
 42115  1  0  0  0
 43 44  1  0  0  0
 44116  1  0  0  0
 45 46  2  0  0  0
 45117  1  0  0  0
 46118  1  0  0  0
 47119  1  0  0  0
 47120  1  0  0  0
 48 56  1  0  0  0
 48 65  1  0  0  0
 48121  1  0  0  0
 49 50  1  0  0  0
 49 53  1  0  0  0
 49 64  1  0  0  0
 49122  1  0  0  0
 50 51  1  0  0  0
 50123  1  0  0  0
 50124  1  0  0  0
 51 52  1  0  0  0
 51125  1  0  0  0
 51126  1  0  0  0
 52127  1  0  0  0
 52128  1  0  0  0
 53 54  1  0  0  0
 54 55  2  0  0  0
 54129  1  0  0  0
 55 57  1  0  0  0
 55130  1  0  0  0
 56 69  2  0  0  0
 57 58  2  0  0  0
 57131  1  0  0  0
 58132  1  0  0  0
 59 60  1  0  0  0
 59 61  1  0  0  0
 59 62  1  0  0  0
 60133  1  0  0  0
 60134  1  0  0  0
 60135  1  0  0  0
 61136  1  0  0  0
 61137  1  0  0  0
 61138  1  0  0  0
 62139  1  0  0  0
 62140  1  0  0  0
 62141  1  0  0  0
 63 65  1  0  0  0
 63142  1  0  0  0
 63143  1  0  0  0
 63144  1  0  0  0
 64145  1  0  0  0
 65146  1  0  0  0
 68 83  1  0  0  0
 71 72  1  0  0  0
 71 84  2  0  0  0
 71147  1  0  0  0
 72 73  2  0  0  0
 72 80  1  0  0  0
 73 85  1  0  0  0
 73 87  1  0  0  0
 74 75  1  0  0  0
 74 80  1  0  0  0
 74148  1  0  0  0
 74149  1  0  0  0
 75 80  1  0  0  0
 75150  1  0  0  0
 75151  1  0  0  0
 76 78  1  0  0  0
 76 81  1  0  0  0
 76152  1  0  0  0
 76153  1  0  0  0
 77 79  1  0  0  0
 77 81  1  0  0  0
 77154  1  0  0  0
 77155  1  0  0  0
 78 86  1  0  0  0
 78156  1  0  0  0
 78157  1  0  0  0
 79 86  1  0  0  0
 79158  1  0  0  0
 79159  1  0  0  0
 80160  1  0  0  0
 81 85  1  0  0  0
 81161  1  0  0  0
 82 83  1  0  0  0
 82 87  1  0  0  0
 82162  1  0  0  0
 82163  1  0  0  0
 83164  1  0  0  0
 83165  1  0  0  0
 84 85  1  0  0  0
 87166  1  0  0  0
M  ISO  4   1 100  68 101  83 101  86 100
M  END
> <chiral flag>
0

> <version>
0

> <s_m_source_file>
/data/baiqing/PycharmProjects/Reinvent-master-3.2/result/LINK_invent/BTK/process_docking_weight1_custom_sum_contain_oxygen_bond_distance_aromatic_linkinvent_7_9_3/rearranged_h_0193.sdf

> <i_m_source_file_index>
80

> <r_mmod_Potential_Energy-OPLS-2005>
374.337982177734

> <r_mmod_Stretch_Energy-OPLS-2005>
93.6288528442383

> <r_mmod_Bend_Energy-OPLS-2005>
184.323226928711

> <r_mmod_Torsional_Energy-OPLS-2005>
367.527252197266

> <r_mmod_Improper_Torsional_Energy-OPLS-2005>
5.6243782043457

> <r_mmod_Van_der_Waal_Energy-OPLS-2005>
138.802215576172

> <r_mmod_Electrostatic_Energy-OPLS-2005>
-267.677398681641

> <r_mmod_Solvation_Energy-OPLS-2005>
-224.360565185547

> <b_mmod_Minimization_Converged-OPLS-2005>
0

> <r_mmod_RMS_Derivative-OPLS-2005>
2.07146763801575

$$$$
80
                    3D
 Structure written by MMmdl.
155164  0  0  1  0            999 V2000
  -30.5334  -14.9804   20.3732 C   0  0  0  0  0  0
  -30.4410  -12.6021   19.5009 C   0  0  0  0  0  0
  -29.5297  -12.5433   18.2539 C   0  0  0  0  0  0
  -28.0546  -12.3486   18.6561 C   0  0  0  0  0  0
  -27.6318  -13.2614   19.8394 C   0  0  2  0  0  0
  -28.6763  -13.2891   20.9758 C   0  0  0  0  0  0
  -25.2457  -13.8223   20.5692 C   0  0  0  0  0  0
  -24.1806  -13.0438   20.9231 C   0  0  0  0  0  0
  -24.6446  -11.6944   20.8747 C   0  0  0  0  0  0
  -23.9137  -10.4315   21.0414 C   0  0  0  0  0  0
  -24.3674   -9.4200   21.9195 C   0  0  0  0  0  0
  -23.6334   -8.2244   22.0756 C   0  0  0  0  0  0
  -22.4306   -8.0283   21.3546 C   0  0  0  0  0  0
  -21.9953   -9.0262   20.4646 C   0  0  0  0  0  0
  -22.7298  -10.2137   20.3065 C   0  0  0  0  0  0
  -21.6850   -6.0751   22.5301 C   0  0  0  0  0  0
  -21.3996   -6.5646   23.8227 C   0  0  0  0  0  0
  -21.3667   -5.6791   24.9187 C   0  0  0  0  0  0
  -21.6070   -4.3061   24.7227 C   0  0  0  0  0  0
  -21.8815   -3.8151   23.4344 C   0  0  0  0  0  0
  -21.9183   -4.6983   22.3404 C   0  0  0  0  0  0
  -22.7822  -13.5199   21.1863 C   0  0  0  0  0  0
  -22.1655   -4.2188   21.0990 F   0  0  0  0  0  0
  -21.5648   -3.4541   25.7730 F   0  0  0  0  0  0
  -29.9504  -13.7098   20.3743 N   0  0  0  0  0  0
  -26.2922  -12.9519   20.3245 N   0  0  0  0  0  0
  -25.9388  -11.6630   20.5715 N   0  0  0  0  0  0
  -22.0486  -12.8189   22.0430 N   0  0  0  0  0  0
  -25.4061  -15.1965   20.4104 N   0  0  0  0  0  0
  -31.7329  -15.0350   20.0863 O   0  0  0  0  0  0
  -21.6643   -6.8881   21.4254 O   0  0  0  0  0  0
  -22.3533  -14.5524   20.6713 O   0  0  0  0  0  0
  -24.6512  -31.8417   23.1842 C   0  0  0  0  0  0
  -25.9259  -32.4671   23.8271 C   0  0  1  0  0  0
  -27.2188  -27.0868   20.1571 C   0  0  0  0  0  0
  -25.5971  -33.8483   24.2170 N   0  0  0  0  0  0
  -23.4568  -30.4585   21.5327 C   0  0  2  0  0  0
  -24.9046  -28.8759   20.1178 C   0  0  0  0  0  0
  -22.7637  -29.4556   22.4866 C   0  0  0  0  0  0
  -18.0326  -28.1421   22.8475 C   0  0  0  0  0  0
  -24.1503  -36.7239   23.2633 C   0  0  0  0  0  0
  -26.0177  -30.6916   21.3955 C   0  0  0  0  0  0
  -26.0855  -29.3008   20.7367 C   0  0  0  0  0  0
  -27.2454  -28.4293   20.7307 C   0  0  0  0  0  0
  -26.0027  -26.7723   19.5067 C   0  0  0  0  0  0
  -24.8787  -27.6282   19.4832 C   0  0  0  0  0  0
  -23.6871  -29.7885   20.1541 C   0  0  0  0  0  0
  -25.4156  -36.3029   24.0298 C   0  0  1  0  0  0
  -20.5940  -28.3777   23.1229 C   0  0  2  0  0  0
  -20.6821  -26.9469   22.5415 C   0  0  0  0  0  0
  -19.5795  -26.6385   21.5231 C   0  0  0  0  0  0
  -18.1969  -26.7955   22.1617 C   0  0  0  0  0  0
  -19.1576  -28.8922   23.2826 C   0  0  0  0  0  0
  -18.9479  -30.1502   23.8876 C   0  0  0  0  0  0
  -17.6471  -30.6609   24.0575 C   0  0  0  0  0  0
  -25.9104  -34.9396   23.5050 C   0  0  0  0  0  0
  -16.5367  -29.9096   23.6350 C   0  0  0  0  0  0
  -16.7308  -28.6518   23.0366 C   0  0  0  0  0  0
  -26.4520  -31.6580   25.0770 C   0  0  0  0  0  0
  -25.3664  -31.3802   26.1447 C   0  0  0  0  0  0
  -27.0384  -30.2968   24.6424 C   0  0  0  0  0  0
  -27.6051  -32.4355   25.7543 C   0  0  0  0  0  0
  -27.5581  -37.1808   24.8473 C   0  0  0  0  0  0
  -21.4310  -29.3078   22.3584 N   0  0  0  0  0  0
  -26.4309  -37.3747   23.9373 N   0  0  0  0  0  0
  -24.7281  -31.0257   22.0886 N   0  0  0  0  0  0
  -23.4259  -28.8099   23.3049 O   0  0  0  0  0  0
  -28.2681  -26.0805   20.1958 O   0  0  0  0  0  0
  -26.5701  -34.8873   22.4632 O   0  0  0  0  0  0
  -23.5629  -32.1255   23.7063 O   0  0  0  0  0  0
  -30.3101  -23.5258   19.6184 C   0  0  0  0  0  0
  -29.6545  -20.7956   20.0760 C   0  0  0  0  0  0
  -29.0161  -23.2589   20.0969 C   0  0  0  0  0  0
  -30.8986  -21.2333   19.5227 C   0  0  0  0  0  0
  -28.7605  -18.3095   19.3792 C   0  0  0  0  0  0
  -29.3591  -19.1824   20.4313 C   0  0  1  0  0  0
  -29.9966  -17.6566   19.9918 C   0  0  1  0  0  0
  -31.8810  -19.9538   17.5431 C   0  0  0  0  0  0
  -31.9933  -20.2869   19.0438 C   0  0  0  0  0  0
  -27.9521  -24.5323   20.2145 C   0  0  0  0  0  0
  -31.2090  -22.5463   19.3252 N   0  0  0  0  0  0
  -28.7247  -21.8656   20.3295 N   0  0  0  0  0  0
  -29.7467  -16.1735   20.4599 N   0  0  0  0  0  0
  -31.4779  -12.7460   19.1944 H   0  0  0  0  0  0
  -30.4218  -11.6521   20.0351 H   0  0  0  0  0  0
  -29.8497  -11.7377   17.5906 H   0  0  0  0  0  0
  -29.6356  -13.4669   17.6808 H   0  0  0  0  0  0
  -27.9258  -11.2999   18.9282 H   0  0  0  0  0  0
  -27.4061  -12.5238   17.7989 H   0  0  0  0  0  0
  -27.5936  -14.2724   19.4320 H   0  0  0  0  0  0
  -28.7674  -12.3106   21.4532 H   0  0  0  0  0  0
  -28.3735  -13.9906   21.7535 H   0  0  0  0  0  0
  -25.2826   -9.5674   22.4773 H   0  0  0  0  0  0
  -24.0042   -7.4645   22.7476 H   0  0  0  0  0  0
  -21.0891   -8.8774   19.8974 H   0  0  0  0  0  0
  -22.3749  -10.9672   19.6175 H   0  0  0  0  0  0
  -21.1962   -7.6164   23.9733 H   0  0  0  0  0  0
  -21.1512   -6.0532   25.9092 H   0  0  0  0  0  0
  -22.0583   -2.7635   23.2827 H   0  0  0  0  0  0
  -22.4057  -11.9830   22.4849 H   0  0  0  0  0  0
  -21.1110  -13.1194   22.2648 H   0  0  0  0  0  0
  -24.6231  -15.8285   20.5247 H   0  0  0  0  0  0
  -26.2240  -15.6428   20.0287 H   0  0  0  0  0  0
  -26.7347  -32.5234   23.1000 H   0  0  0  0  0  0
  -25.0167  -33.9633   25.0345 H   0  0  0  0  0  0
  -22.7620  -31.2868   21.3822 H   0  0  0  0  0  0
  -23.3747  -35.9602   23.3390 H   0  0  0  0  0  0
  -24.3544  -36.8780   22.2029 H   0  0  0  0  0  0
  -23.7300  -37.6467   23.6626 H   0  0  0  0  0  0
  -26.1995  -31.4396   20.6261 H   0  0  0  0  0  0
  -26.8754  -30.7309   22.0510 H   0  0  0  0  0  0
  -28.1459  -28.7685   21.2222 H   0  0  0  0  0  0
  -25.8746  -25.8209   19.0163 H   0  0  0  0  0  0
  -23.9787  -27.3017   18.9794 H   0  0  0  0  0  0
  -23.8392  -30.5617   19.4009 H   0  0  0  0  0  0
  -22.7975  -29.2381   19.8396 H   0  0  0  0  0  0
  -25.1355  -36.1850   25.0800 H   0  0  0  0  0  0
  -21.0003  -28.3362   24.1366 H   0  0  0  0  0  0
  -20.5768  -26.2391   23.3648 H   0  0  0  0  0  0
  -21.6684  -26.7525   22.1178 H   0  0  0  0  0  0
  -19.6972  -25.6274   21.1315 H   0  0  0  0  0  0
  -19.6719  -27.3165   20.6738 H   0  0  0  0  0  0
  -17.4252  -26.6720   21.3999 H   0  0  0  0  0  0
  -18.0343  -26.0091   22.9013 H   0  0  0  0  0  0
  -19.7956  -30.7326   24.2223 H   0  0  0  0  0  0
  -17.5038  -31.6285   24.5172 H   0  0  0  0  0  0
  -15.5379  -30.3005   23.7686 H   0  0  0  0  0  0
  -15.8702  -28.0828   22.7129 H   0  0  0  0  0  0
  -24.5856  -30.7155   25.7721 H   0  0  0  0  0  0
  -24.8838  -32.3011   26.4772 H   0  0  0  0  0  0
  -25.7892  -30.9008   27.0297 H   0  0  0  0  0  0
  -26.3034  -29.6696   24.1397 H   0  0  0  0  0  0
  -27.3905  -29.7286   25.5033 H   0  0  0  0  0  0
  -27.8972  -30.4158   23.9823 H   0  0  0  0  0  0
  -27.2661  -33.3674   26.2078 H   0  0  0  0  0  0
  -28.3874  -32.6906   25.0384 H   0  0  0  0  0  0
  -28.0732  -31.8538   26.5493 H   0  0  0  0  0  0
  -28.2641  -38.0053   24.7466 H   0  0  0  0  0  0
  -28.1032  -36.2600   24.6394 H   0  0  0  0  0  0
  -27.2292  -37.1564   25.8867 H   0  0  0  0  0  0
  -20.9572  -29.8713   21.6635 H   0  0  0  0  0  0
  -26.0174  -38.2816   24.1327 H   0  0  0  0  0  0
  -30.6231  -24.5429   19.4336 H   0  0  0  0  0  0
  -28.8607  -18.6521   18.3497 H   0  0  0  0  0  0
  -27.7836  -17.8907   19.6121 H   0  0  0  0  0  0
  -28.8750  -19.1829   21.4063 H   0  0  0  0  0  0
  -30.8521  -17.6923   19.3234 H   0  0  0  0  0  0
  -32.7065  -19.3171   17.2158 H   0  0  0  0  0  0
  -31.9071  -20.8584   16.9306 H   0  0  0  0  0  0
  -30.9477  -19.4407   17.3072 H   0  0  0  0  0  0
  -32.0274  -19.3874   19.6514 H   0  0  0  0  0  0
  -32.9624  -20.7582   19.2141 H   0  0  0  0  0  0
  -27.3601  -24.3477   21.1115 H   0  0  0  0  0  0
  -27.2828  -24.3300   19.3828 H   0  0  0  0  0  0
  -28.7926  -15.9863   20.7271 H   0  0  0  0  0  0
  1 25  1  0  0  0
  1 30  2  0  0  0
  1 83  1  0  0  0
  2  3  1  0  0  0
  2 25  1  0  0  0
  2 84  1  0  0  0
  2 85  1  0  0  0
  3  4  1  0  0  0
  3 86  1  0  0  0
  3 87  1  0  0  0
  4  5  1  0  0  0
  4 88  1  0  0  0
  4 89  1  0  0  0
  5  6  1  0  0  0
  5 26  1  0  0  0
  5 90  1  0  0  0
  6 25  1  0  0  0
  6 91  1  0  0  0
  6 92  1  0  0  0
  7  8  2  0  0  0
  7 26  1  0  0  0
  7 29  1  0  0  0
  8  9  1  0  0  0
  8 22  1  0  0  0
  9 10  1  0  0  0
  9 27  2  0  0  0
 10 11  2  0  0  0
 10 15  1  0  0  0
 11 12  1  0  0  0
 11 93  1  0  0  0
 12 13  2  0  0  0
 12 94  1  0  0  0
 13 14  1  0  0  0
 13 31  1  0  0  0
 14 15  2  0  0  0
 14 95  1  0  0  0
 15 96  1  0  0  0
 16 17  2  0  0  0
 16 21  1  0  0  0
 16 31  1  0  0  0
 17 18  1  0  0  0
 17 97  1  0  0  0
 18 19  2  0  0  0
 18 98  1  0  0  0
 19 20  1  0  0  0
 19 24  1  0  0  0
 20 21  2  0  0  0
 20 99  1  0  0  0
 21 23  1  0  0  0
 22 28  1  0  0  0
 22 32  2  0  0  0
 26 27  1  0  0  0
 28100  1  0  0  0
 28101  1  0  0  0
 29102  1  0  0  0
 29103  1  0  0  0
 33 34  1  0  0  0
 33 66  1  0  0  0
 33 70  2  0  0  0
 34 36  1  0  0  0
 34 59  1  0  0  0
 34104  1  0  0  0
 35 44  2  0  0  0
 35 45  1  0  0  0
 35 68  1  0  0  0
 36 56  1  0  0  0
 36105  1  0  0  0
 37 39  1  0  0  0
 37 47  1  0  0  0
 37 66  1  0  0  0
 37106  1  0  0  0
 38 43  2  0  0  0
 38 46  1  0  0  0
 38 47  1  0  0  0
 39 64  1  0  0  0
 39 67  2  0  0  0
 40 52  1  0  0  0
 40 53  2  0  0  0
 40 58  1  0  0  0
 41107  1  0  0  0
 41108  1  0  0  0
 41109  1  0  0  0
 41 48  1  0  0  0
 42 43  1  0  0  0
 42 66  1  0  0  0
 42110  1  0  0  0
 42111  1  0  0  0
 43 44  1  0  0  0
 44112  1  0  0  0
 45 46  2  0  0  0
 45113  1  0  0  0
 46114  1  0  0  0
 47115  1  0  0  0
 47116  1  0  0  0
 48 56  1  0  0  0
 48 65  1  0  0  0
 48117  1  0  0  0
 49 50  1  0  0  0
 49 53  1  0  0  0
 49 64  1  0  0  0
 49118  1  0  0  0
 50 51  1  0  0  0
 50119  1  0  0  0
 50120  1  0  0  0
 51 52  1  0  0  0
 51121  1  0  0  0
 51122  1  0  0  0
 52123  1  0  0  0
 52124  1  0  0  0
 53 54  1  0  0  0
 54 55  2  0  0  0
 54125  1  0  0  0
 55 57  1  0  0  0
 55126  1  0  0  0
 56 69  2  0  0  0
 57 58  2  0  0  0
 57127  1  0  0  0
 58128  1  0  0  0
 59 60  1  0  0  0
 59 61  1  0  0  0
 59 62  1  0  0  0
 60129  1  0  0  0
 60130  1  0  0  0
 60131  1  0  0  0
 61132  1  0  0  0
 61133  1  0  0  0
 61134  1  0  0  0
 62135  1  0  0  0
 62136  1  0  0  0
 62137  1  0  0  0
 63 65  1  0  0  0
 63138  1  0  0  0
 63139  1  0  0  0
 63140  1  0  0  0
 64141  1  0  0  0
 65142  1  0  0  0
 68 80  1  0  0  0
 71 73  2  0  0  0
 71 81  1  0  0  0
 71143  1  0  0  0
 72 74  1  0  0  0
 72 82  2  0  0  0
 72 76  1  0  0  0
 73 80  1  0  0  0
 73 82  1  0  0  0
 74 79  1  0  0  0
 74 81  2  0  0  0
 75 76  1  0  0  0
 75 77  1  0  0  0
 75144  1  0  0  0
 75145  1  0  0  0
 76 77  1  0  0  0
 76146  1  0  0  0
 77 83  1  0  0  0
 77147  1  0  0  0
 78 79  1  0  0  0
 78148  1  0  0  0
 78149  1  0  0  0
 78150  1  0  0  0
 79151  1  0  0  0
 79152  1  0  0  0
 80153  1  0  0  0
 80154  1  0  0  0
 83155  1  0  0  0
M  ISO  4   1 100  68 101  80 101  83 100
M  END
> <chiral flag>
0

> <version>
0

> <s_m_source_file>
/data/baiqing/PycharmProjects/Reinvent-master-3.2/result/LINK_invent/BTK/process_docking_weight1_custom_sum_contain_oxygen_bond_distance_aromatic_linkinvent_7_9_3/rearranged_h_0193.sdf

> <i_m_source_file_index>
81

> <r_mmod_Potential_Energy-OPLS-2005>
704.430908203125

> <r_mmod_Stretch_Energy-OPLS-2005>
326.846954345703

> <r_mmod_Bend_Energy-OPLS-2005>
272.713073730469

> <r_mmod_Torsional_Energy-OPLS-2005>
256.5810546875

> <r_mmod_Improper_Torsional_Energy-OPLS-2005>
6.08254289627075

> <r_mmod_Van_der_Waal_Energy-OPLS-2005>
128.809326171875

> <r_mmod_Electrostatic_Energy-OPLS-2005>
-280.312530517578

> <r_mmod_Solvation_Energy-OPLS-2005>
-229.699356079102

> <b_mmod_Minimization_Converged-OPLS-2005>
0

> <r_mmod_RMS_Derivative-OPLS-2005>
6.03655338287354

$$$$
81
                    3D
 Structure written by MMmdl.
157166  0  0  1  0            999 V2000
  -30.6834  -14.6254   20.4796 C   0  0  0  0  0  0
  -30.4164  -12.3837   19.4562 C   0  0  0  0  0  0
  -29.4991  -12.4953   18.2218 C   0  0  0  0  0  0
  -28.0235  -12.3410   18.6367 C   0  0  0  0  0  0
  -27.6443  -13.2280   19.8536 C   0  0  2  0  0  0
  -28.6909  -13.1380   20.9855 C   0  0  0  0  0  0
  -25.2531  -13.8203   20.5705 C   0  0  0  0  0  0
  -24.1807  -13.0449   20.9189 C   0  0  0  0  0  0
  -24.6391  -11.6926   20.8740 C   0  0  0  0  0  0
  -23.9068  -10.4301   21.0404 C   0  0  0  0  0  0
  -24.3620   -9.4217   21.9181 C   0  0  0  0  0  0
  -23.6297   -8.2252   22.0756 C   0  0  0  0  0  0
  -22.4281   -8.0283   21.3546 C   0  0  0  0  0  0
  -21.9915   -9.0255   20.4646 C   0  0  0  0  0  0
  -22.7240  -10.2136   20.3053 C   0  0  0  0  0  0
  -21.6856   -6.0734   22.5277 C   0  0  0  0  0  0
  -21.4016   -6.5641   23.8209 C   0  0  0  0  0  0
  -21.3660   -5.6796   24.9173 C   0  0  0  0  0  0
  -21.6047   -4.3058   24.7228 C   0  0  0  0  0  0
  -21.8821   -3.8148   23.4350 C   0  0  0  0  0  0
  -21.9196   -4.6962   22.3403 C   0  0  0  0  0  0
  -22.7830  -13.5230   21.1855 C   0  0  0  0  0  0
  -22.1662   -4.2145   21.0980 F   0  0  0  0  0  0
  -21.5632   -3.4544   25.7743 F   0  0  0  0  0  0
  -30.0011  -13.4408   20.3995 N   0  0  0  0  0  0
  -26.2955  -12.9402   20.3313 N   0  0  0  0  0  0
  -25.9325  -11.6546   20.5764 N   0  0  0  0  0  0
  -22.0481  -12.8212   22.0411 N   0  0  0  0  0  0
  -25.4268  -15.1923   20.4153 N   0  0  0  0  0  0
  -31.8795  -14.6816   20.1765 O   0  0  0  0  0  0
  -21.6646   -6.8878   21.4240 O   0  0  0  0  0  0
  -22.3508  -14.5534   20.6711 O   0  0  0  0  0  0
  -24.6270  -31.8617   23.2055 C   0  0  0  0  0  0
  -25.9122  -32.4786   23.8376 C   0  0  1  0  0  0
  -27.2106  -27.3170   20.1090 C   0  0  0  0  0  0
  -25.5944  -33.8588   24.2300 N   0  0  0  0  0  0
  -23.4187  -30.4894   21.5492 C   0  0  2  0  0  0
  -24.8616  -28.9523   20.1092 C   0  0  0  0  0  0
  -22.7469  -29.4643   22.4943 C   0  0  0  0  0  0
  -18.0286  -28.1381   22.8491 C   0  0  0  0  0  0
  -24.1490  -36.7294   23.2636 C   0  0  0  0  0  0
  -25.9624  -30.7910   21.3786 C   0  0  0  0  0  0
  -26.0335  -29.4208   20.7168 C   0  0  0  0  0  0
  -27.2114  -28.6142   20.7103 C   0  0  0  0  0  0
  -26.0137  -26.9131   19.4674 C   0  0  0  0  0  0
  -24.8542  -27.7039   19.4760 C   0  0  0  0  0  0
  -23.6314  -29.8322   20.1622 C   0  0  0  0  0  0
  -25.4115  -36.3090   24.0330 C   0  0  1  0  0  0
  -20.5884  -28.3694   23.1281 C   0  0  2  0  0  0
  -20.6780  -26.9421   22.5405 C   0  0  0  0  0  0
  -19.5754  -26.6385   21.5212 C   0  0  0  0  0  0
  -18.1933  -26.7928   22.1621 C   0  0  0  0  0  0
  -19.1537  -28.8852   23.2882 C   0  0  0  0  0  0
  -18.9460  -30.1453   23.8903 C   0  0  0  0  0  0
  -17.6461  -30.6588   24.0561 C   0  0  0  0  0  0
  -25.9054  -34.9458   23.5111 C   0  0  0  0  0  0
  -16.5352  -29.9084   23.6331 C   0  0  0  0  0  0
  -16.7274  -28.6494   23.0366 C   0  0  0  0  0  0
  -26.4502  -31.6589   25.0741 C   0  0  0  0  0  0
  -25.3733  -31.3722   26.1463 C   0  0  0  0  0  0
  -27.0343  -30.3014   24.6193 C   0  0  0  0  0  0
  -27.6064  -32.4317   25.7511 C   0  0  0  0  0  0
  -27.5585  -37.1801   24.8461 C   0  0  0  0  0  0
  -21.4183  -29.3053   22.3679 N   0  0  0  0  0  0
  -26.4293  -37.3786   23.9411 N   0  0  0  0  0  0
  -24.6884  -31.0630   22.1010 N   0  0  0  0  0  0
  -23.4196  -28.8173   23.3012 O   0  0  0  0  0  0
  -28.3093  -26.4418   20.1758 O   0  0  0  0  0  0
  -26.5613  -34.8922   22.4670 O   0  0  0  0  0  0
  -23.5436  -32.1419   23.7384 O   0  0  0  0  0  0
  -31.2340  -22.9247   20.5746 C   0  0  0  0  0  0
  -30.4419  -24.0725   20.3848 C   0  0  0  0  0  0
  -29.0544  -23.8608   20.2550 C   0  0  0  0  0  0
  -29.4216  -21.5412   20.4802 C   0  0  0  0  0  0
  -28.9790  -17.9145   19.4591 C   0  0  0  0  0  0
  -29.6778  -18.1320   21.7739 C   0  0  0  0  0  0
  -29.7402  -16.5501   19.3540 C   0  0  0  0  0  0
  -30.4308  -16.7549   21.6733 C   0  0  0  0  0  0
  -29.6240  -18.9216   20.4416 C   0  0  0  0  0  0
  -28.0262  -25.0028   19.9382 C   0  0  0  0  0  0
  -30.7293  -21.6697   20.6155 N   0  0  0  0  0  0
  -28.5704  -22.5683   20.3106 N   0  0  0  0  0  0
  -29.9719  -15.8024   20.6216 N   0  0  0  0  0  0
  -28.9004  -20.2333   20.5086 N   0  0  0  0  0  0
  -31.1814  -25.6328   20.2923 Cl  0  0  0  0  0  0
  -31.4618  -12.4735   19.1562 H   0  0  0  0  0  0
  -30.3217  -11.4014   19.9217 H   0  0  0  0  0  0
  -29.7622  -11.7360   17.4840 H   0  0  0  0  0  0
  -29.6474  -13.4603   17.7341 H   0  0  0  0  0  0
  -27.8610  -11.2904   18.8801 H   0  0  0  0  0  0
  -27.3694  -12.5602   17.7920 H   0  0  0  0  0  0
  -27.6462  -14.2553   19.4908 H   0  0  0  0  0  0
  -28.6973  -12.1440   21.4348 H   0  0  0  0  0  0
  -28.4508  -13.8395   21.7862 H   0  0  0  0  0  0
  -25.2765   -9.5697   22.4753 H   0  0  0  0  0  0
  -24.0010   -7.4646   22.7476 H   0  0  0  0  0  0
  -21.0848   -8.8768   19.8948 H   0  0  0  0  0  0
  -22.3693  -10.9673   19.6161 H   0  0  0  0  0  0
  -21.2003   -7.6149   23.9708 H   0  0  0  0  0  0
  -21.1480   -6.0530   25.9075 H   0  0  0  0  0  0
  -22.0600   -2.7609   23.2856 H   0  0  0  0  0  0
  -22.4112  -11.9871   22.4785 H   0  0  0  0  0  0
  -21.1097  -13.1225   22.2624 H   0  0  0  0  0  0
  -24.6704  -15.8565   20.5387 H   0  0  0  0  0  0
  -26.2975  -15.6288   20.1399 H   0  0  0  0  0  0
  -26.7187  -32.5454   23.1124 H   0  0  0  0  0  0
  -25.0113  -33.9738   25.0458 H   0  0  0  0  0  0
  -22.7130  -31.3112   21.4107 H   0  0  0  0  0  0
  -23.3761  -35.9616   23.3287 H   0  0  0  0  0  0
  -24.3586  -36.8927   22.2054 H   0  0  0  0  0  0
  -23.7232  -37.6489   23.6662 H   0  0  0  0  0  0
  -26.0972  -31.5564   20.6131 H   0  0  0  0  0  0
  -26.8421  -30.8347   22.0091 H   0  0  0  0  0  0
  -28.1069  -28.9654   21.2038 H   0  0  0  0  0  0
  -25.9252  -25.9661   18.9581 H   0  0  0  0  0  0
  -23.9575  -27.3415   18.9922 H   0  0  0  0  0  0
  -23.7503  -30.6120   19.4091 H   0  0  0  0  0  0
  -22.7503  -29.2640   19.8582 H   0  0  0  0  0  0
  -25.1294  -36.1947   25.0823 H   0  0  0  0  0  0
  -20.9980  -28.3270   24.1399 H   0  0  0  0  0  0
  -20.5693  -26.2305   23.3602 H   0  0  0  0  0  0
  -21.6649  -26.7459   22.1198 H   0  0  0  0  0  0
  -19.6922  -25.6295   21.1244 H   0  0  0  0  0  0
  -19.6690  -27.3189   20.6736 H   0  0  0  0  0  0
  -17.4208  -26.6683   21.4018 H   0  0  0  0  0  0
  -18.0330  -26.0059   22.9006 H   0  0  0  0  0  0
  -19.7935  -30.7266   24.2279 H   0  0  0  0  0  0
  -17.5016  -31.6270   24.5158 H   0  0  0  0  0  0
  -15.5353  -30.2990   23.7648 H   0  0  0  0  0  0
  -15.8673  -28.0807   22.7096 H   0  0  0  0  0  0
  -24.5909  -30.7072   25.7786 H   0  0  0  0  0  0
  -24.8921  -32.2885   26.4894 H   0  0  0  0  0  0
  -25.8057  -30.8895   27.0235 H   0  0  0  0  0  0
  -26.2918  -29.6766   24.1214 H   0  0  0  0  0  0
  -27.4037  -29.7271   25.4699 H   0  0  0  0  0  0
  -27.8793  -30.4302   23.9424 H   0  0  0  0  0  0
  -27.2683  -33.3617   26.2095 H   0  0  0  0  0  0
  -28.3876  -32.6875   25.0340 H   0  0  0  0  0  0
  -28.0729  -31.8435   26.5424 H   0  0  0  0  0  0
  -28.2591  -38.0111   24.7539 H   0  0  0  0  0  0
  -28.1097  -36.2645   24.6256 H   0  0  0  0  0  0
  -27.2306  -37.1418   25.8865 H   0  0  0  0  0  0
  -20.9354  -29.8792   21.6909 H   0  0  0  0  0  0
  -26.0176  -38.2859   24.1424 H   0  0  0  0  0  0
  -32.3055  -23.0111   20.6782 H   0  0  0  0  0  0
  -27.9463  -17.7201   19.7539 H   0  0  0  0  0  0
  -28.9256  -18.3618   18.4655 H   0  0  0  0  0  0
  -30.1600  -18.7433   22.5378 H   0  0  0  0  0  0
  -28.6635  -17.9524   22.1342 H   0  0  0  0  0  0
  -30.7059  -16.7392   18.8802 H   0  0  0  0  0  0
  -29.1968  -15.9045   18.6623 H   0  0  0  0  0  0
  -30.3703  -16.2525   22.6403 H   0  0  0  0  0  0
  -31.4915  -16.9621   21.5154 H   0  0  0  0  0  0
  -30.6454  -19.1172   20.1112 H   0  0  0  0  0  0
  -27.1263  -24.7361   20.4950 H   0  0  0  0  0  0
  -27.7962  -24.8803   18.8797 H   0  0  0  0  0  0
  -27.8944  -20.1921   20.4027 H   0  0  0  0  0  0
  1 25  1  0  0  0
  1 30  2  0  0  0
  1 83  1  0  0  0
  2  3  1  0  0  0
  2 25  1  0  0  0
  2 86  1  0  0  0
  2 87  1  0  0  0
  3  4  1  0  0  0
  3 88  1  0  0  0
  3 89  1  0  0  0
  4  5  1  0  0  0
  4 90  1  0  0  0
  4 91  1  0  0  0
  5  6  1  0  0  0
  5 26  1  0  0  0
  5 92  1  0  0  0
  6 25  1  0  0  0
  6 93  1  0  0  0
  6 94  1  0  0  0
  7  8  2  0  0  0
  7 26  1  0  0  0
  7 29  1  0  0  0
  8  9  1  0  0  0
  8 22  1  0  0  0
  9 10  1  0  0  0
  9 27  2  0  0  0
 10 11  2  0  0  0
 10 15  1  0  0  0
 11 12  1  0  0  0
 11 95  1  0  0  0
 12 13  2  0  0  0
 12 96  1  0  0  0
 13 14  1  0  0  0
 13 31  1  0  0  0
 14 15  2  0  0  0
 14 97  1  0  0  0
 15 98  1  0  0  0
 16 17  2  0  0  0
 16 21  1  0  0  0
 16 31  1  0  0  0
 17 18  1  0  0  0
 17 99  1  0  0  0
 18 19  2  0  0  0
 18100  1  0  0  0
 19 20  1  0  0  0
 19 24  1  0  0  0
 20 21  2  0  0  0
 20101  1  0  0  0
 21 23  1  0  0  0
 22 28  1  0  0  0
 22 32  2  0  0  0
 26 27  1  0  0  0
 28102  1  0  0  0
 28103  1  0  0  0
 29104  1  0  0  0
 29105  1  0  0  0
 33 34  1  0  0  0
 33 66  1  0  0  0
 33 70  2  0  0  0
 34 36  1  0  0  0
 34 59  1  0  0  0
 34106  1  0  0  0
 35 44  2  0  0  0
 35 45  1  0  0  0
 35 68  1  0  0  0
 36 56  1  0  0  0
 36107  1  0  0  0
 37 39  1  0  0  0
 37 47  1  0  0  0
 37 66  1  0  0  0
 37108  1  0  0  0
 38 43  2  0  0  0
 38 46  1  0  0  0
 38 47  1  0  0  0
 39 64  1  0  0  0
 39 67  2  0  0  0
 40 52  1  0  0  0
 40 53  2  0  0  0
 40 58  1  0  0  0
 41109  1  0  0  0
 41110  1  0  0  0
 41111  1  0  0  0
 41 48  1  0  0  0
 42 43  1  0  0  0
 42 66  1  0  0  0
 42112  1  0  0  0
 42113  1  0  0  0
 43 44  1  0  0  0
 44114  1  0  0  0
 45 46  2  0  0  0
 45115  1  0  0  0
 46116  1  0  0  0
 47117  1  0  0  0
 47118  1  0  0  0
 48 56  1  0  0  0
 48 65  1  0  0  0
 48119  1  0  0  0
 49 50  1  0  0  0
 49 53  1  0  0  0
 49 64  1  0  0  0
 49120  1  0  0  0
 50 51  1  0  0  0
 50121  1  0  0  0
 50122  1  0  0  0
 51 52  1  0  0  0
 51123  1  0  0  0
 51124  1  0  0  0
 52125  1  0  0  0
 52126  1  0  0  0
 53 54  1  0  0  0
 54 55  2  0  0  0
 54127  1  0  0  0
 55 57  1  0  0  0
 55128  1  0  0  0
 56 69  2  0  0  0
 57 58  2  0  0  0
 57129  1  0  0  0
 58130  1  0  0  0
 59 60  1  0  0  0
 59 61  1  0  0  0
 59 62  1  0  0  0
 60131  1  0  0  0
 60132  1  0  0  0
 60133  1  0  0  0
 61134  1  0  0  0
 61135  1  0  0  0
 61136  1  0  0  0
 62137  1  0  0  0
 62138  1  0  0  0
 62139  1  0  0  0
 63 65  1  0  0  0
 63140  1  0  0  0
 63141  1  0  0  0
 63142  1  0  0  0
 64143  1  0  0  0
 65144  1  0  0  0
 68 80  1  0  0  0
 71 72  2  0  0  0
 71 81  1  0  0  0
 71145  1  0  0  0
 72 73  1  0  0  0
 72 85  1  0  0  0
 73 80  1  0  0  0
 73 82  2  0  0  0
 74 81  2  0  0  0
 74 82  1  0  0  0
 74 84  1  0  0  0
 75 77  1  0  0  0
 75 79  1  0  0  0
 75146  1  0  0  0
 75147  1  0  0  0
 76 78  1  0  0  0
 76 79  1  0  0  0
 76148  1  0  0  0
 76149  1  0  0  0
 77 83  1  0  0  0
 77150  1  0  0  0
 77151  1  0  0  0
 78 83  1  0  0  0
 78152  1  0  0  0
 78153  1  0  0  0
 79 84  1  0  0  0
 79154  1  0  0  0
 80155  1  0  0  0
 80156  1  0  0  0
 84157  1  0  0  0
M  ISO  4   1 100  68 101  80 101  83 100
M  END
> <chiral flag>
0

> <version>
0

> <s_m_source_file>
/data/baiqing/PycharmProjects/Reinvent-master-3.2/result/LINK_invent/BTK/process_docking_weight1_custom_sum_contain_oxygen_bond_distance_aromatic_linkinvent_7_9_3/rearranged_h_0193.sdf

> <i_m_source_file_index>
82

> <r_mmod_Potential_Energy-OPLS-2005>
-169.688629150391

> <r_mmod_Stretch_Energy-OPLS-2005>
74.8468704223633

> <r_mmod_Bend_Energy-OPLS-2005>
157.670394897461

> <r_mmod_Torsional_Energy-OPLS-2005>
318.961761474609

> <r_mmod_Improper_Torsional_Energy-OPLS-2005>
11.8184776306152

> <r_mmod_Van_der_Waal_Energy-OPLS-2005>
158.850189208984

> <r_mmod_Electrostatic_Energy-OPLS-2005>
-721.878540039062

> <r_mmod_Solvation_Energy-OPLS-2005>
-223.907577514648

> <b_mmod_Minimization_Converged-OPLS-2005>
0

> <r_mmod_RMS_Derivative-OPLS-2005>
0.594836533069611

$$$$
82
                    3D
 Structure written by MMmdl.
163172  0  0  1  0            999 V2000
  -30.6500  -14.6402   20.5134 C   0  0  0  0  0  0
  -30.4346  -12.4020   19.4469 C   0  0  0  0  0  0
  -29.5036  -12.5156   18.2193 C   0  0  0  0  0  0
  -28.0258  -12.3601   18.6322 C   0  0  0  0  0  0
  -27.6545  -13.2199   19.8712 C   0  0  2  0  0  0
  -28.7044  -13.0508   20.9913 C   0  0  0  0  0  0
  -25.2559  -13.8176   20.5708 C   0  0  0  0  0  0
  -24.1820  -13.0439   20.9192 C   0  0  0  0  0  0
  -24.6393  -11.6912   20.8743 C   0  0  0  0  0  0
  -23.9058  -10.4295   21.0402 C   0  0  0  0  0  0
  -24.3606   -9.4210   21.9187 C   0  0  0  0  0  0
  -23.6287   -8.2243   22.0748 C   0  0  0  0  0  0
  -22.4276   -8.0280   21.3536 C   0  0  0  0  0  0
  -21.9905   -9.0250   20.4636 C   0  0  0  0  0  0
  -22.7226  -10.2135   20.3051 C   0  0  0  0  0  0
  -21.6853   -6.0733   22.5275 C   0  0  0  0  0  0
  -21.4015   -6.5634   23.8209 C   0  0  0  0  0  0
  -21.3660   -5.6787   24.9173 C   0  0  0  0  0  0
  -21.6040   -4.3049   24.7222 C   0  0  0  0  0  0
  -21.8819   -3.8144   23.4343 C   0  0  0  0  0  0
  -21.9195   -4.6961   22.3399 C   0  0  0  0  0  0
  -22.7841  -13.5229   21.1853 C   0  0  0  0  0  0
  -22.1662   -4.2144   21.0979 F   0  0  0  0  0  0
  -21.5632   -3.4538   25.7736 F   0  0  0  0  0  0
  -30.0079  -13.4269   20.4251 N   0  0  0  0  0  0
  -26.2998  -12.9361   20.3374 N   0  0  0  0  0  0
  -25.9328  -11.6510   20.5777 N   0  0  0  0  0  0
  -22.0481  -12.8226   22.0406 N   0  0  0  0  0  0
  -25.4282  -15.1893   20.4113 N   0  0  0  0  0  0
  -31.8068  -14.7547   20.0926 O   0  0  0  0  0  0
  -21.6640   -6.8880   21.4240 O   0  0  0  0  0  0
  -22.3526  -14.5538   20.6706 O   0  0  0  0  0  0
  -24.6275  -31.8600   23.2017 C   0  0  0  0  0  0
  -25.9111  -32.4775   23.8359 C   0  0  1  0  0  0
  -27.2243  -27.3166   20.1087 C   0  0  0  0  0  0
  -25.5930  -33.8575   24.2285 N   0  0  0  0  0  0
  -23.4212  -30.4815   21.5460 C   0  0  2  0  0  0
  -24.8657  -28.9357   20.1176 C   0  0  0  0  0  0
  -22.7484  -29.4598   22.4941 C   0  0  0  0  0  0
  -18.0283  -28.1378   22.8453 C   0  0  0  0  0  0
  -24.1490  -36.7290   23.2646 C   0  0  0  0  0  0
  -25.9631  -30.7892   21.3745 C   0  0  0  0  0  0
  -26.0362  -29.4148   20.7193 C   0  0  0  0  0  0
  -27.2195  -28.6163   20.7040 C   0  0  0  0  0  0
  -26.0308  -26.8965   19.4789 C   0  0  0  0  0  0
  -24.8642  -27.6816   19.4918 C   0  0  0  0  0  0
  -23.6369  -29.8183   20.1618 C   0  0  0  0  0  0
  -25.4105  -36.3079   24.0337 C   0  0  1  0  0  0
  -20.5882  -28.3680   23.1273 C   0  0  2  0  0  0
  -20.6761  -26.9405   22.5396 C   0  0  0  0  0  0
  -19.5744  -26.6374   21.5192 C   0  0  0  0  0  0
  -18.1923  -26.7916   22.1609 C   0  0  0  0  0  0
  -19.1540  -28.8844   23.2852 C   0  0  0  0  0  0
  -18.9473  -30.1433   23.8885 C   0  0  0  0  0  0
  -17.6479  -30.6578   24.0541 C   0  0  0  0  0  0
  -25.9048  -34.9451   23.5108 C   0  0  0  0  0  0
  -16.5359  -29.9071   23.6324 C   0  0  0  0  0  0
  -16.7275  -28.6496   23.0324 C   0  0  0  0  0  0
  -26.4491  -31.6581   25.0733 C   0  0  0  0  0  0
  -25.3727  -31.3706   26.1463 C   0  0  0  0  0  0
  -27.0341  -30.3018   24.6166 C   0  0  0  0  0  0
  -27.6063  -32.4308   25.7506 C   0  0  0  0  0  0
  -27.5565  -37.1790   24.8465 C   0  0  0  0  0  0
  -21.4194  -29.3048   22.3696 N   0  0  0  0  0  0
  -26.4282  -37.3768   23.9417 N   0  0  0  0  0  0
  -24.6894  -31.0590   22.0989 N   0  0  0  0  0  0
  -23.4201  -28.8128   23.3010 O   0  0  0  0  0  0
  -28.3516  -26.4795   20.1149 O   0  0  0  0  0  0
  -26.5615  -34.8918   22.4672 O   0  0  0  0  0  0
  -23.5427  -32.1403   23.7327 O   0  0  0  0  0  0
  -29.2187  -19.6982   20.4130 C   0  0  0  0  0  0
  -30.4513  -21.6990   20.4931 C   0  0  0  0  0  0
  -29.3028  -22.5037   20.1874 C   0  0  0  0  0  0
  -28.0824  -20.5041   20.0685 C   0  0  0  0  0  0
  -29.1840  -17.6624   22.1051 C   0  0  0  0  0  0
  -29.2311  -16.1193   21.9863 C   0  0  0  0  0  0
  -30.0766  -17.0886   19.9923 C   0  0  0  0  0  0
  -29.1224  -18.1364   20.6608 C   0  0  2  0  0  0
  -32.1849  -22.6593   22.0872 C   0  0  0  0  0  0
  -31.8426  -22.2997   20.6378 C   0  0  0  0  0  0
  -29.3793  -24.0646   19.9453 C   0  0  0  0  0  0
  -28.1595  -25.0143   20.2935 C   0  0  0  0  0  0
  -30.4020  -20.3330   20.6323 N   0  0  0  0  0  0
  -28.1255  -21.8635   19.9459 N   0  0  0  0  0  0
  -29.8866  -15.7792   20.7100 N   0  0  0  0  0  0
  -26.8240  -19.9604   19.8497 N   0  0  0  0  0  0
  -31.4760  -12.5188   19.1422 H   0  0  0  0  0  0
  -30.3691  -11.4054   19.8852 H   0  0  0  0  0  0
  -29.7638  -11.7620   17.4743 H   0  0  0  0  0  0
  -29.6509  -13.4842   17.7387 H   0  0  0  0  0  0
  -27.8593  -11.3064   18.8567 H   0  0  0  0  0  0
  -27.3703  -12.6002   17.7943 H   0  0  0  0  0  0
  -27.6777  -14.2613   19.5492 H   0  0  0  0  0  0
  -28.7295  -12.0127   21.3262 H   0  0  0  0  0  0
  -28.4493  -13.6210   21.8804 H   0  0  0  0  0  0
  -25.2751   -9.5693   22.4764 H   0  0  0  0  0  0
  -23.9993   -7.4637   22.7467 H   0  0  0  0  0  0
  -21.0835   -8.8762   19.8943 H   0  0  0  0  0  0
  -22.3677  -10.9673   19.6157 H   0  0  0  0  0  0
  -21.2007   -7.6143   23.9706 H   0  0  0  0  0  0
  -21.1484   -6.0524   25.9074 H   0  0  0  0  0  0
  -22.0600   -2.7607   23.2847 H   0  0  0  0  0  0
  -22.4093  -11.9891   22.4812 H   0  0  0  0  0  0
  -21.1091  -13.1249   22.2591 H   0  0  0  0  0  0
  -24.6620  -15.8459   20.5098 H   0  0  0  0  0  0
  -26.2852  -15.6225   20.0935 H   0  0  0  0  0  0
  -26.7193  -32.5457   23.1121 H   0  0  0  0  0  0
  -25.0089  -33.9722   25.0435 H   0  0  0  0  0  0
  -22.7145  -31.3000   21.4020 H   0  0  0  0  0  0
  -23.3754  -35.9620   23.3311 H   0  0  0  0  0  0
  -24.3597  -36.8904   22.2062 H   0  0  0  0  0  0
  -23.7241  -37.6491   23.6665 H   0  0  0  0  0  0
  -26.0891  -31.5509   20.6035 H   0  0  0  0  0  0
  -26.8436  -30.8398   22.0026 H   0  0  0  0  0  0
  -28.1214  -28.9809   21.1755 H   0  0  0  0  0  0
  -25.9715  -25.9595   18.9486 H   0  0  0  0  0  0
  -23.9703  -27.3124   19.0086 H   0  0  0  0  0  0
  -23.7633  -30.5971   19.4090 H   0  0  0  0  0  0
  -22.7568  -29.2514   19.8537 H   0  0  0  0  0  0
  -25.1280  -36.1937   25.0826 H   0  0  0  0  0  0
  -20.9934  -28.3251   24.1408 H   0  0  0  0  0  0
  -20.5629  -26.2302   23.3598 H   0  0  0  0  0  0
  -21.6630  -26.7394   22.1213 H   0  0  0  0  0  0
  -19.6908  -25.6281   21.1236 H   0  0  0  0  0  0
  -19.6693  -27.3165   20.6712 H   0  0  0  0  0  0
  -17.4175  -26.6643   21.4031 H   0  0  0  0  0  0
  -18.0334  -26.0057   22.9020 H   0  0  0  0  0  0
  -19.7962  -30.7221   24.2261 H   0  0  0  0  0  0
  -17.5047  -31.6258   24.5138 H   0  0  0  0  0  0
  -15.5356  -30.2959   23.7663 H   0  0  0  0  0  0
  -15.8681  -28.0807   22.7033 H   0  0  0  0  0  0
  -24.5936  -30.7012   25.7803 H   0  0  0  0  0  0
  -24.8872  -32.2861   26.4861 H   0  0  0  0  0  0
  -25.8060  -30.8924   27.0264 H   0  0  0  0  0  0
  -26.2906  -29.6778   24.1198 H   0  0  0  0  0  0
  -27.4082  -29.7264   25.4647 H   0  0  0  0  0  0
  -27.8760  -30.4339   23.9364 H   0  0  0  0  0  0
  -27.2691  -33.3632   26.2051 H   0  0  0  0  0  0
  -28.3891  -32.6815   25.0335 H   0  0  0  0  0  0
  -28.0710  -31.8447   26.5449 H   0  0  0  0  0  0
  -28.2562  -38.0099   24.7497 H   0  0  0  0  0  0
  -28.1078  -36.2627   24.6301 H   0  0  0  0  0  0
  -27.2297  -37.1440   25.8872 H   0  0  0  0  0  0
  -20.9374  -29.8822   21.6953 H   0  0  0  0  0  0
  -26.0173  -38.2850   24.1416 H   0  0  0  0  0  0
  -30.0974  -18.0331   22.5737 H   0  0  0  0  0  0
  -28.3379  -18.0138   22.6971 H   0  0  0  0  0  0
  -28.2050  -15.7518   21.9689 H   0  0  0  0  0  0
  -29.7365  -15.6686   22.8428 H   0  0  0  0  0  0
  -31.1157  -17.4051   20.0941 H   0  0  0  0  0  0
  -29.8685  -16.9923   18.9248 H   0  0  0  0  0  0
  -28.1340  -17.8530   20.3027 H   0  0  0  0  0  0
  -33.1878  -23.0821   22.1499 H   0  0  0  0  0  0
  -32.1558  -21.7757   22.7252 H   0  0  0  0  0  0
  -31.4861  -23.3916   22.4909 H   0  0  0  0  0  0
  -31.9513  -23.1672   19.9867 H   0  0  0  0  0  0
  -32.5771  -21.5808   20.2703 H   0  0  0  0  0  0
  -29.6465  -24.2099   18.8984 H   0  0  0  0  0  0
  -30.2234  -24.4455   20.5173 H   0  0  0  0  0  0
  -27.8814  -24.8516   21.3346 H   0  0  0  0  0  0
  -27.3252  -24.6389   19.7083 H   0  0  0  0  0  0
  -26.6357  -18.9996   20.1112 H   0  0  0  0  0  0
  -26.0104  -20.5613   19.8242 H   0  0  0  0  0  0
  1 25  1  0  0  0
  1 30  2  0  0  0
  1 85  1  0  0  0
  2  3  1  0  0  0
  2 25  1  0  0  0
  2 87  1  0  0  0
  2 88  1  0  0  0
  3  4  1  0  0  0
  3 89  1  0  0  0
  3 90  1  0  0  0
  4  5  1  0  0  0
  4 91  1  0  0  0
  4 92  1  0  0  0
  5  6  1  0  0  0
  5 26  1  0  0  0
  5 93  1  0  0  0
  6 25  1  0  0  0
  6 94  1  0  0  0
  6 95  1  0  0  0
  7  8  2  0  0  0
  7 26  1  0  0  0
  7 29  1  0  0  0
  8  9  1  0  0  0
  8 22  1  0  0  0
  9 10  1  0  0  0
  9 27  2  0  0  0
 10 11  2  0  0  0
 10 15  1  0  0  0
 11 12  1  0  0  0
 11 96  1  0  0  0
 12 13  2  0  0  0
 12 97  1  0  0  0
 13 14  1  0  0  0
 13 31  1  0  0  0
 14 15  2  0  0  0
 14 98  1  0  0  0
 15 99  1  0  0  0
 16 17  2  0  0  0
 16 21  1  0  0  0
 16 31  1  0  0  0
 17 18  1  0  0  0
 17100  1  0  0  0
 18 19  2  0  0  0
 18101  1  0  0  0
 19 20  1  0  0  0
 19 24  1  0  0  0
 20 21  2  0  0  0
 20102  1  0  0  0
 21 23  1  0  0  0
 22 28  1  0  0  0
 22 32  2  0  0  0
 26 27  1  0  0  0
 28103  1  0  0  0
 28104  1  0  0  0
 29105  1  0  0  0
 29106  1  0  0  0
 33 34  1  0  0  0
 33 66  1  0  0  0
 33 70  2  0  0  0
 34 36  1  0  0  0
 34 59  1  0  0  0
 34107  1  0  0  0
 35 44  2  0  0  0
 35 45  1  0  0  0
 35 68  1  0  0  0
 36 56  1  0  0  0
 36108  1  0  0  0
 37 39  1  0  0  0
 37 47  1  0  0  0
 37 66  1  0  0  0
 37109  1  0  0  0
 38 43  2  0  0  0
 38 46  1  0  0  0
 38 47  1  0  0  0
 39 64  1  0  0  0
 39 67  2  0  0  0
 40 52  1  0  0  0
 40 53  2  0  0  0
 40 58  1  0  0  0
 41110  1  0  0  0
 41111  1  0  0  0
 41112  1  0  0  0
 41 48  1  0  0  0
 42 43  1  0  0  0
 42 66  1  0  0  0
 42113  1  0  0  0
 42114  1  0  0  0
 43 44  1  0  0  0
 44115  1  0  0  0
 45 46  2  0  0  0
 45116  1  0  0  0
 46117  1  0  0  0
 47118  1  0  0  0
 47119  1  0  0  0
 48 56  1  0  0  0
 48 65  1  0  0  0
 48120  1  0  0  0
 49 50  1  0  0  0
 49 53  1  0  0  0
 49 64  1  0  0  0
 49121  1  0  0  0
 50 51  1  0  0  0
 50122  1  0  0  0
 50123  1  0  0  0
 51 52  1  0  0  0
 51124  1  0  0  0
 51125  1  0  0  0
 52126  1  0  0  0
 52127  1  0  0  0
 53 54  1  0  0  0
 54 55  2  0  0  0
 54128  1  0  0  0
 55 57  1  0  0  0
 55129  1  0  0  0
 56 69  2  0  0  0
 57 58  2  0  0  0
 57130  1  0  0  0
 58131  1  0  0  0
 59 60  1  0  0  0
 59 61  1  0  0  0
 59 62  1  0  0  0
 60132  1  0  0  0
 60133  1  0  0  0
 60134  1  0  0  0
 61135  1  0  0  0
 61136  1  0  0  0
 61137  1  0  0  0
 62138  1  0  0  0
 62139  1  0  0  0
 62140  1  0  0  0
 63 65  1  0  0  0
 63141  1  0  0  0
 63142  1  0  0  0
 63143  1  0  0  0
 64144  1  0  0  0
 65145  1  0  0  0
 68 82  1  0  0  0
 71 74  1  0  0  0
 71 83  2  0  0  0
 71 78  1  0  0  0
 72 73  2  0  0  0
 72 80  1  0  0  0
 72 83  1  0  0  0
 73 81  1  0  0  0
 73 84  1  0  0  0
 74 84  2  0  0  0
 74 86  1  0  0  0
 75 76  1  0  0  0
 75 78  1  0  0  0
 75146  1  0  0  0
 75147  1  0  0  0
 76 85  1  0  0  0
 76148  1  0  0  0
 76149  1  0  0  0
 77 78  1  0  0  0
 77 85  1  0  0  0
 77150  1  0  0  0
 77151  1  0  0  0
 78152  1  0  0  0
 79 80  1  0  0  0
 79153  1  0  0  0
 79154  1  0  0  0
 79155  1  0  0  0
 80156  1  0  0  0
 80157  1  0  0  0
 81 82  1  0  0  0
 81158  1  0  0  0
 81159  1  0  0  0
 82160  1  0  0  0
 82161  1  0  0  0
 86162  1  0  0  0
 86163  1  0  0  0
M  ISO  4   1 100  68 101  82 101  85 100
M  END
> <chiral flag>
0

> <version>
0

> <s_m_source_file>
/data/baiqing/PycharmProjects/Reinvent-master-3.2/result/LINK_invent/BTK/process_docking_weight1_custom_sum_contain_oxygen_bond_distance_aromatic_linkinvent_7_9_3/rearranged_h_0193.sdf

> <i_m_source_file_index>
83

> <r_mmod_Potential_Energy-OPLS-2005>
236.66015625

> <r_mmod_Stretch_Energy-OPLS-2005>
87.8959350585938

> <r_mmod_Bend_Energy-OPLS-2005>
179.976715087891

> <r_mmod_Torsional_Energy-OPLS-2005>
300.710327148438

> <r_mmod_Improper_Torsional_Energy-OPLS-2005>
14.7576341629028

> <r_mmod_Van_der_Waal_Energy-OPLS-2005>
143.651779174805

> <r_mmod_Electrostatic_Energy-OPLS-2005>
-316.527008056641

> <r_mmod_Solvation_Energy-OPLS-2005>
-218.791305541992

> <b_mmod_Minimization_Converged-OPLS-2005>
0

> <r_mmod_RMS_Derivative-OPLS-2005>
2.04188919067383

$$$$
83
                    3D
 Structure written by MMmdl.
154163  0  0  1  0            999 V2000
  -30.4671  -15.3433   20.3679 C   0  0  0  0  0  0
  -30.4123  -12.8714   19.5302 C   0  0  0  0  0  0
  -29.5303  -12.6016   18.2888 C   0  0  0  0  0  0
  -28.0786  -12.3182   18.7082 C   0  0  0  0  0  0
  -27.5947  -13.2971   19.8088 C   0  0  2  0  0  0
  -28.6238  -13.5270   20.9371 C   0  0  0  0  0  0
  -25.2306  -13.8289   20.5752 C   0  0  0  0  0  0
  -24.1686  -13.0444   20.9261 C   0  0  0  0  0  0
  -24.6385  -11.6955   20.8756 C   0  0  0  0  0  0
  -23.9102  -10.4295   21.0393 C   0  0  0  0  0  0
  -24.3645   -9.4202   21.9166 C   0  0  0  0  0  0
  -23.6310   -8.2239   22.0746 C   0  0  0  0  0  0
  -22.4293   -8.0272   21.3543 C   0  0  0  0  0  0
  -21.9939   -9.0244   20.4647 C   0  0  0  0  0  0
  -22.7275  -10.2117   20.3047 C   0  0  0  0  0  0
  -21.6857   -6.0748   22.5281 C   0  0  0  0  0  0
  -21.4025   -6.5642   23.8222 C   0  0  0  0  0  0
  -21.3676   -5.6783   24.9175 C   0  0  0  0  0  0
  -21.6055   -4.3049   24.7223 C   0  0  0  0  0  0
  -21.8807   -3.8151   23.4336 C   0  0  0  0  0  0
  -21.9181   -4.6973   22.3395 C   0  0  0  0  0  0
  -22.7690  -13.5169   21.1899 C   0  0  0  0  0  0
  -22.1636   -4.2165   21.0964 F   0  0  0  0  0  0
  -21.5628   -3.4519   25.7734 F   0  0  0  0  0  0
  -29.8373  -14.0569   20.2912 N   0  0  0  0  0  0
  -26.2735  -12.9607   20.3158 N   0  0  0  0  0  0
  -25.9323  -11.6690   20.5681 N   0  0  0  0  0  0
  -22.0342  -12.8180   22.0478 N   0  0  0  0  0  0
  -25.3912  -15.2038   20.4239 N   0  0  0  0  0  0
  -31.6947  -15.2060   20.2239 O   0  0  0  0  0  0
  -21.6636   -6.8893   21.4250 O   0  0  0  0  0  0
  -22.3362  -14.5444   20.6688 O   0  0  0  0  0  0
  -24.6702  -31.8149   23.1648 C   0  0  0  0  0  0
  -25.9360  -32.4528   23.8142 C   0  0  1  0  0  0
  -27.2054  -26.8520   20.2063 C   0  0  0  0  0  0
  -25.5997  -33.8346   24.2031 N   0  0  0  0  0  0
  -23.4885  -30.4257   21.5133 C   0  0  2  0  0  0
  -24.9409  -28.7971   20.1170 C   0  0  0  0  0  0
  -22.7691  -29.4394   22.4723 C   0  0  0  0  0  0
  -18.0328  -28.1406   22.8442 C   0  0  0  0  0  0
  -24.1505  -36.7191   23.2649 C   0  0  0  0  0  0
  -26.0618  -30.5995   21.4066 C   0  0  0  0  0  0
  -26.1272  -29.1807   20.7551 C   0  0  0  0  0  0
  -27.2566  -28.2329   20.7655 C   0  0  0  0  0  0
  -25.9884  -26.6356   19.5242 C   0  0  0  0  0  0
  -24.9012  -27.5477   19.4775 C   0  0  0  0  0  0
  -23.7362  -29.7383   20.1413 C   0  0  0  0  0  0
  -25.4143  -36.2925   24.0284 C   0  0  1  0  0  0
  -20.5951  -28.3759   23.1150 C   0  0  2  0  0  0
  -20.6800  -26.9427   22.5389 C   0  0  0  0  0  0
  -19.5787  -26.6357   21.5195 C   0  0  0  0  0  0
  -18.1963  -26.7928   22.1600 C   0  0  0  0  0  0
  -19.1592  -28.8899   23.2782 C   0  0  0  0  0  0
  -18.9503  -30.1481   23.8820 C   0  0  0  0  0  0
  -17.6497  -30.6583   24.0539 C   0  0  0  0  0  0
  -25.9112  -34.9310   23.4982 C   0  0  0  0  0  0
  -16.5384  -29.9073   23.6334 C   0  0  0  0  0  0
  -16.7308  -28.6502   23.0343 C   0  0  0  0  0  0
  -26.4579  -31.6505   25.0706 C   0  0  0  0  0  0
  -25.3691  -31.3792   26.1357 C   0  0  0  0  0  0
  -27.0500  -30.2853   24.6528 C   0  0  0  0  0  0
  -27.6039  -32.4340   25.7535 C   0  0  0  0  0  0
  -27.5565  -37.1755   24.8450 C   0  0  0  0  0  0
  -21.4351  -29.3042   22.3496 N   0  0  0  0  0  0
  -26.4272  -37.3672   23.9394 N   0  0  0  0  0  0
  -24.7617  -30.9759   22.0810 N   0  0  0  0  0  0
  -23.4208  -28.7948   23.2974 O   0  0  0  0  0  0
  -28.2027  -25.7203   20.2230 O   0  0  0  0  0  0
  -26.5717  -34.8861   22.4574 O   0  0  0  0  0  0
  -23.5756  -32.1151   23.6703 O   0  0  0  0  0  0
  -30.7963  -17.8734   21.1328 C   0  0  0  0  0  0
  -28.7867  -17.7885   20.0912 C   0  0  0  0  0  0
  -29.4885  -20.4045   21.6595 C   0  0  0  0  0  0
  -30.3681  -19.4086   20.7991 C   0  0  2  0  0  0
  -29.2251  -19.4412   19.8584 C   0  0  2  0  0  0
  -30.3104  -22.7978   19.7893 C   0  0  0  0  0  0
  -27.9884  -24.0612   20.4678 C   0  0  0  0  0  0
  -28.8158  -22.4877   19.9700 C   0  0  2  0  0  0
  -29.9288  -16.7554   20.5540 N   0  0  0  0  0  0
  -28.6558  -20.8719   20.5029 N   0  3  2  0  0  0
  -31.4364  -13.0519   19.2010 H   0  0  0  0  0  0
  -30.4735  -11.9840   20.1622 H   0  0  0  0  0  0
  -29.9270  -11.7723   17.7014 H   0  0  0  0  0  0
  -29.5555  -13.4777   17.6414 H   0  0  0  0  0  0
  -28.0298  -11.2943   19.0777 H   0  0  0  0  0  0
  -27.4214  -12.3623   17.8387 H   0  0  0  0  0  0
  -27.4908  -14.2524   19.2932 H   0  0  0  0  0  0
  -28.8146  -12.6098   21.4975 H   0  0  0  0  0  0
  -28.2489  -14.2581   21.6534 H   0  0  0  0  0  0
  -25.2787   -9.5657   22.4750 H   0  0  0  0  0  0
  -24.0008   -7.4638   22.7470 H   0  0  0  0  0  0
  -21.0871   -8.8771   19.8967 H   0  0  0  0  0  0
  -22.3733  -10.9645   19.6157 H   0  0  0  0  0  0
  -21.2026   -7.6153   23.9737 H   0  0  0  0  0  0
  -21.1514   -6.0506   25.9082 H   0  0  0  0  0  0
  -22.0579   -2.7615   23.2812 H   0  0  0  0  0  0
  -22.3943  -11.9884   22.4962 H   0  0  0  0  0  0
  -21.0945  -13.1200   22.2626 H   0  0  0  0  0  0
  -24.6222  -15.8539   20.5472 H   0  0  0  0  0  0
  -26.2426  -15.6514   20.1094 H   0  0  0  0  0  0
  -26.7425  -32.5044   23.0855 H   0  0  0  0  0  0
  -25.0109  -33.9404   25.0159 H   0  0  0  0  0  0
  -22.8066  -31.2586   21.3336 H   0  0  0  0  0  0
  -23.3767  -35.9519   23.3260 H   0  0  0  0  0  0
  -24.3596  -36.8898   22.2074 H   0  0  0  0  0  0
  -23.7266  -37.6362   23.6753 H   0  0  0  0  0  0
  -26.2530  -31.3349   20.6240 H   0  0  0  0  0  0
  -26.9174  -30.6576   22.0678 H   0  0  0  0  0  0
  -28.1610  -28.5305   21.2777 H   0  0  0  0  0  0
  -25.8507  -25.6839   19.0321 H   0  0  0  0  0  0
  -24.0034  -27.2492   18.9538 H   0  0  0  0  0  0
  -23.9093  -30.5035   19.3828 H   0  0  0  0  0  0
  -22.8446  -29.2007   19.8144 H   0  0  0  0  0  0
  -25.1353  -36.1699   25.0770 H   0  0  0  0  0  0
  -21.0049  -28.3381   24.1274 H   0  0  0  0  0  0
  -20.5650  -26.2382   23.3647 H   0  0  0  0  0  0
  -21.6666  -26.7365   22.1222 H   0  0  0  0  0  0
  -19.6944  -25.6250   21.1277 H   0  0  0  0  0  0
  -19.6735  -27.3117   20.6691 H   0  0  0  0  0  0
  -17.4230  -26.6639   21.4009 H   0  0  0  0  0  0
  -18.0372  -26.0088   22.9021 H   0  0  0  0  0  0
  -19.7980  -30.7302   24.2166 H   0  0  0  0  0  0
  -17.5054  -31.6256   24.5162 H   0  0  0  0  0  0
  -15.5387  -30.2953   23.7703 H   0  0  0  0  0  0
  -15.8707  -28.0803   22.7092 H   0  0  0  0  0  0
  -24.5861  -30.7155   25.7674 H   0  0  0  0  0  0
  -24.8906  -32.3013   26.4660 H   0  0  0  0  0  0
  -25.7911  -30.9029   27.0214 H   0  0  0  0  0  0
  -26.3193  -29.6476   24.1538 H   0  0  0  0  0  0
  -27.3981  -29.7281   25.5237 H   0  0  0  0  0  0
  -27.9151  -30.3987   23.9995 H   0  0  0  0  0  0
  -27.2556  -33.3659   26.2000 H   0  0  0  0  0  0
  -28.3925  -32.6870   25.0439 H   0  0  0  0  0  0
  -28.0628  -31.8552   26.5561 H   0  0  0  0  0  0
  -28.2528  -38.0101   24.7508 H   0  0  0  0  0  0
  -28.1112  -36.2617   24.6258 H   0  0  0  0  0  0
  -27.2282  -37.1367   25.8853 H   0  0  0  0  0  0
  -20.9626  -29.8776   21.6646 H   0  0  0  0  0  0
  -26.0103  -38.2716   24.1425 H   0  0  0  0  0  0
  -30.8589  -17.7259   22.2118 H   0  0  0  0  0  0
  -31.8129  -17.7217   20.7673 H   0  0  0  0  0  0
  -28.3350  -17.3987   19.1787 H   0  0  0  0  0  0
  -27.9948  -17.7310   20.8398 H   0  0  0  0  0  0
  -30.0576  -21.1928   22.1508 H   0  0  0  0  0  0
  -28.8741  -19.8818   22.3944 H   0  0  0  0  0  0
  -31.2095  -19.9752   20.3957 H   0  0  0  0  0  0
  -29.5705  -19.6187   18.8385 H   0  0  0  0  0  0
  -30.4452  -23.7261   19.2344 H   0  0  0  0  0  0
  -30.8121  -22.0123   19.2233 H   0  0  0  0  0  0
  -30.8205  -22.9069   20.7455 H   0  0  0  0  0  0
  -28.0246  -24.0136   21.5564 H   0  0  0  0  0  0
  -26.9340  -23.8977   20.2460 H   0  0  0  0  0  0
  -28.4407  -22.3781   18.9527 H   0  0  0  0  0  0
  -27.6767  -20.7370   20.7142 H   0  0  0  0  0  0
  1 25  1  0  0  0
  1 30  2  0  0  0
  1 79  1  0  0  0
  2  3  1  0  0  0
  2 25  1  0  0  0
  2 81  1  0  0  0
  2 82  1  0  0  0
  3  4  1  0  0  0
  3 83  1  0  0  0
  3 84  1  0  0  0
  4  5  1  0  0  0
  4 85  1  0  0  0
  4 86  1  0  0  0
  5  6  1  0  0  0
  5 26  1  0  0  0
  5 87  1  0  0  0
  6 25  1  0  0  0
  6 88  1  0  0  0
  6 89  1  0  0  0
  7  8  2  0  0  0
  7 26  1  0  0  0
  7 29  1  0  0  0
  8  9  1  0  0  0
  8 22  1  0  0  0
  9 10  1  0  0  0
  9 27  2  0  0  0
 10 11  2  0  0  0
 10 15  1  0  0  0
 11 12  1  0  0  0
 11 90  1  0  0  0
 12 13  2  0  0  0
 12 91  1  0  0  0
 13 14  1  0  0  0
 13 31  1  0  0  0
 14 15  2  0  0  0
 14 92  1  0  0  0
 15 93  1  0  0  0
 16 17  2  0  0  0
 16 21  1  0  0  0
 16 31  1  0  0  0
 17 18  1  0  0  0
 17 94  1  0  0  0
 18 19  2  0  0  0
 18 95  1  0  0  0
 19 20  1  0  0  0
 19 24  1  0  0  0
 20 21  2  0  0  0
 20 96  1  0  0  0
 21 23  1  0  0  0
 22 28  1  0  0  0
 22 32  2  0  0  0
 26 27  1  0  0  0
 28 97  1  0  0  0
 28 98  1  0  0  0
 29 99  1  0  0  0
 29100  1  0  0  0
 33 34  1  0  0  0
 33 66  1  0  0  0
 33 70  2  0  0  0
 34 36  1  0  0  0
 34 59  1  0  0  0
 34101  1  0  0  0
 35 44  2  0  0  0
 35 45  1  0  0  0
 35 68  1  0  0  0
 36 56  1  0  0  0
 36102  1  0  0  0
 37 39  1  0  0  0
 37 47  1  0  0  0
 37 66  1  0  0  0
 37103  1  0  0  0
 38 43  2  0  0  0
 38 46  1  0  0  0
 38 47  1  0  0  0
 39 64  1  0  0  0
 39 67  2  0  0  0
 40 52  1  0  0  0
 40 53  2  0  0  0
 40 58  1  0  0  0
 41104  1  0  0  0
 41105  1  0  0  0
 41106  1  0  0  0
 41 48  1  0  0  0
 42 43  1  0  0  0
 42 66  1  0  0  0
 42107  1  0  0  0
 42108  1  0  0  0
 43 44  1  0  0  0
 44109  1  0  0  0
 45 46  2  0  0  0
 45110  1  0  0  0
 46111  1  0  0  0
 47112  1  0  0  0
 47113  1  0  0  0
 48 56  1  0  0  0
 48 65  1  0  0  0
 48114  1  0  0  0
 49 50  1  0  0  0
 49 53  1  0  0  0
 49 64  1  0  0  0
 49115  1  0  0  0
 50 51  1  0  0  0
 50116  1  0  0  0
 50117  1  0  0  0
 51 52  1  0  0  0
 51118  1  0  0  0
 51119  1  0  0  0
 52120  1  0  0  0
 52121  1  0  0  0
 53 54  1  0  0  0
 54 55  2  0  0  0
 54122  1  0  0  0
 55 57  1  0  0  0
 55123  1  0  0  0
 56 69  2  0  0  0
 57 58  2  0  0  0
 57124  1  0  0  0
 58125  1  0  0  0
 59 60  1  0  0  0
 59 61  1  0  0  0
 59 62  1  0  0  0
 60126  1  0  0  0
 60127  1  0  0  0
 60128  1  0  0  0
 61129  1  0  0  0
 61130  1  0  0  0
 61131  1  0  0  0
 62132  1  0  0  0
 62133  1  0  0  0
 62134  1  0  0  0
 63 65  1  0  0  0
 63135  1  0  0  0
 63136  1  0  0  0
 63137  1  0  0  0
 64138  1  0  0  0
 65139  1  0  0  0
 68 77  1  0  0  0
 71 79  1  0  0  0
 71140  1  0  0  0
 71141  1  0  0  0
 71 74  1  0  0  0
 72 79  1  0  0  0
 72142  1  0  0  0
 72143  1  0  0  0
 72 75  1  0  0  0
 73 74  1  0  0  0
 73144  1  0  0  0
 73145  1  0  0  0
 73 80  1  0  0  0
 74 75  1  0  0  0
 74146  1  0  0  0
 75 80  1  0  0  0
 75147  1  0  0  0
 76148  1  0  0  0
 76149  1  0  0  0
 76150  1  0  0  0
 76 78  1  0  0  0
 77 78  1  0  0  0
 77151  1  0  0  0
 77152  1  0  0  0
 78 80  1  0  0  0
 78153  1  0  0  0
 80154  1  0  0  0
M  CHG  1  80   1
M  ISO  4   1 100  68 101  77 101  79 100
M  END
> <chiral flag>
0

> <version>
0

> <s_m_source_file>
/data/baiqing/PycharmProjects/Reinvent-master-3.2/result/LINK_invent/BTK/process_docking_weight1_custom_sum_contain_oxygen_bond_distance_aromatic_linkinvent_7_9_3/rearranged_h_0193.sdf

> <i_m_source_file_index>
84

> <r_mmod_Potential_Energy-OPLS-2005>
1758.89465332031

> <r_mmod_Stretch_Energy-OPLS-2005>
687.797119140625

> <r_mmod_Bend_Energy-OPLS-2005>
609.966430664062

> <r_mmod_Torsional_Energy-OPLS-2005>
408.962982177734

> <r_mmod_Improper_Torsional_Energy-OPLS-2005>
2.37917065620422

> <r_mmod_Van_der_Waal_Energy-OPLS-2005>
106.937164306641

> <r_mmod_Electrostatic_Energy-OPLS-2005>
-163.87028503418

> <r_mmod_Solvation_Energy-OPLS-2005>
-441.425018310547

> <b_mmod_Minimization_Converged-OPLS-2005>
0

> <r_mmod_RMS_Derivative-OPLS-2005>
2.75783061981201

$$$$
84
                    3D
 Structure written by MMmdl.
157166  0  0  1  0            999 V2000
  -30.5948  -14.7476   20.4641 C   0  0  0  0  0  0
  -30.4315  -12.4549   19.4791 C   0  0  0  0  0  0
  -29.5130  -12.5133   18.2378 C   0  0  0  0  0  0
  -28.0354  -12.3424   18.6412 C   0  0  0  0  0  0
  -27.6411  -13.2309   19.8519 C   0  0  2  0  0  0
  -28.6831  -13.1541   20.9891 C   0  0  0  0  0  0
  -25.2510  -13.8188   20.5677 C   0  0  0  0  0  0
  -24.1798  -13.0432   20.9191 C   0  0  0  0  0  0
  -24.6384  -11.6909   20.8724 C   0  0  0  0  0  0
  -23.9054  -10.4286   21.0393 C   0  0  0  0  0  0
  -24.3610   -9.4211   21.9176 C   0  0  0  0  0  0
  -23.6290   -8.2244   22.0758 C   0  0  0  0  0  0
  -22.4272   -8.0274   21.3545 C   0  0  0  0  0  0
  -21.9898   -9.0236   20.4647 C   0  0  0  0  0  0
  -22.7218  -10.2119   20.3053 C   0  0  0  0  0  0
  -21.6853   -6.0729   22.5269 C   0  0  0  0  0  0
  -21.4011   -6.5637   23.8198 C   0  0  0  0  0  0
  -21.3664   -5.6797   24.9164 C   0  0  0  0  0  0
  -21.6055   -4.3056   24.7221 C   0  0  0  0  0  0
  -21.8822   -3.8143   23.4339 C   0  0  0  0  0  0
  -21.9192   -4.6956   22.3393 C   0  0  0  0  0  0
  -22.7823  -13.5218   21.1851 C   0  0  0  0  0  0
  -22.1665   -4.2141   21.0970 F   0  0  0  0  0  0
  -21.5633   -3.4547   25.7734 F   0  0  0  0  0  0
  -29.9841  -13.5137   20.4132 N   0  0  0  0  0  0
  -26.2926  -12.9389   20.3258 N   0  0  0  0  0  0
  -25.9311  -11.6529   20.5719 N   0  0  0  0  0  0
  -22.0477  -12.8210   22.0412 N   0  0  0  0  0  0
  -25.4214  -15.1911   20.4088 N   0  0  0  0  0  0
  -31.7784  -14.8602   20.1332 O   0  0  0  0  0  0
  -21.6646   -6.8865   21.4232 O   0  0  0  0  0  0
  -22.3499  -14.5512   20.6683 O   0  0  0  0  0  0
  -24.6310  -31.8530   23.1957 C   0  0  0  0  0  0
  -25.9131  -32.4739   23.8318 C   0  0  1  0  0  0
  -27.2256  -27.2513   20.1304 C   0  0  0  0  0  0
  -25.5921  -33.8545   24.2239 N   0  0  0  0  0  0
  -23.4286  -30.4726   21.5391 C   0  0  2  0  0  0
  -24.8757  -28.9121   20.1094 C   0  0  0  0  0  0
  -22.7502  -29.4585   22.4912 C   0  0  0  0  0  0
  -18.0290  -28.1388   22.8481 C   0  0  0  0  0  0
  -24.1487  -36.7280   23.2641 C   0  0  0  0  0  0
  -25.9735  -30.7608   21.3769 C   0  0  0  0  0  0
  -26.0446  -29.3820   20.7195 C   0  0  0  0  0  0
  -27.2176  -28.5629   20.7179 C   0  0  0  0  0  0
  -26.0300  -26.8410   19.5010 C   0  0  0  0  0  0
  -24.8741  -27.6508   19.4907 C   0  0  0  0  0  0
  -23.6461  -29.7997   20.1567 C   0  0  0  0  0  0
  -25.4115  -36.3065   24.0324 C   0  0  1  0  0  0
  -20.5893  -28.3693   23.1268 C   0  0  2  0  0  0
  -20.6773  -26.9412   22.5406 C   0  0  0  0  0  0
  -19.5753  -26.6380   21.5207 C   0  0  0  0  0  0
  -18.1933  -26.7931   22.1619 C   0  0  0  0  0  0
  -19.1544  -28.8860   23.2867 C   0  0  0  0  0  0
  -18.9467  -30.1461   23.8885 C   0  0  0  0  0  0
  -17.6465  -30.6589   24.0559 C   0  0  0  0  0  0
  -25.9057  -34.9432   23.5089 C   0  0  0  0  0  0
  -16.5356  -29.9085   23.6331 C   0  0  0  0  0  0
  -16.7276  -28.6502   23.0353 C   0  0  0  0  0  0
  -26.4494  -31.6583   25.0725 C   0  0  0  0  0  0
  -25.3703  -31.3741   26.1437 C   0  0  0  0  0  0
  -27.0352  -30.2997   24.6239 C   0  0  0  0  0  0
  -27.6046  -32.4330   25.7499 C   0  0  0  0  0  0
  -27.5580  -37.1795   24.8462 C   0  0  0  0  0  0
  -21.4208  -29.3039   22.3660 N   0  0  0  0  0  0
  -26.4290  -37.3765   23.9410 N   0  0  0  0  0  0
  -24.6967  -31.0481   22.0933 N   0  0  0  0  0  0
  -23.4197  -28.8138   23.3024 O   0  0  0  0  0  0
  -28.3536  -26.4019   20.2129 O   0  0  0  0  0  0
  -26.5643  -34.8910   22.4668 O   0  0  0  0  0  0
  -23.5460  -32.1364   23.7244 O   0  0  0  0  0  0
  -30.5122  -20.7141   19.9783 C   0  0  0  0  0  0
  -30.2668  -22.0438   19.9617 C   0  0  0  0  0  0
  -29.3274  -20.0627   20.4245 C   0  0  0  0  0  0
  -31.9070  -20.3743   19.5788 C   0  0  0  0  0  0
  -31.4303  -22.8641   19.5762 C   0  0  0  0  0  0
  -32.5316  -21.7854   19.3332 C   0  0  0  0  0  0
  -29.0227  -18.5109   20.6555 C   0  0  0  0  0  0
  -28.3244  -23.6893   20.7067 C   0  0  0  0  0  0
  -30.1608  -17.3593   20.4812 C   0  0  0  0  0  0
  -28.4318  -24.9763   19.7227 C   0  0  0  0  0  0
  -28.4212  -21.0788   20.6613 N   0  0  0  0  0  0
  -28.9781  -22.3394   20.3673 N   0  0  0  0  0  0
  -29.8083  -15.8732   20.6746 N   0  0  0  0  0  0
  -31.4737  -12.5814   19.1806 H   0  0  0  0  0  0
  -30.3730  -11.4766   19.9593 H   0  0  0  0  0  0
  -29.7961  -11.7428   17.5198 H   0  0  0  0  0  0
  -29.6452  -13.4687   17.7279 H   0  0  0  0  0  0
  -27.8796  -11.2908   18.8833 H   0  0  0  0  0  0
  -27.3869  -12.5562   17.7906 H   0  0  0  0  0  0
  -27.6370  -14.2562   19.4815 H   0  0  0  0  0  0
  -28.7188  -12.1515   21.4171 H   0  0  0  0  0  0
  -28.4151  -13.8244   21.8068 H   0  0  0  0  0  0
  -25.2758   -9.5696   22.4746 H   0  0  0  0  0  0
  -24.0007   -7.4644   22.7483 H   0  0  0  0  0  0
  -21.0829   -8.8730   19.8955 H   0  0  0  0  0  0
  -22.3657  -10.9649   19.6161 H   0  0  0  0  0  0
  -21.2006   -7.6146   23.9688 H   0  0  0  0  0  0
  -21.1490   -6.0536   25.9065 H   0  0  0  0  0  0
  -22.0601   -2.7604   23.2837 H   0  0  0  0  0  0
  -22.4114  -11.9877   22.4793 H   0  0  0  0  0  0
  -21.1092  -13.1224   22.2624 H   0  0  0  0  0  0
  -24.6530  -15.8448   20.5123 H   0  0  0  0  0  0
  -26.2629  -15.6239   20.0505 H   0  0  0  0  0  0
  -26.7200  -32.5374   23.1059 H   0  0  0  0  0  0
  -25.0036  -33.9678   25.0363 H   0  0  0  0  0  0
  -22.7258  -31.2947   21.3898 H   0  0  0  0  0  0
  -23.3751  -35.9610   23.3294 H   0  0  0  0  0  0
  -24.3572  -36.8917   22.2057 H   0  0  0  0  0  0
  -23.7234  -37.6474   23.6676 H   0  0  0  0  0  0
  -26.1157  -31.5200   20.6070 H   0  0  0  0  0  0
  -26.8495  -30.8087   22.0122 H   0  0  0  0  0  0
  -28.1129  -28.9182   21.2089 H   0  0  0  0  0  0
  -25.9524  -25.8705   19.0357 H   0  0  0  0  0  0
  -23.9760  -27.2818   19.0144 H   0  0  0  0  0  0
  -23.7696  -30.5724   19.3973 H   0  0  0  0  0  0
  -22.7647  -29.2308   19.8546 H   0  0  0  0  0  0
  -25.1299  -36.1911   25.0816 H   0  0  0  0  0  0
  -20.9979  -28.3267   24.1391 H   0  0  0  0  0  0
  -20.5657  -26.2309   23.3612 H   0  0  0  0  0  0
  -21.6643  -26.7427   22.1211 H   0  0  0  0  0  0
  -19.6913  -25.6285   21.1248 H   0  0  0  0  0  0
  -19.6691  -27.3179   20.6728 H   0  0  0  0  0  0
  -17.4201  -26.6671   21.4025 H   0  0  0  0  0  0
  -18.0340  -26.0076   22.9021 H   0  0  0  0  0  0
  -19.7940  -30.7281   24.2248 H   0  0  0  0  0  0
  -17.5017  -31.6266   24.5166 H   0  0  0  0  0  0
  -15.5356  -30.2983   23.7660 H   0  0  0  0  0  0
  -15.8675  -28.0814   22.7081 H   0  0  0  0  0  0
  -24.5877  -30.7099   25.7755 H   0  0  0  0  0  0
  -24.8893  -32.2910   26.4851 H   0  0  0  0  0  0
  -25.7997  -30.8917   27.0225 H   0  0  0  0  0  0
  -26.2954  -29.6735   24.1238 H   0  0  0  0  0  0
  -27.3997  -29.7276   25.4781 H   0  0  0  0  0  0
  -27.8843  -30.4271   23.9520 H   0  0  0  0  0  0
  -27.2658  -33.3633   26.2069 H   0  0  0  0  0  0
  -28.3857  -32.6884   25.0327 H   0  0  0  0  0  0
  -28.0716  -31.8461   26.5418 H   0  0  0  0  0  0
  -28.2590  -38.0101   24.7520 H   0  0  0  0  0  0
  -28.1088  -36.2632   24.6276 H   0  0  0  0  0  0
  -27.2302  -37.1426   25.8866 H   0  0  0  0  0  0
  -20.9405  -29.8755   21.6849 H   0  0  0  0  0  0
  -26.0166  -38.2841   24.1409 H   0  0  0  0  0  0
  -31.9409  -19.7615   18.6769 H   0  0  0  0  0  0
  -32.4441  -19.8393   20.3633 H   0  0  0  0  0  0
  -31.7061  -23.5553   20.3737 H   0  0  0  0  0  0
  -31.2234  -23.4385   18.6727 H   0  0  0  0  0  0
  -32.9270  -21.8604   18.3197 H   0  0  0  0  0  0
  -33.3716  -21.9470   20.0107 H   0  0  0  0  0  0
  -28.1937  -18.2410   20.0003 H   0  0  0  0  0  0
  -28.6189  -18.4035   21.6623 H   0  0  0  0  0  0
  -27.2700  -23.5039   20.9109 H   0  0  0  0  0  0
  -28.7508  -23.9876   21.6647 H   0  0  0  0  0  0
  -30.9820  -17.5887   21.1623 H   0  0  0  0  0  0
  -30.5799  -17.4574   19.4794 H   0  0  0  0  0  0
  -27.7829  -24.8211   18.8631 H   0  0  0  0  0  0
  -29.4293  -24.9305   19.2888 H   0  0  0  0  0  0
  -28.8496  -15.6770   20.9212 H   0  0  0  0  0  0
  1 25  1  0  0  0
  1 30  2  0  0  0
  1 83  1  0  0  0
  2  3  1  0  0  0
  2 25  1  0  0  0
  2 84  1  0  0  0
  2 85  1  0  0  0
  3  4  1  0  0  0
  3 86  1  0  0  0
  3 87  1  0  0  0
  4  5  1  0  0  0
  4 88  1  0  0  0
  4 89  1  0  0  0
  5  6  1  0  0  0
  5 26  1  0  0  0
  5 90  1  0  0  0
  6 25  1  0  0  0
  6 91  1  0  0  0
  6 92  1  0  0  0
  7  8  2  0  0  0
  7 26  1  0  0  0
  7 29  1  0  0  0
  8  9  1  0  0  0
  8 22  1  0  0  0
  9 10  1  0  0  0
  9 27  2  0  0  0
 10 11  2  0  0  0
 10 15  1  0  0  0
 11 12  1  0  0  0
 11 93  1  0  0  0
 12 13  2  0  0  0
 12 94  1  0  0  0
 13 14  1  0  0  0
 13 31  1  0  0  0
 14 15  2  0  0  0
 14 95  1  0  0  0
 15 96  1  0  0  0
 16 17  2  0  0  0
 16 21  1  0  0  0
 16 31  1  0  0  0
 17 18  1  0  0  0
 17 97  1  0  0  0
 18 19  2  0  0  0
 18 98  1  0  0  0
 19 20  1  0  0  0
 19 24  1  0  0  0
 20 21  2  0  0  0
 20 99  1  0  0  0
 21 23  1  0  0  0
 22 28  1  0  0  0
 22 32  2  0  0  0
 26 27  1  0  0  0
 28100  1  0  0  0
 28101  1  0  0  0
 29102  1  0  0  0
 29103  1  0  0  0
 33 34  1  0  0  0
 33 66  1  0  0  0
 33 70  2  0  0  0
 34 36  1  0  0  0
 34 59  1  0  0  0
 34104  1  0  0  0
 35 44  2  0  0  0
 35 45  1  0  0  0
 35 68  1  0  0  0
 36 56  1  0  0  0
 36105  1  0  0  0
 37 39  1  0  0  0
 37 47  1  0  0  0
 37 66  1  0  0  0
 37106  1  0  0  0
 38 43  2  0  0  0
 38 46  1  0  0  0
 38 47  1  0  0  0
 39 64  1  0  0  0
 39 67  2  0  0  0
 40 52  1  0  0  0
 40 53  2  0  0  0
 40 58  1  0  0  0
 41107  1  0  0  0
 41108  1  0  0  0
 41109  1  0  0  0
 41 48  1  0  0  0
 42 43  1  0  0  0
 42 66  1  0  0  0
 42110  1  0  0  0
 42111  1  0  0  0
 43 44  1  0  0  0
 44112  1  0  0  0
 45 46  2  0  0  0
 45113  1  0  0  0
 46114  1  0  0  0
 47115  1  0  0  0
 47116  1  0  0  0
 48 56  1  0  0  0
 48 65  1  0  0  0
 48117  1  0  0  0
 49 50  1  0  0  0
 49 53  1  0  0  0
 49 64  1  0  0  0
 49118  1  0  0  0
 50 51  1  0  0  0
 50119  1  0  0  0
 50120  1  0  0  0
 51 52  1  0  0  0
 51121  1  0  0  0
 51122  1  0  0  0
 52123  1  0  0  0
 52124  1  0  0  0
 53 54  1  0  0  0
 54 55  2  0  0  0
 54125  1  0  0  0
 55 57  1  0  0  0
 55126  1  0  0  0
 56 69  2  0  0  0
 57 58  2  0  0  0
 57127  1  0  0  0
 58128  1  0  0  0
 59 60  1  0  0  0
 59 61  1  0  0  0
 59 62  1  0  0  0
 60129  1  0  0  0
 60130  1  0  0  0
 60131  1  0  0  0
 61132  1  0  0  0
 61133  1  0  0  0
 61134  1  0  0  0
 62135  1  0  0  0
 62136  1  0  0  0
 62137  1  0  0  0
 63 65  1  0  0  0
 63138  1  0  0  0
 63139  1  0  0  0
 63140  1  0  0  0
 64141  1  0  0  0
 65142  1  0  0  0
 68 80  1  0  0  0
 71 72  2  0  0  0
 71 73  1  0  0  0
 71 74  1  0  0  0
 72 75  1  0  0  0
 72 82  1  0  0  0
 73 77  1  0  0  0
 73 81  2  0  0  0
 74 76  1  0  0  0
 74143  1  0  0  0
 74144  1  0  0  0
 75 76  1  0  0  0
 75145  1  0  0  0
 75146  1  0  0  0
 76147  1  0  0  0
 76148  1  0  0  0
 77 79  1  0  0  0
 77149  1  0  0  0
 77150  1  0  0  0
 78 80  1  0  0  0
 78 82  1  0  0  0
 78151  1  0  0  0
 78152  1  0  0  0
 79 83  1  0  0  0
 79153  1  0  0  0
 79154  1  0  0  0
 80155  1  0  0  0
 80156  1  0  0  0
 81 82  1  0  0  0
 83157  1  0  0  0
M  ISO  4   1 100  68 101  80 101  83 100
M  END
> <chiral flag>
0

> <version>
0

> <s_m_source_file>
/data/baiqing/PycharmProjects/Reinvent-master-3.2/result/LINK_invent/BTK/process_docking_weight1_custom_sum_contain_oxygen_bond_distance_aromatic_linkinvent_7_9_3/rearranged_h_0193.sdf

> <i_m_source_file_index>
85

> <r_mmod_Potential_Energy-OPLS-2005>
226.053451538086

> <r_mmod_Stretch_Energy-OPLS-2005>
135.310073852539

> <r_mmod_Bend_Energy-OPLS-2005>
268.805328369141

> <r_mmod_Torsional_Energy-OPLS-2005>
228.315994262695

> <r_mmod_Improper_Torsional_Energy-OPLS-2005>
6.19912481307983

> <r_mmod_Van_der_Waal_Energy-OPLS-2005>
104.854309082031

> <r_mmod_Electrostatic_Energy-OPLS-2005>
-372.254669189453

> <r_mmod_Solvation_Energy-OPLS-2005>
-230.78303527832

> <b_mmod_Minimization_Converged-OPLS-2005>
0

> <r_mmod_RMS_Derivative-OPLS-2005>
1.01508390903473

$$$$
85
                    3D
 Structure written by MMmdl.
169178  0  0  1  0            999 V2000
  -30.8582  -14.3827   20.5685 C   0  0  0  0  0  0
  -30.4036  -12.2713   19.3640 C   0  0  0  0  0  0
  -29.4296  -12.4941   18.1858 C   0  0  0  0  0  0
  -27.9474  -12.5365   18.6515 C   0  0  0  0  0  0
  -27.7289  -13.5446   19.8451 C   0  0  2  0  0  0
  -28.7443  -13.0876   20.9294 C   0  0  0  0  0  0
  -25.3660  -14.9653   20.7989 C   0  0  0  0  0  0
  -24.3043  -13.7827   20.8174 C   0  0  0  0  0  0
  -24.6624  -12.3028   20.7578 C   0  0  0  0  0  0
  -23.9698  -10.8372   20.9553 C   0  0  0  0  0  0
  -24.4150   -9.7729   21.8376 C   0  0  0  0  0  0
  -23.7301   -8.5110   22.0340 C   0  0  0  0  0  0
  -22.5265   -8.2058   21.3455 C   0  0  0  0  0  0
  -22.0891   -9.2017   20.4450 C   0  0  0  0  0  0
  -22.7805  -10.4424   20.2610 C   0  0  0  0  0  0
  -21.7670   -6.1581   22.5131 C   0  0  0  0  0  0
  -21.4604   -6.6181   23.8148 C   0  0  0  0  0  0
  -21.3853   -5.7150   24.8994 C   0  0  0  0  0  0
  -21.6019   -4.3389   24.6957 C   0  0  0  0  0  0
  -21.8749   -3.8642   23.4020 C   0  0  0  0  0  0
  -21.9452   -4.7637   22.3186 C   0  0  0  0  0  0
  -22.7919  -13.8550   20.9913 C   0  0  0  0  0  0
  -22.1780   -4.2726   21.0768 F   0  0  0  0  0  0
  -21.5490   -3.4765   25.7402 F   0  0  0  0  0  0
  -30.0988  -13.2700   20.3880 N   0  0  0  0  0  0
  -26.2895  -13.7466   20.3087 N   0  0  0  0  0  0
  -25.8990  -12.3830   20.4338 N   0  0  0  0  0  0
  -22.1621  -13.0216   21.8412 N   0  0  0  0  0  0
  -25.8600  -16.8721   22.1171 N   0  0  0  0  0  0
  -31.9565  -14.5670   20.0516 O   0  0  0  0  0  0
  -21.7982   -7.0108   21.4177 O   0  0  0  0  0  0
  -22.1720  -14.7424   20.4397 O   0  0  0  0  0  0
  -24.7323  -31.7349   23.1221 C   0  0  0  0  0  0
  -25.9706  -32.4101   23.7863 C   0  0  1  0  0  0
  -26.6335  -25.9726   20.2784 C   0  0  0  0  0  0
  -25.6084  -33.7992   24.1658 N   0  0  0  0  0  0
  -23.5461  -30.3600   21.4945 C   0  0  2  0  0  0
  -24.8905  -28.5954   20.0881 C   0  0  0  0  0  0
  -22.7836  -29.4058   22.4547 C   0  0  0  0  0  0
  -18.0336  -28.1431   22.8431 C   0  0  0  0  0  0
  -24.1492  -36.6998   23.2664 C   0  0  0  0  0  0
  -26.1284  -30.1966   21.4890 C   0  0  0  0  0  0
  -26.0660  -28.7074   20.8284 C   0  0  0  0  0  0
  -26.9367  -27.4255   20.8840 C   0  0  0  0  0  0
  -25.5859  -26.2782   19.3859 C   0  0  0  0  0  0
  -24.7452  -27.4316   19.3228 C   0  0  0  0  0  0
  -23.7945  -29.6794   20.1164 C   0  0  0  0  0  0
  -25.4172  -36.2697   24.0237 C   0  0  1  0  0  0
  -20.5980  -28.3796   23.1065 C   0  0  2  0  0  0
  -20.6778  -26.9422   22.5398 C   0  0  0  0  0  0
  -19.5765  -26.6345   21.5209 C   0  0  0  0  0  0
  -18.1954  -26.7948   22.1599 C   0  0  0  0  0  0
  -19.1613  -28.8948   23.2721 C   0  0  0  0  0  0
  -18.9520  -30.1528   23.8788 C   0  0  0  0  0  0
  -17.6509  -30.6613   24.0551 C   0  0  0  0  0  0
  -25.9201  -34.9101   23.4818 C   0  0  0  0  0  0
  -16.5399  -29.9092   23.6356 C   0  0  0  0  0  0
  -16.7315  -28.6511   23.0374 C   0  0  0  0  0  0
  -26.4696  -31.6444   25.0747 C   0  0  0  0  0  0
  -25.3610  -31.3953   26.1257 C   0  0  0  0  0  0
  -27.0742  -30.2730   24.7142 C   0  0  0  0  0  0
  -27.6033  -32.4480   25.7553 C   0  0  0  0  0  0
  -27.5547  -37.1658   24.8465 C   0  0  0  0  0  0
  -21.4460  -29.2976   22.3309 N   0  0  0  0  0  0
  -26.4241  -37.3536   23.9412 N   0  0  0  0  0  0
  -24.8417  -30.8196   22.0812 N   0  0  0  0  0  0
  -23.4125  -28.7649   23.3015 O   0  0  0  0  0  0
  -27.0823  -24.3304   20.3170 O   0  0  0  0  0  0
  -26.5902  -34.8793   22.4477 O   0  0  0  0  0  0
  -23.6273  -32.0806   23.5829 O   0  0  0  0  0  0
  -24.2281  -15.6002   22.7104 C   0  0  0  0  0  0
  -24.1250  -17.2159   20.8082 C   0  0  0  0  0  0
  -28.1256  -14.9361   25.0961 C   0  0  0  0  0  0
  -27.2474  -16.4964   20.5036 C   0  0  0  0  0  0
  -27.4401  -15.6105   23.9080 C   0  0  2  0  0  0
  -26.6537  -14.9596   22.6722 C   0  0  1  0  0  0
  -26.5269  -13.4463   23.1276 C   0  0  0  0  0  0
  -30.0481  -17.3214   22.8084 C   0  0  0  0  0  0
  -30.9168  -16.5631   21.7797 C   0  0  0  0  0  0
  -29.7794  -16.5643   24.1284 C   0  0  0  0  0  0
  -26.4539  -20.0725   20.0205 C   0  0  0  0  0  0
  -26.3656  -22.3677   20.3770 C   0  0  0  0  0  0
  -30.2912  -15.3239   21.3259 N   0  0  0  0  0  0
  -25.9022  -18.0923   20.2211 N   0  3  1  0  0  0
  -28.8843  -15.3909   23.9488 N   0  3  1  0  0  0
  -31.4398  -12.3314   19.0200 H   0  0  0  0  0  0
  -30.2838  -11.2681   19.7776 H   0  0  0  0  0  0
  -29.5614  -11.7060   17.4447 H   0  0  0  0  0  0
  -29.6803  -13.4301   17.6849 H   0  0  0  0  0  0
  -27.6726  -11.5199   18.9377 H   0  0  0  0  0  0
  -27.3030  -12.8027   17.8140 H   0  0  0  0  0  0
  -28.1214  -14.4510   19.4170 H   0  0  0  0  0  0
  -28.5919  -12.0454   21.2166 H   0  0  0  0  0  0
  -28.6776  -13.6637   21.8346 H   0  0  0  0  0  0
  -25.3188   -9.9508   22.4047 H   0  0  0  0  0  0
  -24.1489   -7.7881   22.7200 H   0  0  0  0  0  0
  -21.1944   -9.0167   19.8696 H   0  0  0  0  0  0
  -22.3581  -11.1447   19.5566 H   0  0  0  0  0  0
  -21.2837   -7.6714   23.9839 H   0  0  0  0  0  0
  -21.1640   -6.0821   25.8915 H   0  0  0  0  0  0
  -22.0248   -2.8087   23.2342 H   0  0  0  0  0  0
  -22.6541  -12.3021   22.3476 H   0  0  0  0  0  0
  -21.1643  -13.1158   21.9774 H   0  0  0  0  0  0
  -25.0816  -16.9777   22.7671 H   0  0  0  0  0  0
  -26.7047  -16.8050   22.6626 H   0  0  0  0  0  0
  -26.7807  -32.4353   23.0560 H   0  0  0  0  0  0
  -25.0065  -33.8953   24.9701 H   0  0  0  0  0  0
  -22.9045  -31.2255   21.3088 H   0  0  0  0  0  0
  -23.3802  -35.9271   23.3207 H   0  0  0  0  0  0
  -24.3542  -36.8819   22.2102 H   0  0  0  0  0  0
  -23.7197  -37.6099   23.6870 H   0  0  0  0  0  0
  -26.4486  -30.8693   20.6933 H   0  0  0  0  0  0
  -26.9556  -30.2101   22.1831 H   0  0  0  0  0  0
  -27.7978  -27.4863   21.5370 H   0  0  0  0  0  0
  -25.2632  -25.4543   18.7644 H   0  0  0  0  0  0
  -23.8874  -27.3650   18.6696 H   0  0  0  0  0  0
  -24.0773  -30.4415   19.3897 H   0  0  0  0  0  0
  -22.8617  -29.2557   19.7423 H   0  0  0  0  0  0
  -25.1396  -36.1380   25.0723 H   0  0  0  0  0  0
  -21.0062  -28.3464   24.1195 H   0  0  0  0  0  0
  -20.5615  -26.2430   23.3696 H   0  0  0  0  0  0
  -21.6634  -26.7310   22.1240 H   0  0  0  0  0  0
  -19.6909  -25.6230   21.1312 H   0  0  0  0  0  0
  -19.6729  -27.3098   20.6701 H   0  0  0  0  0  0
  -17.4222  -26.6705   21.4008 H   0  0  0  0  0  0
  -18.0322  -26.0132   22.9027 H   0  0  0  0  0  0
  -19.8010  -30.7362   24.2111 H   0  0  0  0  0  0
  -17.5071  -31.6284   24.5165 H   0  0  0  0  0  0
  -15.5399  -30.2960   23.7757 H   0  0  0  0  0  0
  -15.8714  -28.0804   22.7142 H   0  0  0  0  0  0
  -24.5832  -30.7263   25.7555 H   0  0  0  0  0  0
  -24.8763  -32.3237   26.4298 H   0  0  0  0  0  0
  -25.7644  -30.9364   27.0293 H   0  0  0  0  0  0
  -26.3496  -29.6041   24.2500 H   0  0  0  0  0  0
  -27.4234  -29.7581   25.6103 H   0  0  0  0  0  0
  -27.9470  -30.3721   24.0692 H   0  0  0  0  0  0
  -27.2503  -33.3935   26.1696 H   0  0  0  0  0  0
  -28.4037  -32.6810   25.0516 H   0  0  0  0  0  0
  -28.0501  -31.8941   26.5821 H   0  0  0  0  0  0
  -28.2473  -38.0035   24.7551 H   0  0  0  0  0  0
  -28.1131  -36.2552   24.6241 H   0  0  0  0  0  0
  -27.2271  -37.1217   25.8868 H   0  0  0  0  0  0
  -20.9823  -29.8643   21.6366 H   0  0  0  0  0  0
  -26.0009  -38.2548   24.1459 H   0  0  0  0  0  0
  -23.4773  -14.8896   23.0156 H   0  0  0  0  0  0
  -24.0926  -16.2074   23.6133 H   0  0  0  0  0  0
  -23.4454  -18.0229   21.0842 H   0  0  0  0  0  0
  -23.6781  -16.7643   19.9232 H   0  0  0  0  0  0
  -28.2807  -13.8625   25.1717 H   0  0  0  0  0  0
  -28.3540  -15.5233   25.9834 H   0  0  0  0  0  0
  -27.1245  -16.0871   19.5073 H   0  0  0  0  0  0
  -28.2631  -16.8774   20.5243 H   0  0  0  0  0  0
  -27.2263  -16.6586   24.1095 H   0  0  0  0  0  0
  -25.5846  -12.9964   22.8703 H   0  0  0  0  0  0
  -26.3689  -13.4008   24.2036 H   0  0  0  0  0  0
  -27.3186  -12.7310   22.9538 H   0  0  0  0  0  0
  -29.1076  -17.6470   22.3714 H   0  0  0  0  0  0
  -30.5634  -18.2503   23.0534 H   0  0  0  0  0  0
  -31.8875  -16.3305   22.2210 H   0  0  0  0  0  0
  -31.1172  -17.2002   20.9155 H   0  0  0  0  0  0
  -29.3636  -17.2628   24.8555 H   0  0  0  0  0  0
  -30.7237  -16.2186   24.5474 H   0  0  0  0  0  0
  -27.4979  -19.9254   20.2926 H   0  0  0  0  0  0
  -26.4747  -20.0855   18.9316 H   0  0  0  0  0  0
  -26.2820  -22.3341   21.4640 H   0  0  0  0  0  0
  -25.3468  -22.5691   20.0493 H   0  0  0  0  0  0
  -29.3211  -15.1545   21.5153 H   0  0  0  0  0  0
  -26.0082  -18.1921   21.2292 H   0  0  0  0  0  0
  -29.2659  -14.5838   23.4816 H   0  0  0  0  0  0
  1 25  1  0  0  0
  1 30  2  0  0  0
  1 83  1  0  0  0
  2  3  1  0  0  0
  2 25  1  0  0  0
  2 86  1  0  0  0
  2 87  1  0  0  0
  3  4  1  0  0  0
  3 88  1  0  0  0
  3 89  1  0  0  0
  4  5  1  0  0  0
  4 90  1  0  0  0
  4 91  1  0  0  0
  5  6  1  0  0  0
  5 26  1  0  0  0
  5 92  1  0  0  0
  6 25  1  0  0  0
  6 93  1  0  0  0
  6 94  1  0  0  0
  7  8  2  0  0  0
  7 26  1  0  0  0
  7 29  1  0  0  0
  8  9  1  0  0  0
  8 22  1  0  0  0
  9 10  1  0  0  0
  9 27  2  0  0  0
 10 11  2  0  0  0
 10 15  1  0  0  0
 11 12  1  0  0  0
 11 95  1  0  0  0
 12 13  2  0  0  0
 12 96  1  0  0  0
 13 14  1  0  0  0
 13 31  1  0  0  0
 14 15  2  0  0  0
 14 97  1  0  0  0
 15 98  1  0  0  0
 16 17  2  0  0  0
 16 21  1  0  0  0
 16 31  1  0  0  0
 17 18  1  0  0  0
 17 99  1  0  0  0
 18 19  2  0  0  0
 18100  1  0  0  0
 19 20  1  0  0  0
 19 24  1  0  0  0
 20 21  2  0  0  0
 20101  1  0  0  0
 21 23  1  0  0  0
 22 28  1  0  0  0
 22 32  2  0  0  0
 26 27  1  0  0  0
 28102  1  0  0  0
 28103  1  0  0  0
 29104  1  0  0  0
 29105  1  0  0  0
 33 34  1  0  0  0
 33 66  1  0  0  0
 33 70  2  0  0  0
 34 36  1  0  0  0
 34 59  1  0  0  0
 34106  1  0  0  0
 35 44  2  0  0  0
 35 45  1  0  0  0
 35 68  1  0  0  0
 36 56  1  0  0  0
 36107  1  0  0  0
 37 39  1  0  0  0
 37 47  1  0  0  0
 37 66  1  0  0  0
 37108  1  0  0  0
 38 43  2  0  0  0
 38 46  1  0  0  0
 38 47  1  0  0  0
 39 64  1  0  0  0
 39 67  2  0  0  0
 40 52  1  0  0  0
 40 53  2  0  0  0
 40 58  1  0  0  0
 41109  1  0  0  0
 41110  1  0  0  0
 41111  1  0  0  0
 41 48  1  0  0  0
 42 43  1  0  0  0
 42 66  1  0  0  0
 42112  1  0  0  0
 42113  1  0  0  0
 43 44  1  0  0  0
 44114  1  0  0  0
 45 46  2  0  0  0
 45115  1  0  0  0
 46116  1  0  0  0
 47117  1  0  0  0
 47118  1  0  0  0
 48 56  1  0  0  0
 48 65  1  0  0  0
 48119  1  0  0  0
 49 50  1  0  0  0
 49 53  1  0  0  0
 49 64  1  0  0  0
 49120  1  0  0  0
 50 51  1  0  0  0
 50121  1  0  0  0
 50122  1  0  0  0
 51 52  1  0  0  0
 51123  1  0  0  0
 51124  1  0  0  0
 52125  1  0  0  0
 52126  1  0  0  0
 53 54  1  0  0  0
 54 55  2  0  0  0
 54127  1  0  0  0
 55 57  1  0  0  0
 55128  1  0  0  0
 56 69  2  0  0  0
 57 58  2  0  0  0
 57129  1  0  0  0
 58130  1  0  0  0
 59 60  1  0  0  0
 59 61  1  0  0  0
 59 62  1  0  0  0
 60131  1  0  0  0
 60132  1  0  0  0
 60133  1  0  0  0
 61134  1  0  0  0
 61135  1  0  0  0
 61136  1  0  0  0
 62137  1  0  0  0
 62138  1  0  0  0
 62139  1  0  0  0
 63 65  1  0  0  0
 63140  1  0  0  0
 63141  1  0  0  0
 63142  1  0  0  0
 64143  1  0  0  0
 65144  1  0  0  0
 68 82  1  0  0  0
 71 72  1  0  0  0
 71 76  1  0  0  0
 71145  1  0  0  0
 71146  1  0  0  0
 72 84  1  0  0  0
 72147  1  0  0  0
 72148  1  0  0  0
 73 85  1  0  0  0
 73149  1  0  0  0
 73150  1  0  0  0
 73 75  1  0  0  0
 74 76  1  0  0  0
 74 84  1  0  0  0
 74151  1  0  0  0
 74152  1  0  0  0
 75 76  1  0  0  0
 75 85  1  0  0  0
 75153  1  0  0  0
 76 77  1  0  0  0
 77154  1  0  0  0
 77155  1  0  0  0
 77156  1  0  0  0
 78 79  1  0  0  0
 78 80  1  0  0  0
 78157  1  0  0  0
 78158  1  0  0  0
 79 83  1  0  0  0
 79159  1  0  0  0
 79160  1  0  0  0
 80161  1  0  0  0
 80162  1  0  0  0
 80 85  1  0  0  0
 81 82  1  0  0  0
 81163  1  0  0  0
 81164  1  0  0  0
 81 84  1  0  0  0
 82165  1  0  0  0
 82166  1  0  0  0
 83167  1  0  0  0
 84168  1  0  0  0
 85169  1  0  0  0
M  CHG  2  84   1  85   1
M  ISO  4   1 100  68 101  82 101  83 100
M  END
> <chiral flag>
0

> <version>
0

> <s_m_source_file>
/data/baiqing/PycharmProjects/Reinvent-master-3.2/result/LINK_invent/BTK/process_docking_weight1_custom_sum_contain_oxygen_bond_distance_aromatic_linkinvent_7_9_3/rearranged_h_0193.sdf

> <i_m_source_file_index>
86

> <r_mmod_Potential_Energy-OPLS-2005>
15290.048828125

> <r_mmod_Stretch_Energy-OPLS-2005>
9187.7158203125

> <r_mmod_Bend_Energy-OPLS-2005>
1382.240234375

> <r_mmod_Torsional_Energy-OPLS-2005>
476.237640380859

> <r_mmod_Improper_Torsional_Energy-OPLS-2005>
31.7421894073486

> <r_mmod_Van_der_Waal_Energy-OPLS-2005>
2536.03247070312

> <r_mmod_Electrostatic_Energy-OPLS-2005>
34.8489379882812

> <r_mmod_Solvation_Energy-OPLS-2005>
-919.374389648438

> <b_mmod_Minimization_Converged-OPLS-2005>
0

> <r_mmod_RMS_Derivative-OPLS-2005>
6.51810503005981

$$$$
86
                    3D
 Structure written by MMmdl.
175185  0  0  1  0            999 V2000
  -30.8026  -14.3563   20.7158 C   0  0  0  0  0  0
  -30.4200  -12.2953   19.4188 C   0  0  0  0  0  0
  -29.4882  -12.5094   18.2114 C   0  0  0  0  0  0
  -28.0127  -12.3649   18.6241 C   0  0  0  0  0  0
  -27.6626  -13.2057   19.8798 C   0  0  2  0  0  0
  -28.6957  -12.9946   21.0090 C   0  0  0  0  0  0
  -25.2517  -13.8180   20.5613 C   0  0  0  0  0  0
  -24.1800  -13.0450   20.9117 C   0  0  0  0  0  0
  -24.6352  -11.6916   20.8687 C   0  0  0  0  0  0
  -23.9018  -10.4309   21.0348 C   0  0  0  0  0  0
  -24.3592   -9.4249   21.9137 C   0  0  0  0  0  0
  -23.6295   -8.2275   22.0751 C   0  0  0  0  0  0
  -22.4281   -8.0259   21.3559 C   0  0  0  0  0  0
  -21.9879   -9.0205   20.4657 C   0  0  0  0  0  0
  -22.7171  -10.2104   20.3021 C   0  0  0  0  0  0
  -21.6876   -6.0712   22.5301 C   0  0  0  0  0  0
  -21.4029   -6.5635   23.8229 C   0  0  0  0  0  0
  -21.3650   -5.6798   24.9202 C   0  0  0  0  0  0
  -21.6049   -4.3057   24.7275 C   0  0  0  0  0  0
  -21.8821   -3.8130   23.4401 C   0  0  0  0  0  0
  -21.9201   -4.6932   22.3440 C   0  0  0  0  0  0
  -22.7796  -13.5193   21.1812 C   0  0  0  0  0  0
  -22.1646   -4.2105   21.1017 F   0  0  0  0  0  0
  -21.5617   -3.4552   25.7796 F   0  0  0  0  0  0
  -30.0503  -13.2499   20.4769 N   0  0  0  0  0  0
  -26.3006  -12.9352   20.3370 N   0  0  0  0  0  0
  -25.9295  -11.6520   20.5772 N   0  0  0  0  0  0
  -22.0443  -12.8186   22.0381 N   0  0  0  0  0  0
  -25.4232  -15.1907   20.4016 N   0  0  0  0  0  0
  -31.7776  -14.6770   20.0353 O   0  0  0  0  0  0
  -21.6667   -6.8846   21.4260 O   0  0  0  0  0  0
  -22.3477  -14.5525   20.6671 O   0  0  0  0  0  0
  -24.6143  -31.8728   23.2148 C   0  0  0  0  0  0
  -25.9050  -32.4827   23.8470 C   0  0  1  0  0  0
  -27.2222  -27.4384   20.0952 C   0  0  0  0  0  0
  -25.5921  -33.8644   24.2380 N   0  0  0  0  0  0
  -23.4012  -30.5028   21.5513 C   0  0  2  0  0  0
  -24.8423  -28.9735   20.1131 C   0  0  0  0  0  0
  -22.7437  -29.4695   22.4948 C   0  0  0  0  0  0
  -18.0302  -28.1396   22.8408 C   0  0  0  0  0  0
  -24.1469  -36.7303   23.2649 C   0  0  0  0  0  0
  -25.9355  -30.8269   21.3847 C   0  0  0  0  0  0
  -25.9978  -29.4635   20.7327 C   0  0  0  0  0  0
  -27.1837  -28.6968   20.7355 C   0  0  0  0  0  0
  -26.0589  -26.9914   19.4279 C   0  0  0  0  0  0
  -24.8686  -27.7357   19.4561 C   0  0  0  0  0  0
  -23.6093  -29.8465   20.1614 C   0  0  0  0  0  0
  -25.4107  -36.3148   24.0365 C   0  0  1  0  0  0
  -20.5879  -28.3707   23.1266 C   0  0  2  0  0  0
  -20.6748  -26.9408   22.5465 C   0  0  0  0  0  0
  -19.5781  -26.6322   21.5218 C   0  0  0  0  0  0
  -18.1925  -26.7935   22.1536 C   0  0  0  0  0  0
  -19.1542  -28.8860   23.2822 C   0  0  0  0  0  0
  -18.9472  -30.1443   23.8869 C   0  0  0  0  0  0
  -17.6464  -30.6548   24.0579 C   0  0  0  0  0  0
  -25.9037  -34.9499   23.5172 C   0  0  0  0  0  0
  -16.5355  -29.9066   23.6304 C   0  0  0  0  0  0
  -16.7292  -28.6506   23.0284 C   0  0  0  0  0  0
  -26.4475  -31.6600   25.0797 C   0  0  0  0  0  0
  -25.3775  -31.3638   26.1559 C   0  0  0  0  0  0
  -27.0306  -30.3036   24.6205 C   0  0  0  0  0  0
  -27.6073  -32.4345   25.7502 C   0  0  0  0  0  0
  -27.5591  -37.1819   24.8488 C   0  0  0  0  0  0
  -21.4187  -29.3021   22.3647 N   0  0  0  0  0  0
  -26.4295  -37.3837   23.9441 N   0  0  0  0  0  0
  -24.6658  -31.0899   22.1020 N   0  0  0  0  0  0
  -23.4201  -28.8183   23.2951 O   0  0  0  0  0  0
  -28.4046  -26.7270   20.1352 O   0  0  0  0  0  0
  -26.5599  -34.8938   22.4731 O   0  0  0  0  0  0
  -23.5345  -32.1478   23.7548 O   0  0  0  0  0  0
  -27.4404  -23.6038   21.4119 C   0  0  0  0  0  0
  -28.4536  -24.3057   20.7615 C   0  0  0  0  0  0
  -29.3887  -22.8624   22.0666 C   0  0  0  0  0  0
  -25.3832  -23.4921   19.8083 C   0  0  0  0  0  0
  -30.5231  -20.8765   21.4713 C   0  0  0  0  0  0
  -30.3888  -21.0503   23.5701 C   0  0  0  0  0  0
  -23.9647  -24.0842   19.9057 C   0  0  0  0  0  0
  -25.1797  -24.7752   21.8710 C   0  0  0  0  0  0
  -25.9329  -23.6052   21.2350 C   0  0  2  0  0  0
  -30.0674  -19.9225   22.5803 C   0  0  0  0  0  0
  -27.4067  -22.0295   23.4228 C   0  0  0  0  0  0
  -28.4783  -25.3677   19.6730 C   0  0  0  0  0  0
  -31.1542  -16.2334   22.3310 C   0  0  0  0  0  0
  -30.3203  -17.5096   22.0925 C   0  0  0  0  0  0
  -29.6789  -23.7931   21.1799 N   0  0  0  0  0  0
  -28.0736  -22.7930   22.3736 N   0  0  0  0  0  0
  -30.4533  -21.9748   22.4365 N   0  0  0  0  0  0
  -30.4693  -15.0440   21.8144 N   0  0  0  0  0  0
  -23.8807  -24.8410   21.1747 N   0  3  0  0  0  0
  -30.9154  -18.7152   22.7172 N   0  3  0  0  0  0
  -31.4608  -12.4050   19.1069 H   0  0  0  0  0  0
  -30.3375  -11.2745   19.7934 H   0  0  0  0  0  0
  -29.7313  -11.7953   17.4252 H   0  0  0  0  0  0
  -29.6582  -13.5005   17.7879 H   0  0  0  0  0  0
  -27.8112  -11.3075   18.8073 H   0  0  0  0  0  0
  -27.3656  -12.6501   17.7945 H   0  0  0  0  0  0
  -27.7107  -14.2559   19.5868 H   0  0  0  0  0  0
  -28.6470  -11.9723   21.3814 H   0  0  0  0  0  0
  -28.4255  -13.6267   21.8573 H   0  0  0  0  0  0
  -25.2738   -9.5773   22.4705 H   0  0  0  0  0  0
  -24.0047   -7.4680   22.7459 H   0  0  0  0  0  0
  -21.0826   -8.8652   19.8970 H   0  0  0  0  0  0
  -22.3557  -10.9602   19.6134 H   0  0  0  0  0  0
  -21.2011   -7.6143   23.9717 H   0  0  0  0  0  0
  -21.1456   -6.0542   25.9102 H   0  0  0  0  0  0
  -22.0602   -2.7586   23.2926 H   0  0  0  0  0  0
  -22.4046  -11.9862   22.4813 H   0  0  0  0  0  0
  -21.1007  -13.1142   22.2513 H   0  0  0  0  0  0
  -24.6524  -15.8423   20.5112 H   0  0  0  0  0  0
  -26.2811  -15.6379   20.1019 H   0  0  0  0  0  0
  -26.7154  -32.5485   23.1263 H   0  0  0  0  0  0
  -25.0147  -33.9822   25.0581 H   0  0  0  0  0  0
  -22.6915  -31.3218   21.4181 H   0  0  0  0  0  0
  -23.3758  -35.9597   23.3311 H   0  0  0  0  0  0
  -24.3586  -36.8897   22.2059 H   0  0  0  0  0  0
  -23.7130  -37.6492   23.6624 H   0  0  0  0  0  0
  -26.1016  -31.5946   20.6265 H   0  0  0  0  0  0
  -26.8093  -30.8531   22.0229 H   0  0  0  0  0  0
  -28.0710  -29.0667   21.2335 H   0  0  0  0  0  0
  -26.0456  -26.0943   18.8407 H   0  0  0  0  0  0
  -23.9959  -27.3797   18.9259 H   0  0  0  0  0  0
  -23.7287  -30.6270   19.4096 H   0  0  0  0  0  0
  -22.7311  -29.2789   19.8488 H   0  0  0  0  0  0
  -25.1255  -36.2078   25.0853 H   0  0  0  0  0  0
  -20.9984  -28.3328   24.1379 H   0  0  0  0  0  0
  -20.5534  -26.2384   23.3732 H   0  0  0  0  0  0
  -21.6644  -26.7396   22.1367 H   0  0  0  0  0  0
  -19.6929  -25.6187   21.1338 H   0  0  0  0  0  0
  -19.6766  -27.3052   20.6685 H   0  0  0  0  0  0
  -17.4245  -26.6717   21.3873 H   0  0  0  0  0  0
  -18.0210  -26.0087   22.8905 H   0  0  0  0  0  0
  -19.7951  -30.7267   24.2227 H   0  0  0  0  0  0
  -17.5026  -31.6200   24.5267 H   0  0  0  0  0  0
  -15.5369  -30.2958   23.7656 H   0  0  0  0  0  0
  -15.8693  -28.0840   22.6973 H   0  0  0  0  0  0
  -24.6007  -30.6913   25.7892 H   0  0  0  0  0  0
  -24.8890  -32.2728   26.5070 H   0  0  0  0  0  0
  -25.8202  -30.8799   27.0276 H   0  0  0  0  0  0
  -26.2844  -29.6803   24.1258 H   0  0  0  0  0  0
  -27.4041  -29.7285   25.4692 H   0  0  0  0  0  0
  -27.8722  -30.4329   23.9402 H   0  0  0  0  0  0
  -27.2726  -33.3675   26.2054 H   0  0  0  0  0  0
  -28.3836  -32.6866   25.0264 H   0  0  0  0  0  0
  -28.0790  -31.8495   26.5406 H   0  0  0  0  0  0
  -28.2639  -38.0098   24.7599 H   0  0  0  0  0  0
  -28.1069  -36.2658   24.6241 H   0  0  0  0  0  0
  -27.2350  -37.1395   25.8902 H   0  0  0  0  0  0
  -20.9408  -29.8761   21.6853 H   0  0  0  0  0  0
  -26.0208  -38.2929   24.1432 H   0  0  0  0  0  0
  -25.9835  -24.0243   19.0822 H   0  0  0  0  0  0
  -25.3627  -22.4630   19.4540 H   0  0  0  0  0  0
  -29.8283  -20.9496   20.6320 H   0  0  0  0  0  0
  -31.5452  -20.7223   21.1270 H   0  0  0  0  0  0
  -31.3790  -20.9475   24.0170 H   0  0  0  0  0  0
  -29.6562  -21.2316   24.3480 H   0  0  0  0  0  0
  -23.2100  -23.2948   19.9239 H   0  0  0  0  0  0
  -23.7330  -24.7224   19.0520 H   0  0  0  0  0  0
  -25.7211  -25.7084   21.7395 H   0  0  0  0  0  0
  -25.0364  -24.6331   22.9419 H   0  0  0  0  0  0
  -25.5277  -22.7123   21.7095 H   0  0  0  0  0  0
  -29.0045  -19.6984   22.5566 H   0  0  0  0  0  0
  -26.3892  -22.3723   23.5871 H   0  0  0  0  0  0
  -27.9012  -22.1995   24.3752 H   0  0  0  0  0  0
  -27.3798  -20.9703   23.1806 H   0  0  0  0  0  0
  -27.8384  -25.1266   18.8300 H   0  0  0  0  0  0
  -29.4689  -25.3266   19.2203 H   0  0  0  0  0  0
  -31.3191  -16.0873   23.3998 H   0  0  0  0  0  0
  -32.1476  -16.3377   21.8885 H   0  0  0  0  0  0
  -29.3238  -17.3608   22.5099 H   0  0  0  0  0  0
  -30.1930  -17.6854   21.0221 H   0  0  0  0  0  0
  -29.6877  -14.6850   22.3453 H   0  0  0  0  0  0
  -23.1704  -24.4266   21.7570 H   0  0  0  0  0  0
  -23.6255  -25.7988   21.0041 H   0  0  0  0  0  0
  -31.0283  -18.5236   23.6991 H   0  0  0  0  0  0
  -31.8303  -18.8920   22.3376 H   0  0  0  0  0  0
  1 25  1  0  0  0
  1 30  2  0  0  0
  1 88  1  0  0  0
  2  3  1  0  0  0
  2 25  1  0  0  0
  2 91  1  0  0  0
  2 92  1  0  0  0
  3  4  1  0  0  0
  3 93  1  0  0  0
  3 94  1  0  0  0
  4  5  1  0  0  0
  4 95  1  0  0  0
  4 96  1  0  0  0
  5  6  1  0  0  0
  5 26  1  0  0  0
  5 97  1  0  0  0
  6 25  1  0  0  0
  6 98  1  0  0  0
  6 99  1  0  0  0
  7  8  2  0  0  0
  7 26  1  0  0  0
  7 29  1  0  0  0
  8  9  1  0  0  0
  8 22  1  0  0  0
  9 10  1  0  0  0
  9 27  2  0  0  0
 10 11  2  0  0  0
 10 15  1  0  0  0
 11 12  1  0  0  0
 11100  1  0  0  0
 12 13  2  0  0  0
 12101  1  0  0  0
 13 14  1  0  0  0
 13 31  1  0  0  0
 14 15  2  0  0  0
 14102  1  0  0  0
 15103  1  0  0  0
 16 17  2  0  0  0
 16 21  1  0  0  0
 16 31  1  0  0  0
 17 18  1  0  0  0
 17104  1  0  0  0
 18 19  2  0  0  0
 18105  1  0  0  0
 19 20  1  0  0  0
 19 24  1  0  0  0
 20 21  2  0  0  0
 20106  1  0  0  0
 21 23  1  0  0  0
 22 28  1  0  0  0
 22 32  2  0  0  0
 26 27  1  0  0  0
 28107  1  0  0  0
 28108  1  0  0  0
 29109  1  0  0  0
 29110  1  0  0  0
 33 34  1  0  0  0
 33 66  1  0  0  0
 33 70  2  0  0  0
 34 36  1  0  0  0
 34 59  1  0  0  0
 34111  1  0  0  0
 35 44  2  0  0  0
 35 45  1  0  0  0
 35 68  1  0  0  0
 36 56  1  0  0  0
 36112  1  0  0  0
 37 39  1  0  0  0
 37 47  1  0  0  0
 37 66  1  0  0  0
 37113  1  0  0  0
 38 43  2  0  0  0
 38 46  1  0  0  0
 38 47  1  0  0  0
 39 64  1  0  0  0
 39 67  2  0  0  0
 40 52  1  0  0  0
 40 53  2  0  0  0
 40 58  1  0  0  0
 41114  1  0  0  0
 41115  1  0  0  0
 41116  1  0  0  0
 41 48  1  0  0  0
 42 43  1  0  0  0
 42 66  1  0  0  0
 42117  1  0  0  0
 42118  1  0  0  0
 43 44  1  0  0  0
 44119  1  0  0  0
 45 46  2  0  0  0
 45120  1  0  0  0
 46121  1  0  0  0
 47122  1  0  0  0
 47123  1  0  0  0
 48 56  1  0  0  0
 48 65  1  0  0  0
 48124  1  0  0  0
 49 50  1  0  0  0
 49 53  1  0  0  0
 49 64  1  0  0  0
 49125  1  0  0  0
 50 51  1  0  0  0
 50126  1  0  0  0
 50127  1  0  0  0
 51 52  1  0  0  0
 51128  1  0  0  0
 51129  1  0  0  0
 52130  1  0  0  0
 52131  1  0  0  0
 53 54  1  0  0  0
 54 55  2  0  0  0
 54132  1  0  0  0
 55 57  1  0  0  0
 55133  1  0  0  0
 56 69  2  0  0  0
 57 58  2  0  0  0
 57134  1  0  0  0
 58135  1  0  0  0
 59 60  1  0  0  0
 59 61  1  0  0  0
 59 62  1  0  0  0
 60136  1  0  0  0
 60137  1  0  0  0
 60138  1  0  0  0
 61139  1  0  0  0
 61140  1  0  0  0
 61141  1  0  0  0
 62142  1  0  0  0
 62143  1  0  0  0
 62144  1  0  0  0
 63 65  1  0  0  0
 63145  1  0  0  0
 63146  1  0  0  0
 63147  1  0  0  0
 64148  1  0  0  0
 65149  1  0  0  0
 68 82  1  0  0  0
 71 72  2  0  0  0
 71 86  1  0  0  0
 71 79  1  0  0  0
 72 82  1  0  0  0
 72 85  1  0  0  0
 73 85  2  0  0  0
 73 86  1  0  0  0
 73 87  1  0  0  0
 74 77  1  0  0  0
 74 79  1  0  0  0
 74150  1  0  0  0
 74151  1  0  0  0
 75 80  1  0  0  0
 75 87  1  0  0  0
 75152  1  0  0  0
 75153  1  0  0  0
 76 80  1  0  0  0
 76 87  1  0  0  0
 76154  1  0  0  0
 76155  1  0  0  0
 77 89  1  0  0  0
 77156  1  0  0  0
 77157  1  0  0  0
 78 79  1  0  0  0
 78 89  1  0  0  0
 78158  1  0  0  0
 78159  1  0  0  0
 79160  1  0  0  0
 80 90  1  0  0  0
 80161  1  0  0  0
 81 86  1  0  0  0
 81162  1  0  0  0
 81163  1  0  0  0
 81164  1  0  0  0
 82165  1  0  0  0
 82166  1  0  0  0
 83 84  1  0  0  0
 83 88  1  0  0  0
 83167  1  0  0  0
 83168  1  0  0  0
 84 90  1  0  0  0
 84169  1  0  0  0
 84170  1  0  0  0
 88171  1  0  0  0
 89172  1  0  0  0
 89173  1  0  0  0
 90174  1  0  0  0
 90175  1  0  0  0
M  CHG  2  89   1  90   1
M  ISO  4   1 100  68 101  82 101  88 100
M  END
> <chiral flag>
0

> <version>
0

> <s_m_source_file>
/data/baiqing/PycharmProjects/Reinvent-master-3.2/result/LINK_invent/BTK/process_docking_weight1_custom_sum_contain_oxygen_bond_distance_aromatic_linkinvent_7_9_3/rearranged_h_0193.sdf

> <i_m_source_file_index>
87

> <r_mmod_Potential_Energy-OPLS-2005>
-427.514373779297

> <r_mmod_Stretch_Energy-OPLS-2005>
39.7803726196289

> <r_mmod_Bend_Energy-OPLS-2005>
183.004959106445

> <r_mmod_Torsional_Energy-OPLS-2005>
326.719329833984

> <r_mmod_Improper_Torsional_Energy-OPLS-2005>
10.9141454696655

> <r_mmod_Van_der_Waal_Energy-OPLS-2005>
127.571327209473

> <r_mmod_Electrostatic_Energy-OPLS-2005>
-169.480514526367

> <r_mmod_Solvation_Energy-OPLS-2005>
-957.944641113281

> <b_mmod_Minimization_Converged-OPLS-2005>
0

> <r_mmod_RMS_Derivative-OPLS-2005>
5.16042041778564

$$$$
87
                    3D
 Structure written by MMmdl.
161169  0  0  1  0            999 V2000
  -30.7023  -14.4335   20.5888 C   0  0  0  0  0  0
  -30.4213  -12.2810   19.4305 C   0  0  0  0  0  0
  -29.5037  -12.5125   18.2120 C   0  0  0  0  0  0
  -28.0172  -12.3941   18.6057 C   0  0  0  0  0  0
  -27.6657  -13.2102   19.8797 C   0  0  2  0  0  0
  -28.6990  -12.9581   21.0015 C   0  0  0  0  0  0
  -25.2602  -13.8185   20.5670 C   0  0  0  0  0  0
  -24.1848  -13.0457   20.9150 C   0  0  0  0  0  0
  -24.6393  -11.6924   20.8695 C   0  0  0  0  0  0
  -23.9058  -10.4314   21.0374 C   0  0  0  0  0  0
  -24.3616   -9.4241   21.9162 C   0  0  0  0  0  0
  -23.6302   -8.2270   22.0739 C   0  0  0  0  0  0
  -22.4282   -8.0293   21.3532 C   0  0  0  0  0  0
  -21.9903   -9.0259   20.4627 C   0  0  0  0  0  0
  -22.7225  -10.2147   20.3024 C   0  0  0  0  0  0
  -21.6869   -6.0736   22.5271 C   0  0  0  0  0  0
  -21.4023   -6.5636   23.8206 C   0  0  0  0  0  0
  -21.3666   -5.6786   24.9166 C   0  0  0  0  0  0
  -21.6050   -4.3049   24.7215 C   0  0  0  0  0  0
  -21.8827   -3.8143   23.4337 C   0  0  0  0  0  0
  -21.9202   -4.6961   22.3395 C   0  0  0  0  0  0
  -22.7869  -13.5249   21.1825 C   0  0  0  0  0  0
  -22.1671   -4.2146   21.0973 F   0  0  0  0  0  0
  -21.5626   -3.4532   25.7727 F   0  0  0  0  0  0
  -30.0411  -13.2513   20.4680 N   0  0  0  0  0  0
  -26.3036  -12.9356   20.3344 N   0  0  0  0  0  0
  -25.9319  -11.6508   20.5716 N   0  0  0  0  0  0
  -22.0503  -12.8242   22.0379 N   0  0  0  0  0  0
  -25.4345  -15.1906   20.4127 N   0  0  0  0  0  0
  -31.8148  -14.6357   20.0871 O   0  0  0  0  0  0
  -21.6658   -6.8879   21.4230 O   0  0  0  0  0  0
  -22.3559  -14.5556   20.6676 O   0  0  0  0  0  0
  -24.6137  -31.8717   23.2118 C   0  0  0  0  0  0
  -25.9044  -32.4839   23.8422 C   0  0  1  0  0  0
  -27.2395  -27.4541   20.0855 C   0  0  0  0  0  0
  -25.5898  -33.8638   24.2363 N   0  0  0  0  0  0
  -23.4001  -30.4957   21.5520 C   0  0  2  0  0  0
  -24.8429  -28.9594   20.1180 C   0  0  0  0  0  0
  -22.7415  -29.4684   22.5003 C   0  0  0  0  0  0
  -18.0280  -28.1369   22.8508 C   0  0  0  0  0  0
  -24.1478  -36.7329   23.2643 C   0  0  0  0  0  0
  -25.9279  -30.8373   21.3659 C   0  0  0  0  0  0
  -26.0004  -29.4731   20.7145 C   0  0  0  0  0  0
  -27.1955  -28.7255   20.6995 C   0  0  0  0  0  0
  -26.0565  -26.9386   19.5056 C   0  0  0  0  0  0
  -24.8641  -27.6891   19.5167 C   0  0  0  0  0  0
  -23.6067  -29.8287   20.1654 C   0  0  0  0  0  0
  -25.4099  -36.3140   24.0356 C   0  0  1  0  0  0
  -20.5875  -28.3668   23.1322 C   0  0  2  0  0  0
  -20.6775  -26.9407   22.5415 C   0  0  0  0  0  0
  -19.5740  -26.6388   21.5226 C   0  0  0  0  0  0
  -18.1920  -26.7916   22.1634 C   0  0  0  0  0  0
  -19.1528  -28.8834   23.2909 C   0  0  0  0  0  0
  -18.9452  -30.1433   23.8929 C   0  0  0  0  0  0
  -17.6453  -30.6576   24.0572 C   0  0  0  0  0  0
  -25.9033  -34.9497   23.5166 C   0  0  0  0  0  0
  -16.5346  -29.9082   23.6313 C   0  0  0  0  0  0
  -16.7269  -28.6489   23.0355 C   0  0  0  0  0  0
  -26.4463  -31.6607   25.0754 C   0  0  0  0  0  0
  -25.3717  -31.3722   26.1498 C   0  0  0  0  0  0
  -27.0317  -30.3052   24.6145 C   0  0  0  0  0  0
  -27.6037  -32.4329   25.7513 C   0  0  0  0  0  0
  -27.5587  -37.1831   24.8468 C   0  0  0  0  0  0
  -21.4149  -29.3038   22.3736 N   0  0  0  0  0  0
  -26.4299  -37.3812   23.9410 N   0  0  0  0  0  0
  -24.6649  -31.0839   22.1005 N   0  0  0  0  0  0
  -23.4198  -28.8240   23.3049 O   0  0  0  0  0  0
  -28.4481  -26.7902   20.0906 O   0  0  0  0  0  0
  -26.5597  -34.8945   22.4729 O   0  0  0  0  0  0
  -23.5335  -32.1464   23.7523 O   0  0  0  0  0  0
  -30.2300  -19.1126   21.2941 C   0  0  0  0  0  0
  -30.2528  -17.7662   21.7155 C   0  0  0  0  0  0
  -29.5602  -18.3205   19.1208 C   0  0  0  0  0  0
  -29.8896  -19.4044   19.9577 C   0  0  0  0  0  0
  -29.9626  -16.7406   20.7925 C   0  0  0  0  0  0
  -32.3138  -20.2863   18.4567 C   0  0  0  0  0  0
  -31.4249  -21.2826   19.2176 C   0  0  0  0  0  0
  -28.4865  -24.3282   20.1065 C   0  0  0  0  0  0
  -29.0971  -21.8764   20.1307 C   0  0  0  0  0  0
  -28.6508  -25.6273   19.2865 C   0  0  0  0  0  0
  -29.9535  -20.8228   19.3743 C   0  0  2  0  0  0
  -29.5898  -17.0343   19.5260 N   0  0  0  0  0  0
  -30.0343  -15.3995   21.2393 N   0  0  0  0  0  0
  -29.0809  -23.1668   19.3969 N   0  3  0  0  0  0
  -31.4694  -12.3695   19.1396 H   0  0  0  0  0  0
  -30.3059  -11.2643   19.8095 H   0  0  0  0  0  0
  -29.7399  -11.7966   17.4231 H   0  0  0  0  0  0
  -29.6960  -13.5024   17.7957 H   0  0  0  0  0  0
  -27.7993  -11.3386   18.7693 H   0  0  0  0  0  0
  -27.3861  -12.7110   17.7742 H   0  0  0  0  0  0
  -27.7195  -14.2654   19.6086 H   0  0  0  0  0  0
  -28.6576  -11.9156   21.3213 H   0  0  0  0  0  0
  -28.4563  -13.5417   21.8907 H   0  0  0  0  0  0
  -25.2754   -9.5752   22.4740 H   0  0  0  0  0  0
  -24.0024   -7.4677   22.7467 H   0  0  0  0  0  0
  -21.0826   -8.8765   19.8948 H   0  0  0  0  0  0
  -22.3657  -10.9678   19.6138 H   0  0  0  0  0  0
  -21.2014   -7.6143   23.9706 H   0  0  0  0  0  0
  -21.1478   -6.0514   25.9071 H   0  0  0  0  0  0
  -22.0600   -2.7602   23.2835 H   0  0  0  0  0  0
  -22.4100  -11.9904   22.4780 H   0  0  0  0  0  0
  -21.1106  -13.1259   22.2542 H   0  0  0  0  0  0
  -24.6690  -15.8477   20.5146 H   0  0  0  0  0  0
  -26.2947  -15.6289   20.1070 H   0  0  0  0  0  0
  -26.7133  -32.5547   23.1200 H   0  0  0  0  0  0
  -25.0050  -33.9793   25.0513 H   0  0  0  0  0  0
  -22.6878  -31.3122   21.4165 H   0  0  0  0  0  0
  -23.3746  -35.9655   23.3317 H   0  0  0  0  0  0
  -24.3578  -36.8927   22.2056 H   0  0  0  0  0  0
  -23.7218  -37.6540   23.6634 H   0  0  0  0  0  0
  -26.0541  -31.6033   20.5992 H   0  0  0  0  0  0
  -26.8113  -30.8811   21.9911 H   0  0  0  0  0  0
  -28.0919  -29.1281   21.1506 H   0  0  0  0  0  0
  -26.0269  -25.9627   19.0447 H   0  0  0  0  0  0
  -23.9702  -27.2840   19.0616 H   0  0  0  0  0  0
  -23.7200  -30.6063   19.4091 H   0  0  0  0  0  0
  -22.7282  -29.2540   19.8664 H   0  0  0  0  0  0
  -25.1267  -36.2033   25.0850 H   0  0  0  0  0  0
  -20.9972  -28.3237   24.1439 H   0  0  0  0  0  0
  -20.5717  -26.2278   23.3606 H   0  0  0  0  0  0
  -21.6640  -26.7469   22.1179 H   0  0  0  0  0  0
  -19.6900  -25.6311   21.1227 H   0  0  0  0  0  0
  -19.6660  -27.3224   20.6777 H   0  0  0  0  0  0
  -17.4200  -26.6697   21.4020 H   0  0  0  0  0  0
  -18.0289  -26.0037   22.9003 H   0  0  0  0  0  0
  -19.7932  -30.7233   24.2317 H   0  0  0  0  0  0
  -17.5012  -31.6256   24.5170 H   0  0  0  0  0  0
  -15.5348  -30.2993   23.7610 H   0  0  0  0  0  0
  -15.8673  -28.0810   22.7063 H   0  0  0  0  0  0
  -24.5832  -30.7147   25.7825 H   0  0  0  0  0  0
  -24.8972  -32.2887   26.5011 H   0  0  0  0  0  0
  -25.8034  -30.8818   27.0230 H   0  0  0  0  0  0
  -26.2903  -29.6810   24.1147 H   0  0  0  0  0  0
  -27.4043  -29.7287   25.4625 H   0  0  0  0  0  0
  -27.8745  -30.4393   23.9359 H   0  0  0  0  0  0
  -27.2646  -33.3594   26.2159 H   0  0  0  0  0  0
  -28.3796  -32.6951   25.0310 H   0  0  0  0  0  0
  -28.0762  -31.8421   26.5370 H   0  0  0  0  0  0
  -28.2619  -38.0117   24.7518 H   0  0  0  0  0  0
  -28.1073  -36.2657   24.6284 H   0  0  0  0  0  0
  -27.2317  -37.1475   25.8875 H   0  0  0  0  0  0
  -20.9315  -29.8752   21.6947 H   0  0  0  0  0  0
  -26.0210  -38.2914   24.1348 H   0  0  0  0  0  0
  -30.5028  -19.9000   21.9830 H   0  0  0  0  0  0
  -30.5288  -17.5285   22.7344 H   0  0  0  0  0  0
  -29.3027  -18.4778   18.0840 H   0  0  0  0  0  0
  -33.3025  -20.7090   18.2761 H   0  0  0  0  0  0
  -31.8825  -20.0321   17.4880 H   0  0  0  0  0  0
  -32.4529  -19.3606   19.0158 H   0  0  0  0  0  0
  -31.4668  -22.2370   18.6919 H   0  0  0  0  0  0
  -31.8634  -21.4659   20.2005 H   0  0  0  0  0  0
  -27.4337  -24.1427   20.3227 H   0  0  0  0  0  0
  -28.9934  -24.4484   21.0654 H   0  0  0  0  0  0
  -29.4892  -22.0286   21.1377 H   0  0  0  0  0  0
  -28.0702  -21.5241   20.2424 H   0  0  0  0  0  0
  -28.0514  -25.6203   18.3761 H   0  0  0  0  0  0
  -29.6815  -25.6955   18.9376 H   0  0  0  0  0  0
  -29.5361  -20.7525   18.3679 H   0  0  0  0  0  0
  -29.2384  -15.0812   21.7674 H   0  0  0  0  0  0
  -30.0403  -23.3914   19.1828 H   0  0  0  0  0  0
  -28.6043  -23.0316   18.5186 H   0  0  0  0  0  0
  1 25  1  0  0  0
  1 30  2  0  0  0
  1 83  1  0  0  0
  2  3  1  0  0  0
  2 25  1  0  0  0
  2 85  1  0  0  0
  2 86  1  0  0  0
  3  4  1  0  0  0
  3 87  1  0  0  0
  3 88  1  0  0  0
  4  5  1  0  0  0
  4 89  1  0  0  0
  4 90  1  0  0  0
  5  6  1  0  0  0
  5 26  1  0  0  0
  5 91  1  0  0  0
  6 25  1  0  0  0
  6 92  1  0  0  0
  6 93  1  0  0  0
  7  8  2  0  0  0
  7 26  1  0  0  0
  7 29  1  0  0  0
  8  9  1  0  0  0
  8 22  1  0  0  0
  9 10  1  0  0  0
  9 27  2  0  0  0
 10 11  2  0  0  0
 10 15  1  0  0  0
 11 12  1  0  0  0
 11 94  1  0  0  0
 12 13  2  0  0  0
 12 95  1  0  0  0
 13 14  1  0  0  0
 13 31  1  0  0  0
 14 15  2  0  0  0
 14 96  1  0  0  0
 15 97  1  0  0  0
 16 17  2  0  0  0
 16 21  1  0  0  0
 16 31  1  0  0  0
 17 18  1  0  0  0
 17 98  1  0  0  0
 18 19  2  0  0  0
 18 99  1  0  0  0
 19 20  1  0  0  0
 19 24  1  0  0  0
 20 21  2  0  0  0
 20100  1  0  0  0
 21 23  1  0  0  0
 22 28  1  0  0  0
 22 32  2  0  0  0
 26 27  1  0  0  0
 28101  1  0  0  0
 28102  1  0  0  0
 29103  1  0  0  0
 29104  1  0  0  0
 33 34  1  0  0  0
 33 66  1  0  0  0
 33 70  2  0  0  0
 34 36  1  0  0  0
 34 59  1  0  0  0
 34105  1  0  0  0
 35 44  2  0  0  0
 35 45  1  0  0  0
 35 68  1  0  0  0
 36 56  1  0  0  0
 36106  1  0  0  0
 37 39  1  0  0  0
 37 47  1  0  0  0
 37 66  1  0  0  0
 37107  1  0  0  0
 38 43  2  0  0  0
 38 46  1  0  0  0
 38 47  1  0  0  0
 39 64  1  0  0  0
 39 67  2  0  0  0
 40 52  1  0  0  0
 40 53  2  0  0  0
 40 58  1  0  0  0
 41108  1  0  0  0
 41109  1  0  0  0
 41110  1  0  0  0
 41 48  1  0  0  0
 42 43  1  0  0  0
 42 66  1  0  0  0
 42111  1  0  0  0
 42112  1  0  0  0
 43 44  1  0  0  0
 44113  1  0  0  0
 45 46  2  0  0  0
 45114  1  0  0  0
 46115  1  0  0  0
 47116  1  0  0  0
 47117  1  0  0  0
 48 56  1  0  0  0
 48 65  1  0  0  0
 48118  1  0  0  0
 49 50  1  0  0  0
 49 53  1  0  0  0
 49 64  1  0  0  0
 49119  1  0  0  0
 50 51  1  0  0  0
 50120  1  0  0  0
 50121  1  0  0  0
 51 52  1  0  0  0
 51122  1  0  0  0
 51123  1  0  0  0
 52124  1  0  0  0
 52125  1  0  0  0
 53 54  1  0  0  0
 54 55  2  0  0  0
 54126  1  0  0  0
 55 57  1  0  0  0
 55127  1  0  0  0
 56 69  2  0  0  0
 57 58  2  0  0  0
 57128  1  0  0  0
 58129  1  0  0  0
 59 60  1  0  0  0
 59 61  1  0  0  0
 59 62  1  0  0  0
 60130  1  0  0  0
 60131  1  0  0  0
 60132  1  0  0  0
 61133  1  0  0  0
 61134  1  0  0  0
 61135  1  0  0  0
 62136  1  0  0  0
 62137  1  0  0  0
 62138  1  0  0  0
 63 65  1  0  0  0
 63139  1  0  0  0
 63140  1  0  0  0
 63141  1  0  0  0
 64142  1  0  0  0
 65143  1  0  0  0
 68 80  1  0  0  0
 71 72  2  0  0  0
 71 74  1  0  0  0
 71144  1  0  0  0
 72 75  1  0  0  0
 72145  1  0  0  0
 73 74  2  0  0  0
 73 82  1  0  0  0
 73146  1  0  0  0
 74 81  1  0  0  0
 75 82  2  0  0  0
 75 83  1  0  0  0
 76 77  1  0  0  0
 76147  1  0  0  0
 76148  1  0  0  0
 76149  1  0  0  0
 77150  1  0  0  0
 77151  1  0  0  0
 77 81  1  0  0  0
 78 80  1  0  0  0
 78 84  1  0  0  0
 78152  1  0  0  0
 78153  1  0  0  0
 79 81  1  0  0  0
 79 84  1  0  0  0
 79154  1  0  0  0
 79155  1  0  0  0
 80156  1  0  0  0
 80157  1  0  0  0
 81158  1  0  0  0
 83159  1  0  0  0
 84160  1  0  0  0
 84161  1  0  0  0
M  CHG  1  84   1
M  ISO  4   1 100  68 101  80 101  83 100
M  END
> <chiral flag>
0

> <version>
0

> <s_m_source_file>
/data/baiqing/PycharmProjects/Reinvent-master-3.2/result/LINK_invent/BTK/process_docking_weight1_custom_sum_contain_oxygen_bond_distance_aromatic_linkinvent_7_9_3/rearranged_h_0193.sdf

> <i_m_source_file_index>
88

> <r_mmod_Potential_Energy-OPLS-2005>
-334.972991943359

> <r_mmod_Stretch_Energy-OPLS-2005>
34.8039855957031

> <r_mmod_Bend_Energy-OPLS-2005>
101.64249420166

> <r_mmod_Torsional_Energy-OPLS-2005>
235.963470458984

> <r_mmod_Improper_Torsional_Energy-OPLS-2005>
4.61327123641968

> <r_mmod_Van_der_Waal_Energy-OPLS-2005>
152.849670410156

> <r_mmod_Electrostatic_Energy-OPLS-2005>
-396.296020507812

> <r_mmod_Solvation_Energy-OPLS-2005>
-478.733154296875

> <b_mmod_Minimization_Converged-OPLS-2005>
0

> <r_mmod_RMS_Derivative-OPLS-2005>
1.84021604061127

$$$$
88
                    3D
 Structure written by MMmdl.
151160  0  0  1  0            999 V2000
  -29.9768  -16.3808   20.4822 C   0  0  0  0  0  0
  -30.3751  -13.6175   19.6175 C   0  0  0  0  0  0
  -29.5982  -12.9071   18.4278 C   0  0  0  0  0  0
  -28.2297  -12.3526   18.8421 C   0  0  0  0  0  0
  -27.5960  -13.3623   19.7980 C   0  0  2  0  0  0
  -28.5445  -13.8653   20.9182 C   0  0  0  0  0  0
  -25.2291  -13.8307   20.5686 C   0  0  0  0  0  0
  -24.1734  -13.0408   20.9169 C   0  0  0  0  0  0
  -24.6509  -11.6947   20.8627 C   0  0  0  0  0  0
  -23.9204  -10.4290   21.0317 C   0  0  0  0  0  0
  -24.3717   -9.4220   21.9135 C   0  0  0  0  0  0
  -23.6344   -8.2278   22.0758 C   0  0  0  0  0  0
  -22.4312   -8.0319   21.3567 C   0  0  0  0  0  0
  -21.9970   -9.0283   20.4644 C   0  0  0  0  0  0
  -22.7337  -10.2138   20.3002 C   0  0  0  0  0  0
  -21.6874   -6.0754   22.5290 C   0  0  0  0  0  0
  -21.4027   -6.5651   23.8221 C   0  0  0  0  0  0
  -21.3671   -5.6799   24.9182 C   0  0  0  0  0  0
  -21.6049   -4.3061   24.7229 C   0  0  0  0  0  0
  -21.8810   -3.8156   23.4348 C   0  0  0  0  0  0
  -21.9198   -4.6977   22.3405 C   0  0  0  0  0  0
  -22.7746  -13.5120   21.1876 C   0  0  0  0  0  0
  -22.1659   -4.2168   21.0980 F   0  0  0  0  0  0
  -21.5632   -3.4542   25.7739 F   0  0  0  0  0  0
  -29.6406  -14.8113   20.3900 N   0  0  0  0  0  0
  -26.2791  -12.9726   20.3014 N   0  0  0  0  0  0
  -25.9475  -11.6756   20.5465 N   0  0  0  0  0  0
  -22.0484  -12.8077   22.0465 N   0  0  0  0  0  0
  -25.3837  -15.2071   20.4290 N   0  0  0  0  0  0
  -31.0606  -16.2334   19.8139 O   0  0  0  0  0  0
  -21.6666   -6.8920   21.4265 O   0  0  0  0  0  0
  -22.3382  -14.5418   20.6752 O   0  0  0  0  0  0
  -24.7250  -31.7478   23.1136 C   0  0  0  0  0  0
  -25.9598  -32.4232   23.7868 C   0  0  1  0  0  0
  -27.2549  -26.2337   20.2741 C   0  0  0  0  0  0
  -25.5994  -33.8084   24.1708 N   0  0  0  0  0  0
  -23.5742  -30.3215   21.4846 C   0  0  2  0  0  0
  -25.0372  -28.5628   20.1438 C   0  0  0  0  0  0
  -22.7958  -29.4013   22.4671 C   0  0  0  0  0  0
  -18.0362  -28.1434   22.8447 C   0  0  0  0  0  0
  -24.1514  -36.7042   23.2666 C   0  0  0  0  0  0
  -26.1720  -30.3258   21.4510 C   0  0  0  0  0  0
  -26.2354  -28.8353   20.8139 C   0  0  0  0  0  0
  -27.3050  -27.7175   20.8285 C   0  0  0  0  0  0
  -26.0147  -26.2902   19.5436 C   0  0  0  0  0  0
  -24.9939  -27.3191   19.4830 C   0  0  0  0  0  0
  -23.8512  -29.5696   20.1446 C   0  0  0  0  0  0
  -25.4176  -36.2763   24.0261 C   0  0  1  0  0  0
  -20.6015  -28.3804   23.1104 C   0  0  2  0  0  0
  -20.6821  -26.9427   22.5436 C   0  0  0  0  0  0
  -19.5804  -26.6348   21.5247 C   0  0  0  0  0  0
  -18.1978  -26.7958   22.1619 C   0  0  0  0  0  0
  -19.1634  -28.8957   23.2739 C   0  0  0  0  0  0
  -18.9530  -30.1537   23.8780 C   0  0  0  0  0  0
  -17.6511  -30.6617   24.0528 C   0  0  0  0  0  0
  -25.9172  -34.9158   23.4862 C   0  0  0  0  0  0
  -16.5401  -29.9076   23.6367 C   0  0  0  0  0  0
  -16.7337  -28.6502   23.0390 C   0  0  0  0  0  0
  -26.4620  -31.6447   25.0672 C   0  0  0  0  0  0
  -25.3571  -31.3877   26.1209 C   0  0  0  0  0  0
  -27.0599  -30.2731   24.6892 C   0  0  0  0  0  0
  -27.6008  -32.4409   25.7476 C   0  0  0  0  0  0
  -27.5571  -37.1661   24.8461 C   0  0  0  0  0  0
  -21.4569  -29.2957   22.3380 N   0  0  0  0  0  0
  -26.4273  -37.3566   23.9408 N   0  0  0  0  0  0
  -24.8534  -30.8419   22.0688 N   0  0  0  0  0  0
  -23.4162  -28.7703   23.3256 O   0  0  0  0  0  0
  -28.1983  -24.8261   20.2592 O   0  0  0  0  0  0
  -26.5887  -34.8811   22.4527 O   0  0  0  0  0  0
  -23.6169  -32.0791   23.5762 O   0  0  0  0  0  0
  -30.8377  -16.6149   22.5895 C   0  0  0  0  0  0
  -28.8500  -16.2402   22.5003 C   0  0  0  0  0  0
  -31.1729  -18.1309   21.4901 C   0  0  0  0  0  0
  -29.9760  -19.8151   22.5946 C   0  0  0  0  0  0
  -30.2788  -18.5813   23.8633 C   0  0  0  0  0  0
  -31.2434  -19.0510   22.7275 C   0  0  0  0  0  0
  -28.9521  -20.7559   19.9766 C   0  0  0  0  0  0
  -28.2683  -22.8265   20.4924 C   0  0  0  0  0  0
  -28.0473  -17.4953   21.1225 N   0  0  0  0  0  0
  -29.4471  -18.8100   20.4475 N   0  0  0  0  0  0
  -29.4436  -18.3258   22.5719 N   0  0  0  0  0  0
  -31.3087  -13.9789   19.1915 H   0  0  0  0  0  0
  -30.7187  -12.8685   20.3324 H   0  0  0  0  0  0
  -30.2115  -12.1098   18.0035 H   0  0  0  0  0  0
  -29.4536  -13.6354   17.6260 H   0  0  0  0  0  0
  -28.3670  -11.3976   19.3524 H   0  0  0  0  0  0
  -27.5967  -12.1620   17.9744 H   0  0  0  0  0  0
  -27.4046  -14.2303   19.1653 H   0  0  0  0  0  0
  -28.9287  -13.0484   21.5312 H   0  0  0  0  0  0
  -27.8348  -14.3570   21.5617 H   0  0  0  0  0  0
  -25.2890   -9.5686   22.4675 H   0  0  0  0  0  0
  -24.0056   -7.4680   22.7489 H   0  0  0  0  0  0
  -21.0902   -8.8790   19.8952 H   0  0  0  0  0  0
  -22.3802  -10.9650   19.6070 H   0  0  0  0  0  0
  -21.2012   -7.6158   23.9734 H   0  0  0  0  0  0
  -21.1503   -6.0527   25.9092 H   0  0  0  0  0  0
  -22.0574   -2.7618   23.2839 H   0  0  0  0  0  0
  -22.4186  -11.9752   22.4795 H   0  0  0  0  0  0
  -21.1107  -13.1051   22.2742 H   0  0  0  0  0  0
  -24.6218  -15.8552   20.5916 H   0  0  0  0  0  0
  -26.2536  -15.6789   20.2077 H   0  0  0  0  0  0
  -26.7751  -32.4596   23.0634 H   0  0  0  0  0  0
  -24.9962  -33.9088   24.9744 H   0  0  0  0  0  0
  -22.9266  -31.1687   21.2535 H   0  0  0  0  0  0
  -23.3829  -35.9320   23.3220 H   0  0  0  0  0  0
  -24.3580  -36.8834   22.2109 H   0  0  0  0  0  0
  -23.7216  -37.6141   23.6850 H   0  0  0  0  0  0
  -26.4120  -31.0172   20.6424 H   0  0  0  0  0  0
  -27.0098  -30.4179   22.1289 H   0  0  0  0  0  0
  -28.2009  -27.9625   21.3799 H   0  0  0  0  0  0
  -25.7747  -25.3895   18.9981 H   0  0  0  0  0  0
  -24.1053  -27.0893   18.9103 H   0  0  0  0  0  0
  -24.0533  -30.3066   19.3679 H   0  0  0  0  0  0
  -22.9509  -29.0465   19.8188 H   0  0  0  0  0  0
  -25.1407  -36.1475   25.0756 H   0  0  0  0  0  0
  -21.0068  -28.3456   24.1243 H   0  0  0  0  0  0
  -20.5687  -26.2426   23.3726 H   0  0  0  0  0  0
  -21.6677  -26.7327   22.1249 H   0  0  0  0  0  0
  -19.6958  -25.6232   21.1344 H   0  0  0  0  0  0
  -19.6777  -27.3109   20.6746 H   0  0  0  0  0  0
  -17.4266  -26.6732   21.3995 H   0  0  0  0  0  0
  -18.0309  -26.0111   22.9017 H   0  0  0  0  0  0
  -19.8003  -30.7388   24.2100 H   0  0  0  0  0  0
  -17.5054  -31.6288   24.5141 H   0  0  0  0  0  0
  -15.5392  -30.2932   23.7762 H   0  0  0  0  0  0
  -15.8744  -28.0764   22.7192 H   0  0  0  0  0  0
  -24.5846  -30.7141   25.7473 H   0  0  0  0  0  0
  -24.8663  -32.3128   26.4247 H   0  0  0  0  0  0
  -25.7653  -30.9279   27.0226 H   0  0  0  0  0  0
  -26.3376  -29.6222   24.1972 H   0  0  0  0  0  0
  -27.3904  -29.7357   25.5786 H   0  0  0  0  0  0
  -27.9404  -30.3720   24.0556 H   0  0  0  0  0  0
  -27.2525  -33.3855   26.1659 H   0  0  0  0  0  0
  -28.3967  -32.6742   25.0395 H   0  0  0  0  0  0
  -28.0517  -31.8817   26.5682 H   0  0  0  0  0  0
  -28.2503  -38.0029   24.7542 H   0  0  0  0  0  0
  -28.1146  -36.2542   24.6249 H   0  0  0  0  0  0
  -27.2291  -37.1239   25.8861 H   0  0  0  0  0  0
  -21.0010  -29.8475   21.6241 H   0  0  0  0  0  0
  -26.0064  -38.2595   24.1434 H   0  0  0  0  0  0
  -31.5454  -16.1581   23.2704 H   0  0  0  0  0  0
  -28.2505  -15.5810   23.1094 H   0  0  0  0  0  0
  -29.5769  -20.5665   23.3009 H   0  0  0  0  0  0
  -30.3145  -20.4396   21.7786 H   0  0  0  0  0  0
  -30.6193  -17.7621   24.5035 H   0  0  0  0  0  0
  -29.8974  -19.2344   24.6713 H   0  0  0  0  0  0
  -32.1551  -19.6010   22.9581 H   0  0  0  0  0  0
  -29.8800  -21.0406   19.4838 H   0  0  0  0  0  0
  -28.2839  -20.5693   19.1359 H   0  0  0  0  0  0
  -28.6347  -22.8501   21.5194 H   0  0  0  0  0  0
  -27.2008  -22.6465   20.6206 H   0  0  0  0  0  0
  1 25  1  0  0  0
  1 30  2  0  0  0
  1 81  1  0  0  0
  2  3  1  0  0  0
  2 25  1  0  0  0
  2 82  1  0  0  0
  2 83  1  0  0  0
  3  4  1  0  0  0
  3 84  1  0  0  0
  3 85  1  0  0  0
  4  5  1  0  0  0
  4 86  1  0  0  0
  4 87  1  0  0  0
  5  6  1  0  0  0
  5 26  1  0  0  0
  5 88  1  0  0  0
  6 25  1  0  0  0
  6 89  1  0  0  0
  6 90  1  0  0  0
  7  8  2  0  0  0
  7 26  1  0  0  0
  7 29  1  0  0  0
  8  9  1  0  0  0
  8 22  1  0  0  0
  9 10  1  0  0  0
  9 27  2  0  0  0
 10 11  2  0  0  0
 10 15  1  0  0  0
 11 12  1  0  0  0
 11 91  1  0  0  0
 12 13  2  0  0  0
 12 92  1  0  0  0
 13 14  1  0  0  0
 13 31  1  0  0  0
 14 15  2  0  0  0
 14 93  1  0  0  0
 15 94  1  0  0  0
 16 17  2  0  0  0
 16 21  1  0  0  0
 16 31  1  0  0  0
 17 18  1  0  0  0
 17 95  1  0  0  0
 18 19  2  0  0  0
 18 96  1  0  0  0
 19 20  1  0  0  0
 19 24  1  0  0  0
 20 21  2  0  0  0
 20 97  1  0  0  0
 21 23  1  0  0  0
 22 28  1  0  0  0
 22 32  2  0  0  0
 26 27  1  0  0  0
 28 98  1  0  0  0
 28 99  1  0  0  0
 29100  1  0  0  0
 29101  1  0  0  0
 33 34  1  0  0  0
 33 66  1  0  0  0
 33 70  2  0  0  0
 34 36  1  0  0  0
 34 59  1  0  0  0
 34102  1  0  0  0
 35 44  2  0  0  0
 35 45  1  0  0  0
 35 68  1  0  0  0
 36 56  1  0  0  0
 36103  1  0  0  0
 37 39  1  0  0  0
 37 47  1  0  0  0
 37 66  1  0  0  0
 37104  1  0  0  0
 38 43  2  0  0  0
 38 46  1  0  0  0
 38 47  1  0  0  0
 39 64  1  0  0  0
 39 67  2  0  0  0
 40 52  1  0  0  0
 40 53  2  0  0  0
 40 58  1  0  0  0
 41105  1  0  0  0
 41106  1  0  0  0
 41107  1  0  0  0
 41 48  1  0  0  0
 42 43  1  0  0  0
 42 66  1  0  0  0
 42108  1  0  0  0
 42109  1  0  0  0
 43 44  1  0  0  0
 44110  1  0  0  0
 45 46  2  0  0  0
 45111  1  0  0  0
 46112  1  0  0  0
 47113  1  0  0  0
 47114  1  0  0  0
 48 56  1  0  0  0
 48 65  1  0  0  0
 48115  1  0  0  0
 49 50  1  0  0  0
 49 53  1  0  0  0
 49 64  1  0  0  0
 49116  1  0  0  0
 50 51  1  0  0  0
 50117  1  0  0  0
 50118  1  0  0  0
 51 52  1  0  0  0
 51119  1  0  0  0
 51120  1  0  0  0
 52121  1  0  0  0
 52122  1  0  0  0
 53 54  1  0  0  0
 54 55  2  0  0  0
 54123  1  0  0  0
 55 57  1  0  0  0
 55124  1  0  0  0
 56 69  2  0  0  0
 57 58  2  0  0  0
 57125  1  0  0  0
 58126  1  0  0  0
 59 60  1  0  0  0
 59 61  1  0  0  0
 59 62  1  0  0  0
 60127  1  0  0  0
 60128  1  0  0  0
 60129  1  0  0  0
 61130  1  0  0  0
 61131  1  0  0  0
 61132  1  0  0  0
 62133  1  0  0  0
 62134  1  0  0  0
 62135  1  0  0  0
 63 65  1  0  0  0
 63136  1  0  0  0
 63137  1  0  0  0
 63138  1  0  0  0
 64139  1  0  0  0
 65140  1  0  0  0
 68 78  1  0  0  0
 71 72  1  0  0  0
 71 73  2  0  0  0
 71141  1  0  0  0
 72 79  2  0  0  0
 72142  1  0  0  0
 73 80  1  0  0  0
 73 76  1  0  0  0
 74 76  1  0  0  0
 74 81  1  0  0  0
 74143  1  0  0  0
 74144  1  0  0  0
 75 76  1  0  0  0
 75 81  1  0  0  0
 75145  1  0  0  0
 75146  1  0  0  0
 76147  1  0  0  0
 77 78  1  0  0  0
 77 80  1  0  0  0
 77148  1  0  0  0
 77149  1  0  0  0
 78150  1  0  0  0
 78151  1  0  0  0
 79 80  1  0  0  0
M  ISO  4   1 100  68 101  78 101  81 100
M  END
> <chiral flag>
0

> <version>
0

> <s_m_source_file>
/data/baiqing/PycharmProjects/Reinvent-master-3.2/result/LINK_invent/BTK/process_docking_weight1_custom_sum_contain_oxygen_bond_distance_aromatic_linkinvent_7_9_3/rearranged_h_0193.sdf

> <i_m_source_file_index>
89

> <r_mmod_Potential_Energy-OPLS-2005>
18107.533203125

> <r_mmod_Stretch_Energy-OPLS-2005>
11282.208984375

> <r_mmod_Bend_Energy-OPLS-2005>
1269.24865722656

> <r_mmod_Torsional_Energy-OPLS-2005>
417.617797851562

> <r_mmod_Improper_Torsional_Energy-OPLS-2005>
89.7120971679688

> <r_mmod_Van_der_Waal_Energy-OPLS-2005>
3377.58813476562

> <r_mmod_Electrostatic_Energy-OPLS-2005>
-341.007904052734

> <r_mmod_Solvation_Energy-OPLS-2005>
-225.737945556641

> <b_mmod_Minimization_Converged-OPLS-2005>
0

> <r_mmod_RMS_Derivative-OPLS-2005>
3.82308530807495

$$$$
89
                    3D
 Structure written by MMmdl.
161170  0  0  1  0            999 V2000
  -30.6675  -14.5928   20.5053 C   0  0  0  0  0  0
  -30.4248  -12.3660   19.4480 C   0  0  0  0  0  0
  -29.5015  -12.5008   18.2182 C   0  0  0  0  0  0
  -28.0223  -12.3518   18.6279 C   0  0  0  0  0  0
  -27.6510  -13.2167   19.8630 C   0  0  2  0  0  0
  -28.6957  -13.0590   20.9890 C   0  0  0  0  0  0
  -25.2546  -13.8173   20.5685 C   0  0  0  0  0  0
  -24.1814  -13.0437   20.9187 C   0  0  0  0  0  0
  -24.6384  -11.6909   20.8737 C   0  0  0  0  0  0
  -23.9052  -10.4294   21.0405 C   0  0  0  0  0  0
  -24.3606   -9.4211   21.9183 C   0  0  0  0  0  0
  -23.6285   -8.2245   22.0753 C   0  0  0  0  0  0
  -22.4269   -8.0279   21.3542 C   0  0  0  0  0  0
  -21.9899   -9.0253   20.4647 C   0  0  0  0  0  0
  -22.7224  -10.2135   20.3055 C   0  0  0  0  0  0
  -21.6853   -6.0730   22.5275 C   0  0  0  0  0  0
  -21.4018   -6.5635   23.8209 C   0  0  0  0  0  0
  -21.3661   -5.6787   24.9171 C   0  0  0  0  0  0
  -21.6043   -4.3050   24.7223 C   0  0  0  0  0  0
  -21.8821   -3.8142   23.4346 C   0  0  0  0  0  0
  -21.9194   -4.6958   22.3400 C   0  0  0  0  0  0
  -22.7837  -13.5231   21.1849 C   0  0  0  0  0  0
  -22.1662   -4.2144   21.0979 F   0  0  0  0  0  0
  -21.5628   -3.4534   25.7737 F   0  0  0  0  0  0
  -30.0081  -13.3949   20.4209 N   0  0  0  0  0  0
  -26.2976  -12.9356   20.3326 N   0  0  0  0  0  0
  -25.9310  -11.6509   20.5755 N   0  0  0  0  0  0
  -22.0477  -12.8232   22.0412 N   0  0  0  0  0  0
  -25.4251  -15.1890   20.4092 N   0  0  0  0  0  0
  -31.8466  -14.6845   20.1481 O   0  0  0  0  0  0
  -21.6636   -6.8873   21.4238 O   0  0  0  0  0  0
  -22.3523  -14.5537   20.6695 O   0  0  0  0  0  0
  -24.6215  -31.8628   23.2053 C   0  0  0  0  0  0
  -25.9083  -32.4793   23.8364 C   0  0  1  0  0  0
  -27.2267  -27.3600   20.0957 C   0  0  0  0  0  0
  -25.5913  -33.8592   24.2294 N   0  0  0  0  0  0
  -23.4119  -30.4875   21.5480 C   0  0  2  0  0  0
  -24.8552  -28.9471   20.1120 C   0  0  0  0  0  0
  -22.7443  -29.4638   22.4961 C   0  0  0  0  0  0
  -18.0280  -28.1376   22.8489 C   0  0  0  0  0  0
  -24.1489  -36.7302   23.2638 C   0  0  0  0  0  0
  -25.9490  -30.8049   21.3695 C   0  0  0  0  0  0
  -26.0214  -29.4353   20.7121 C   0  0  0  0  0  0
  -27.2056  -28.6495   20.7007 C   0  0  0  0  0  0
  -26.0261  -26.8996   19.5049 C   0  0  0  0  0  0
  -24.8564  -27.6813   19.5064 C   0  0  0  0  0  0
  -23.6224  -29.8231   20.1623 C   0  0  0  0  0  0
  -25.4111  -36.3091   24.0332 C   0  0  1  0  0  0
  -20.5875  -28.3671   23.1301 C   0  0  2  0  0  0
  -20.6770  -26.9401   22.5412 C   0  0  0  0  0  0
  -19.5746  -26.6382   21.5210 C   0  0  0  0  0  0
  -18.1925  -26.7921   22.1625 C   0  0  0  0  0  0
  -19.1530  -28.8841   23.2892 C   0  0  0  0  0  0
  -18.9456  -30.1446   23.8904 C   0  0  0  0  0  0
  -17.6456  -30.6583   24.0563 C   0  0  0  0  0  0
  -25.9043  -34.9459   23.5112 C   0  0  0  0  0  0
  -16.5348  -29.9082   23.6328 C   0  0  0  0  0  0
  -16.7267  -28.6499   23.0351 C   0  0  0  0  0  0
  -26.4483  -31.6591   25.0721 C   0  0  0  0  0  0
  -25.3734  -31.3719   26.1461 C   0  0  0  0  0  0
  -27.0315  -30.3021   24.6141 C   0  0  0  0  0  0
  -27.6050  -32.4319   25.7486 C   0  0  0  0  0  0
  -27.5581  -37.1803   24.8463 C   0  0  0  0  0  0
  -21.4165  -29.3035   22.3703 N   0  0  0  0  0  0
  -26.4291  -37.3782   23.9410 N   0  0  0  0  0  0
  -24.6797  -31.0676   22.0985 N   0  0  0  0  0  0
  -23.4189  -28.8176   23.3023 O   0  0  0  0  0  0
  -28.3859  -26.5825   20.1454 O   0  0  0  0  0  0
  -26.5610  -34.8921   22.4678 O   0  0  0  0  0  0
  -23.5393  -32.1410   23.7410 O   0  0  0  0  0  0
  -30.0782  -22.5118   21.4817 C   0  0  0  0  0  0
  -28.2535  -22.8203   19.4886 C   0  0  0  0  0  0
  -29.7664  -23.8298   21.0555 C   0  0  0  0  0  0
  -28.8244  -24.0111   20.0143 C   0  0  0  0  0  0
  -29.4796  -21.3872   20.8739 C   0  0  0  0  0  0
  -29.4364  -17.7332   22.0146 C   0  0  0  0  0  0
  -30.3292  -18.1522   19.7557 C   0  0  0  0  0  0
  -29.1069  -16.2544   21.6309 C   0  0  0  0  0  0
  -29.9426  -16.6932   19.3658 C   0  0  0  0  0  0
  -29.4171  -18.7578   20.8457 C   0  0  0  0  0  0
  -30.4777  -25.0109   21.6910 C   0  0  0  0  0  0
  -28.5526  -25.3851   19.3240 C   0  0  0  0  0  0
  -28.5627  -21.5516   19.8964 N   0  0  0  0  0  0
  -29.8905  -15.7295   20.4934 N   0  0  0  0  0  0
  -29.8737  -20.0931   21.3056 N   0  0  0  0  0  0
  -31.4688  -12.4685   19.1470 H   0  0  0  0  0  0
  -30.3402  -11.3709   19.8874 H   0  0  0  0  0  0
  -29.7590  -11.7514   17.4685 H   0  0  0  0  0  0
  -29.6565  -13.4720   17.7455 H   0  0  0  0  0  0
  -27.8484  -11.2980   18.8496 H   0  0  0  0  0  0
  -27.3712  -12.5964   17.7879 H   0  0  0  0  0  0
  -27.6724  -14.2547   19.5311 H   0  0  0  0  0  0
  -28.7013  -12.0346   21.3638 H   0  0  0  0  0  0
  -28.4443  -13.6808   21.8454 H   0  0  0  0  0  0
  -25.2756   -9.5689   22.4751 H   0  0  0  0  0  0
  -23.9997   -7.4637   22.7472 H   0  0  0  0  0  0
  -21.0830   -8.8768   19.8955 H   0  0  0  0  0  0
  -22.3681  -10.9669   19.6159 H   0  0  0  0  0  0
  -21.2013   -7.6143   23.9708 H   0  0  0  0  0  0
  -21.1480   -6.0519   25.9072 H   0  0  0  0  0  0
  -22.0600   -2.7604   23.2845 H   0  0  0  0  0  0
  -22.4088  -11.9897   22.4809 H   0  0  0  0  0  0
  -21.1096  -13.1263   22.2614 H   0  0  0  0  0  0
  -24.6599  -15.8450   20.5211 H   0  0  0  0  0  0
  -26.2792  -15.6268   20.0888 H   0  0  0  0  0  0
  -26.7148  -32.5471   23.1113 H   0  0  0  0  0  0
  -25.0059  -33.9743   25.0439 H   0  0  0  0  0  0
  -22.7035  -31.3066   21.4082 H   0  0  0  0  0  0
  -23.3748  -35.9639   23.3303 H   0  0  0  0  0  0
  -24.3584  -36.8918   22.2053 H   0  0  0  0  0  0
  -23.7246  -37.6508   23.6656 H   0  0  0  0  0  0
  -26.0748  -31.5702   20.6025 H   0  0  0  0  0  0
  -26.8321  -30.8532   21.9949 H   0  0  0  0  0  0
  -28.1035  -29.0228   21.1731 H   0  0  0  0  0  0
  -25.9398  -25.9194   19.0645 H   0  0  0  0  0  0
  -23.9546  -27.2928   19.0534 H   0  0  0  0  0  0
  -23.7380  -30.5995   19.4051 H   0  0  0  0  0  0
  -22.7431  -29.2499   19.8628 H   0  0  0  0  0  0
  -25.1289  -36.1948   25.0824 H   0  0  0  0  0  0
  -20.9965  -28.3239   24.1422 H   0  0  0  0  0  0
  -20.5671  -26.2277   23.3603 H   0  0  0  0  0  0
  -21.6641  -26.7439   22.1205 H   0  0  0  0  0  0
  -19.6908  -25.6294   21.1235 H   0  0  0  0  0  0
  -19.6684  -27.3198   20.6743 H   0  0  0  0  0  0
  -17.4193  -26.6668   21.4028 H   0  0  0  0  0  0
  -18.0330  -26.0061   22.9021 H   0  0  0  0  0  0
  -19.7932  -30.7260   24.2277 H   0  0  0  0  0  0
  -17.5012  -31.6265   24.5159 H   0  0  0  0  0  0
  -15.5348  -30.2986   23.7647 H   0  0  0  0  0  0
  -15.8668  -28.0818   22.7065 H   0  0  0  0  0  0
  -24.5900  -30.7072   25.7801 H   0  0  0  0  0  0
  -24.8934  -32.2883   26.4905 H   0  0  0  0  0  0
  -25.8075  -30.8888   27.0225 H   0  0  0  0  0  0
  -26.2873  -29.6780   24.1179 H   0  0  0  0  0  0
  -27.4045  -29.7262   25.4621 H   0  0  0  0  0  0
  -27.8729  -30.4318   23.9331 H   0  0  0  0  0  0
  -27.2662  -33.3613   26.2076 H   0  0  0  0  0  0
  -28.3851  -32.6888   25.0308 H   0  0  0  0  0  0
  -28.0728  -31.8436   26.5392 H   0  0  0  0  0  0
  -28.2596  -38.0103   24.7514 H   0  0  0  0  0  0
  -28.1078  -36.2635   24.6280 H   0  0  0  0  0  0
  -27.2303  -37.1446   25.8867 H   0  0  0  0  0  0
  -20.9329  -29.8760   21.6927 H   0  0  0  0  0  0
  -26.0175  -38.2858   24.1411 H   0  0  0  0  0  0
  -30.8094  -22.3720   22.2670 H   0  0  0  0  0  0
  -27.5478  -22.8797   18.6730 H   0  0  0  0  0  0
  -30.4234  -17.7431   22.4800 H   0  0  0  0  0  0
  -28.7419  -18.0576   22.7910 H   0  0  0  0  0  0
  -30.2991  -18.7827   18.8659 H   0  0  0  0  0  0
  -31.3660  -18.1609   20.0954 H   0  0  0  0  0  0
  -28.0490  -16.1715   21.3804 H   0  0  0  0  0  0
  -29.2647  -15.6326   22.5132 H   0  0  0  0  0  0
  -30.6238  -16.3422   18.5880 H   0  0  0  0  0  0
  -28.9566  -16.7001   18.8992 H   0  0  0  0  0  0
  -28.3997  -18.8459   20.4603 H   0  0  0  0  0  0
  -31.2521  -24.6855   22.3858 H   0  0  0  0  0  0
  -29.7704  -25.6288   22.2443 H   0  0  0  0  0  0
  -30.9545  -25.6300   20.9310 H   0  0  0  0  0  0
  -27.7961  -25.2622   18.5537 H   0  0  0  0  0  0
  -29.4525  -25.5828   18.7410 H   0  0  0  0  0  0
  -30.5650  -20.0765   22.0473 H   0  0  0  0  0  0
  1 25  1  0  0  0
  1 30  2  0  0  0
  1 84  1  0  0  0
  2  3  1  0  0  0
  2 25  1  0  0  0
  2 86  1  0  0  0
  2 87  1  0  0  0
  3  4  1  0  0  0
  3 88  1  0  0  0
  3 89  1  0  0  0
  4  5  1  0  0  0
  4 90  1  0  0  0
  4 91  1  0  0  0
  5  6  1  0  0  0
  5 26  1  0  0  0
  5 92  1  0  0  0
  6 25  1  0  0  0
  6 93  1  0  0  0
  6 94  1  0  0  0
  7  8  2  0  0  0
  7 26  1  0  0  0
  7 29  1  0  0  0
  8  9  1  0  0  0
  8 22  1  0  0  0
  9 10  1  0  0  0
  9 27  2  0  0  0
 10 11  2  0  0  0
 10 15  1  0  0  0
 11 12  1  0  0  0
 11 95  1  0  0  0
 12 13  2  0  0  0
 12 96  1  0  0  0
 13 14  1  0  0  0
 13 31  1  0  0  0
 14 15  2  0  0  0
 14 97  1  0  0  0
 15 98  1  0  0  0
 16 17  2  0  0  0
 16 21  1  0  0  0
 16 31  1  0  0  0
 17 18  1  0  0  0
 17 99  1  0  0  0
 18 19  2  0  0  0
 18100  1  0  0  0
 19 20  1  0  0  0
 19 24  1  0  0  0
 20 21  2  0  0  0
 20101  1  0  0  0
 21 23  1  0  0  0
 22 28  1  0  0  0
 22 32  2  0  0  0
 26 27  1  0  0  0
 28102  1  0  0  0
 28103  1  0  0  0
 29104  1  0  0  0
 29105  1  0  0  0
 33 34  1  0  0  0
 33 66  1  0  0  0
 33 70  2  0  0  0
 34 36  1  0  0  0
 34 59  1  0  0  0
 34106  1  0  0  0
 35 44  2  0  0  0
 35 45  1  0  0  0
 35 68  1  0  0  0
 36 56  1  0  0  0
 36107  1  0  0  0
 37 39  1  0  0  0
 37 47  1  0  0  0
 37 66  1  0  0  0
 37108  1  0  0  0
 38 43  2  0  0  0
 38 46  1  0  0  0
 38 47  1  0  0  0
 39 64  1  0  0  0
 39 67  2  0  0  0
 40 52  1  0  0  0
 40 53  2  0  0  0
 40 58  1  0  0  0
 41109  1  0  0  0
 41110  1  0  0  0
 41111  1  0  0  0
 41 48  1  0  0  0
 42 43  1  0  0  0
 42 66  1  0  0  0
 42112  1  0  0  0
 42113  1  0  0  0
 43 44  1  0  0  0
 44114  1  0  0  0
 45 46  2  0  0  0
 45115  1  0  0  0
 46116  1  0  0  0
 47117  1  0  0  0
 47118  1  0  0  0
 48 56  1  0  0  0
 48 65  1  0  0  0
 48119  1  0  0  0
 49 50  1  0  0  0
 49 53  1  0  0  0
 49 64  1  0  0  0
 49120  1  0  0  0
 50 51  1  0  0  0
 50121  1  0  0  0
 50122  1  0  0  0
 51 52  1  0  0  0
 51123  1  0  0  0
 51124  1  0  0  0
 52125  1  0  0  0
 52126  1  0  0  0
 53 54  1  0  0  0
 54 55  2  0  0  0
 54127  1  0  0  0
 55 57  1  0  0  0
 55128  1  0  0  0
 56 69  2  0  0  0
 57 58  2  0  0  0
 57129  1  0  0  0
 58130  1  0  0  0
 59 60  1  0  0  0
 59 61  1  0  0  0
 59 62  1  0  0  0
 60131  1  0  0  0
 60132  1  0  0  0
 60133  1  0  0  0
 61134  1  0  0  0
 61135  1  0  0  0
 61136  1  0  0  0
 62137  1  0  0  0
 62138  1  0  0  0
 62139  1  0  0  0
 63 65  1  0  0  0
 63140  1  0  0  0
 63141  1  0  0  0
 63142  1  0  0  0
 64143  1  0  0  0
 65144  1  0  0  0
 68 82  1  0  0  0
 71 73  2  0  0  0
 71 75  1  0  0  0
 71145  1  0  0  0
 72 74  2  0  0  0
 72 83  1  0  0  0
 72146  1  0  0  0
 73 74  1  0  0  0
 73 81  1  0  0  0
 74 82  1  0  0  0
 75 83  2  0  0  0
 75 85  1  0  0  0
 76 78  1  0  0  0
 76 80  1  0  0  0
 76147  1  0  0  0
 76148  1  0  0  0
 77 79  1  0  0  0
 77 80  1  0  0  0
 77149  1  0  0  0
 77150  1  0  0  0
 78 84  1  0  0  0
 78151  1  0  0  0
 78152  1  0  0  0
 79 84  1  0  0  0
 79153  1  0  0  0
 79154  1  0  0  0
 80 85  1  0  0  0
 80155  1  0  0  0
 81156  1  0  0  0
 81157  1  0  0  0
 81158  1  0  0  0
 82159  1  0  0  0
 82160  1  0  0  0
 85161  1  0  0  0
M  ISO  4   1 100  68 101  82 101  84 100
M  END
> <chiral flag>
0

> <version>
0

> <s_m_source_file>
/data/baiqing/PycharmProjects/Reinvent-master-3.2/result/LINK_invent/BTK/process_docking_weight1_custom_sum_contain_oxygen_bond_distance_aromatic_linkinvent_7_9_3/rearranged_h_0193.sdf

> <i_m_source_file_index>
90

> <r_mmod_Potential_Energy-OPLS-2005>
53.443733215332

> <r_mmod_Stretch_Energy-OPLS-2005>
59.4573440551758

> <r_mmod_Bend_Energy-OPLS-2005>
153.773986816406

> <r_mmod_Torsional_Energy-OPLS-2005>
318.896728515625

> <r_mmod_Improper_Torsional_Energy-OPLS-2005>
17.1066265106201

> <r_mmod_Van_der_Waal_Energy-OPLS-2005>
148.369644165039

> <r_mmod_Electrostatic_Energy-OPLS-2005>
-456.13623046875

> <r_mmod_Solvation_Energy-OPLS-2005>
-221.412384033203

> <b_mmod_Minimization_Converged-OPLS-2005>
0

> <r_mmod_RMS_Derivative-OPLS-2005>
0.539035975933075

$$$$
90
                    3D
 Structure written by MMmdl.
158166  0  0  1  0            999 V2000
  -30.6941  -14.5210   20.5159 C   0  0  0  0  0  0
  -30.4180  -12.3165   19.4468 C   0  0  0  0  0  0
  -29.4990  -12.4921   18.2200 C   0  0  0  0  0  0
  -28.0171  -12.3651   18.6266 C   0  0  0  0  0  0
  -27.6572  -13.2158   19.8744 C   0  0  2  0  0  0
  -28.7010  -13.0386   21.0033 C   0  0  0  0  0  0
  -25.2551  -13.8174   20.5702 C   0  0  0  0  0  0
  -24.1825  -13.0441   20.9173 C   0  0  0  0  0  0
  -24.6393  -11.6910   20.8734 C   0  0  0  0  0  0
  -23.9061  -10.4302   21.0390 C   0  0  0  0  0  0
  -24.3619   -9.4214   21.9166 C   0  0  0  0  0  0
  -23.6297   -8.2248   22.0740 C   0  0  0  0  0  0
  -22.4270   -8.0294   21.3535 C   0  0  0  0  0  0
  -21.9900   -9.0255   20.4629 C   0  0  0  0  0  0
  -22.7226  -10.2137   20.3037 C   0  0  0  0  0  0
  -21.6868   -6.0737   22.5267 C   0  0  0  0  0  0
  -21.4026   -6.5633   23.8201 C   0  0  0  0  0  0
  -21.3663   -5.6785   24.9159 C   0  0  0  0  0  0
  -21.6041   -4.3049   24.7207 C   0  0  0  0  0  0
  -21.8822   -3.8145   23.4333 C   0  0  0  0  0  0
  -21.9190   -4.6962   22.3397 C   0  0  0  0  0  0
  -22.7850  -13.5221   21.1847 C   0  0  0  0  0  0
  -22.1660   -4.2153   21.0980 F   0  0  0  0  0  0
  -21.5624   -3.4536   25.7719 F   0  0  0  0  0  0
  -30.0305  -13.3310   20.4429 N   0  0  0  0  0  0
  -26.3003  -12.9374   20.3376 N   0  0  0  0  0  0
  -25.9316  -11.6520   20.5764 N   0  0  0  0  0  0
  -22.0497  -12.8218   22.0421 N   0  0  0  0  0  0
  -25.4258  -15.1907   20.4161 N   0  0  0  0  0  0
  -31.8510  -14.6548   20.1109 O   0  0  0  0  0  0
  -21.6644   -6.8882   21.4236 O   0  0  0  0  0  0
  -22.3540  -14.5530   20.6694 O   0  0  0  0  0  0
  -24.6200  -31.8650   23.2104 C   0  0  0  0  0  0
  -25.9082  -32.4802   23.8399 C   0  0  1  0  0  0
  -27.2185  -27.3736   20.0898 C   0  0  0  0  0  0
  -25.5919  -33.8594   24.2314 N   0  0  0  0  0  0
  -23.4095  -30.4943   21.5540 C   0  0  2  0  0  0
  -24.8486  -28.9641   20.1097 C   0  0  0  0  0  0
  -22.7455  -29.4658   22.4980 C   0  0  0  0  0  0
  -18.0288  -28.1383   22.8513 C   0  0  0  0  0  0
  -24.1479  -36.7292   23.2640 C   0  0  0  0  0  0
  -25.9467  -30.8101   21.3762 C   0  0  0  0  0  0
  -26.0136  -29.4449   20.7144 C   0  0  0  0  0  0
  -27.1971  -28.6594   20.7005 C   0  0  0  0  0  0
  -26.0212  -26.9322   19.4709 C   0  0  0  0  0  0
  -24.8520  -27.7109   19.4835 C   0  0  0  0  0  0
  -23.6162  -29.8384   20.1637 C   0  0  0  0  0  0
  -25.4101  -36.3088   24.0340 C   0  0  1  0  0  0
  -20.5882  -28.3662   23.1318 C   0  0  2  0  0  0
  -20.6777  -26.9386   22.5433 C   0  0  0  0  0  0
  -19.5741  -26.6379   21.5240 C   0  0  0  0  0  0
  -18.1922  -26.7937   22.1645 C   0  0  0  0  0  0
  -19.1539  -28.8846   23.2911 C   0  0  0  0  0  0
  -18.9461  -30.1462   23.8896 C   0  0  0  0  0  0
  -17.6454  -30.6581   24.0573 C   0  0  0  0  0  0
  -25.9034  -34.9459   23.5116 C   0  0  0  0  0  0
  -16.5350  -29.9073   23.6334 C   0  0  0  0  0  0
  -16.7278  -28.6500   23.0347 C   0  0  0  0  0  0
  -26.4492  -31.6591   25.0749 C   0  0  0  0  0  0
  -25.3755  -31.3734   26.1503 C   0  0  0  0  0  0
  -27.0323  -30.3014   24.6176 C   0  0  0  0  0  0
  -27.6049  -32.4325   25.7526 C   0  0  0  0  0  0
  -27.5568  -37.1805   24.8469 C   0  0  0  0  0  0
  -21.4179  -29.3024   22.3731 N   0  0  0  0  0  0
  -26.4277  -37.3784   23.9417 N   0  0  0  0  0  0
  -24.6782  -31.0725   22.1032 N   0  0  0  0  0  0
  -23.4226  -28.8172   23.3002 O   0  0  0  0  0  0
  -28.3894  -26.6135   20.1378 O   0  0  0  0  0  0
  -26.5593  -34.8919   22.4678 O   0  0  0  0  0  0
  -23.5382  -32.1425   23.7464 O   0  0  0  0  0  0
  -31.2408  -21.1463   19.8847 C   0  0  0  0  0  0
  -31.5340  -19.6511   19.8090 C   0  0  0  0  0  0
  -30.2216  -20.7823   20.9775 C   0  0  1  0  0  0
  -28.8948  -21.5939   21.1067 C   0  0  0  0  0  0
  -30.0749  -18.2110   21.0910 C   0  0  0  0  0  0
  -30.1360  -16.9465   20.1635 C   0  0  0  0  0  0
  -28.9186  -24.1496   20.6650 C   0  0  0  0  0  0
  -28.4498  -25.2397   19.6401 C   0  0  0  0  0  0
  -30.1643  -19.4599   20.2902 N   0  0  0  0  0  0
  -29.9383  -15.6091   20.7892 N   0  0  0  0  0  0
  -28.7338  -22.7427   20.1573 N   0  3  0  0  0  0
  -31.4641  -12.3998   19.1470 H   0  0  0  0  0  0
  -30.3130  -11.3144   19.8653 H   0  0  0  0  0  0
  -29.7419  -11.7472   17.4600 H   0  0  0  0  0  0
  -29.6744  -13.4687   17.7648 H   0  0  0  0  0  0
  -27.8160  -11.3102   18.8236 H   0  0  0  0  0  0
  -27.3751  -12.6415   17.7903 H   0  0  0  0  0  0
  -27.6894  -14.2587   19.5596 H   0  0  0  0  0  0
  -28.6762  -12.0159   21.3841 H   0  0  0  0  0  0
  -28.4694  -13.6797   21.8553 H   0  0  0  0  0  0
  -25.2758   -9.5705   22.4734 H   0  0  0  0  0  0
  -24.0003   -7.4645   22.7463 H   0  0  0  0  0  0
  -21.0822   -8.8764   19.8948 H   0  0  0  0  0  0
  -22.3660  -10.9674   19.6154 H   0  0  0  0  0  0
  -21.2043   -7.6133   23.9710 H   0  0  0  0  0  0
  -21.1477   -6.0510   25.9064 H   0  0  0  0  0  0
  -22.0603   -2.7606   23.2822 H   0  0  0  0  0  0
  -22.4126  -11.9880   22.4801 H   0  0  0  0  0  0
  -21.1110  -13.1236   22.2621 H   0  0  0  0  0  0
  -24.6611  -15.8440   20.5460 H   0  0  0  0  0  0
  -26.2716  -15.6348   20.0826 H   0  0  0  0  0  0
  -26.7153  -32.5492   23.1159 H   0  0  0  0  0  0
  -25.0128  -33.9737   25.0500 H   0  0  0  0  0  0
  -22.7016  -31.3155   21.4225 H   0  0  0  0  0  0
  -23.3738  -35.9631   23.3322 H   0  0  0  0  0  0
  -24.3574  -36.8880   22.2050 H   0  0  0  0  0  0
  -23.7223  -37.6501   23.6638 H   0  0  0  0  0  0
  -26.0760  -31.5786   20.6139 H   0  0  0  0  0  0
  -26.8300  -30.8482   22.0017 H   0  0  0  0  0  0
  -28.0936  -29.0296   21.1782 H   0  0  0  0  0  0
  -25.9199  -25.9930   18.9546 H   0  0  0  0  0  0
  -23.9574  -27.3426   19.0006 H   0  0  0  0  0  0
  -23.7300  -30.6212   19.4130 H   0  0  0  0  0  0
  -22.7367  -29.2676   19.8597 H   0  0  0  0  0  0
  -25.1274  -36.1963   25.0833 H   0  0  0  0  0  0
  -20.9981  -28.3224   24.1434 H   0  0  0  0  0  0
  -20.5703  -26.2256   23.3625 H   0  0  0  0  0  0
  -21.6638  -26.7440   22.1195 H   0  0  0  0  0  0
  -19.6877  -25.6294   21.1234 H   0  0  0  0  0  0
  -19.6654  -27.3241   20.6807 H   0  0  0  0  0  0
  -17.4197  -26.6720   21.4039 H   0  0  0  0  0  0
  -18.0280  -26.0079   22.9025 H   0  0  0  0  0  0
  -19.7933  -30.7305   24.2229 H   0  0  0  0  0  0
  -17.4999  -31.6257   24.5184 H   0  0  0  0  0  0
  -15.5345  -30.2959   23.7663 H   0  0  0  0  0  0
  -15.8693  -28.0825   22.7017 H   0  0  0  0  0  0
  -24.5955  -30.7027   25.7898 H   0  0  0  0  0  0
  -24.8922  -32.2893   26.4900 H   0  0  0  0  0  0
  -25.8125  -30.8987   27.0290 H   0  0  0  0  0  0
  -26.2885  -29.6797   24.1183 H   0  0  0  0  0  0
  -27.4008  -29.7239   25.4660 H   0  0  0  0  0  0
  -27.8764  -30.4312   23.9404 H   0  0  0  0  0  0
  -27.2650  -33.3633   26.2080 H   0  0  0  0  0  0
  -28.3888  -32.6860   25.0380 H   0  0  0  0  0  0
  -28.0683  -31.8462   26.5470 H   0  0  0  0  0  0
  -28.2601  -38.0090   24.7513 H   0  0  0  0  0  0
  -28.1041  -36.2619   24.6300 H   0  0  0  0  0  0
  -27.2290  -37.1478   25.8873 H   0  0  0  0  0  0
  -20.9345  -29.8750   21.6953 H   0  0  0  0  0  0
  -26.0161  -38.2856   24.1435 H   0  0  0  0  0  0
  -30.8006  -21.5237   18.9604 H   0  0  0  0  0  0
  -32.0756  -21.7663   20.2179 H   0  0  0  0  0  0
  -32.2803  -19.3223   20.5365 H   0  0  0  0  0  0
  -31.6714  -19.2274   18.8144 H   0  0  0  0  0  0
  -30.7250  -20.6473   21.9383 H   0  0  0  0  0  0
  -28.7563  -21.9483   22.1272 H   0  0  0  0  0  0
  -28.0525  -20.9246   20.9272 H   0  0  0  0  0  0
  -30.8778  -18.1739   21.8294 H   0  0  0  0  0  0
  -29.1373  -18.2178   21.6470 H   0  0  0  0  0  0
  -31.0693  -16.9624   19.5965 H   0  0  0  0  0  0
  -29.3507  -17.0466   19.4125 H   0  0  0  0  0  0
  -28.3523  -24.2731   21.5882 H   0  0  0  0  0  0
  -29.9693  -24.3125   20.9101 H   0  0  0  0  0  0
  -27.5210  -24.8810   19.2164 H   0  0  0  0  0  0
  -29.1406  -25.2385   18.7976 H   0  0  0  0  0  0
  -29.0117  -15.4122   21.1383 H   0  0  0  0  0  0
  -27.7771  -22.6704   19.8458 H   0  0  0  0  0  0
  -29.3129  -22.5706   19.3497 H   0  0  0  0  0  0
  1 25  1  0  0  0
  1 30  2  0  0  0
  1 80  1  0  0  0
  2  3  1  0  0  0
  2 25  1  0  0  0
  2 82  1  0  0  0
  2 83  1  0  0  0
  3  4  1  0  0  0
  3 84  1  0  0  0
  3 85  1  0  0  0
  4  5  1  0  0  0
  4 86  1  0  0  0
  4 87  1  0  0  0
  5  6  1  0  0  0
  5 26  1  0  0  0
  5 88  1  0  0  0
  6 25  1  0  0  0
  6 89  1  0  0  0
  6 90  1  0  0  0
  7  8  2  0  0  0
  7 26  1  0  0  0
  7 29  1  0  0  0
  8  9  1  0  0  0
  8 22  1  0  0  0
  9 10  1  0  0  0
  9 27  2  0  0  0
 10 11  2  0  0  0
 10 15  1  0  0  0
 11 12  1  0  0  0
 11 91  1  0  0  0
 12 13  2  0  0  0
 12 92  1  0  0  0
 13 14  1  0  0  0
 13 31  1  0  0  0
 14 15  2  0  0  0
 14 93  1  0  0  0
 15 94  1  0  0  0
 16 17  2  0  0  0
 16 21  1  0  0  0
 16 31  1  0  0  0
 17 18  1  0  0  0
 17 95  1  0  0  0
 18 19  2  0  0  0
 18 96  1  0  0  0
 19 20  1  0  0  0
 19 24  1  0  0  0
 20 21  2  0  0  0
 20 97  1  0  0  0
 21 23  1  0  0  0
 22 28  1  0  0  0
 22 32  2  0  0  0
 26 27  1  0  0  0
 28 98  1  0  0  0
 28 99  1  0  0  0
 29100  1  0  0  0
 29101  1  0  0  0
 33 34  1  0  0  0
 33 66  1  0  0  0
 33 70  2  0  0  0
 34 36  1  0  0  0
 34 59  1  0  0  0
 34102  1  0  0  0
 35 44  2  0  0  0
 35 45  1  0  0  0
 35 68  1  0  0  0
 36 56  1  0  0  0
 36103  1  0  0  0
 37 39  1  0  0  0
 37 47  1  0  0  0
 37 66  1  0  0  0
 37104  1  0  0  0
 38 43  2  0  0  0
 38 46  1  0  0  0
 38 47  1  0  0  0
 39 64  1  0  0  0
 39 67  2  0  0  0
 40 52  1  0  0  0
 40 53  2  0  0  0
 40 58  1  0  0  0
 41105  1  0  0  0
 41106  1  0  0  0
 41107  1  0  0  0
 41 48  1  0  0  0
 42 43  1  0  0  0
 42 66  1  0  0  0
 42108  1  0  0  0
 42109  1  0  0  0
 43 44  1  0  0  0
 44110  1  0  0  0
 45 46  2  0  0  0
 45111  1  0  0  0
 46112  1  0  0  0
 47113  1  0  0  0
 47114  1  0  0  0
 48 56  1  0  0  0
 48 65  1  0  0  0
 48115  1  0  0  0
 49 50  1  0  0  0
 49 53  1  0  0  0
 49 64  1  0  0  0
 49116  1  0  0  0
 50 51  1  0  0  0
 50117  1  0  0  0
 50118  1  0  0  0
 51 52  1  0  0  0
 51119  1  0  0  0
 51120  1  0  0  0
 52121  1  0  0  0
 52122  1  0  0  0
 53 54  1  0  0  0
 54 55  2  0  0  0
 54123  1  0  0  0
 55 57  1  0  0  0
 55124  1  0  0  0
 56 69  2  0  0  0
 57 58  2  0  0  0
 57125  1  0  0  0
 58126  1  0  0  0
 59 60  1  0  0  0
 59 61  1  0  0  0
 59 62  1  0  0  0
 60127  1  0  0  0
 60128  1  0  0  0
 60129  1  0  0  0
 61130  1  0  0  0
 61131  1  0  0  0
 61132  1  0  0  0
 62133  1  0  0  0
 62134  1  0  0  0
 62135  1  0  0  0
 63 65  1  0  0  0
 63136  1  0  0  0
 63137  1  0  0  0
 63138  1  0  0  0
 64139  1  0  0  0
 65140  1  0  0  0
 68 78  1  0  0  0
 71 72  1  0  0  0
 71 73  1  0  0  0
 71141  1  0  0  0
 71142  1  0  0  0
 72 79  1  0  0  0
 72143  1  0  0  0
 72144  1  0  0  0
 73 74  1  0  0  0
 73 79  1  0  0  0
 73145  1  0  0  0
 74 81  1  0  0  0
 74146  1  0  0  0
 74147  1  0  0  0
 75 76  1  0  0  0
 75 79  1  0  0  0
 75148  1  0  0  0
 75149  1  0  0  0
 76 80  1  0  0  0
 76150  1  0  0  0
 76151  1  0  0  0
 77 78  1  0  0  0
 77 81  1  0  0  0
 77152  1  0  0  0
 77153  1  0  0  0
 78154  1  0  0  0
 78155  1  0  0  0
 80156  1  0  0  0
 81157  1  0  0  0
 81158  1  0  0  0
M  CHG  1  81   1
M  ISO  4   1 100  68 101  78 101  80 100
M  END
> <chiral flag>
0

> <version>
0

> <s_m_source_file>
/data/baiqing/PycharmProjects/Reinvent-master-3.2/result/LINK_invent/BTK/process_docking_weight1_custom_sum_contain_oxygen_bond_distance_aromatic_linkinvent_7_9_3/rearranged_h_0193.sdf

> <i_m_source_file_index>
91

> <r_mmod_Potential_Energy-OPLS-2005>
-122.647346496582

> <r_mmod_Stretch_Energy-OPLS-2005>
53.975528717041

> <r_mmod_Bend_Energy-OPLS-2005>
151.132400512695

> <r_mmod_Torsional_Energy-OPLS-2005>
239.967788696289

> <r_mmod_Improper_Torsional_Energy-OPLS-2005>
7.99478530883789

> <r_mmod_Van_der_Waal_Energy-OPLS-2005>
139.075942993164

> <r_mmod_Electrostatic_Energy-OPLS-2005>
-282.853637695312

> <r_mmod_Solvation_Energy-OPLS-2005>
-455.780242919922

> <b_mmod_Minimization_Converged-OPLS-2005>
0

> <r_mmod_RMS_Derivative-OPLS-2005>
3.36975574493408

$$$$
91
                    3D
 Structure written by MMmdl.
172181  0  0  1  0            999 V2000
  -30.7410  -14.4093   20.5767 C   0  0  0  0  0  0
  -30.4052  -12.2704   19.4153 C   0  0  0  0  0  0
  -29.4836  -12.4949   18.2006 C   0  0  0  0  0  0
  -28.0045  -12.3646   18.6137 C   0  0  0  0  0  0
  -27.6576  -13.1996   19.8757 C   0  0  2  0  0  0
  -28.7017  -12.9861   20.9963 C   0  0  0  0  0  0
  -25.2576  -13.8147   20.5690 C   0  0  0  0  0  0
  -24.1828  -13.0428   20.9179 C   0  0  0  0  0  0
  -24.6371  -11.6892   20.8738 C   0  0  0  0  0  0
  -23.9040  -10.4280   21.0403 C   0  0  0  0  0  0
  -24.3601   -9.4205   21.9182 C   0  0  0  0  0  0
  -23.6286   -8.2237   22.0755 C   0  0  0  0  0  0
  -22.4268   -8.0272   21.3544 C   0  0  0  0  0  0
  -21.9888   -9.0241   20.4643 C   0  0  0  0  0  0
  -22.7210  -10.2128   20.3053 C   0  0  0  0  0  0
  -21.6850   -6.0728   22.5280 C   0  0  0  0  0  0
  -21.4010   -6.5631   23.8210 C   0  0  0  0  0  0
  -21.3661   -5.6790   24.9178 C   0  0  0  0  0  0
  -21.6052   -4.3053   24.7229 C   0  0  0  0  0  0
  -21.8823   -3.8143   23.4350 C   0  0  0  0  0  0
  -21.9192   -4.6958   22.3405 C   0  0  0  0  0  0
  -22.7852  -13.5234   21.1846 C   0  0  0  0  0  0
  -22.1660   -4.2144   21.0981 F   0  0  0  0  0  0
  -21.5631   -3.4537   25.7742 F   0  0  0  0  0  0
  -30.0358  -13.2581   20.4387 N   0  0  0  0  0  0
  -26.3003  -12.9294   20.3391 N   0  0  0  0  0  0
  -25.9302  -11.6466   20.5807 N   0  0  0  0  0  0
  -22.0503  -12.8215   22.0405 N   0  0  0  0  0  0
  -25.4292  -15.1866   20.4066 N   0  0  0  0  0  0
  -31.8699  -14.5659   20.1057 O   0  0  0  0  0  0
  -21.6644   -6.8865   21.4236 O   0  0  0  0  0  0
  -22.3546  -14.5545   20.6702 O   0  0  0  0  0  0
  -24.6125  -31.8696   23.2130 C   0  0  0  0  0  0
  -25.9028  -32.4828   23.8411 C   0  0  1  0  0  0
  -27.2359  -27.4750   20.0729 C   0  0  0  0  0  0
  -25.5909  -33.8631   24.2342 N   0  0  0  0  0  0
  -23.3988  -30.4932   21.5528 C   0  0  2  0  0  0
  -24.8449  -28.9651   20.1131 C   0  0  0  0  0  0
  -22.7394  -29.4661   22.5002 C   0  0  0  0  0  0
  -18.0270  -28.1366   22.8496 C   0  0  0  0  0  0
  -24.1491  -36.7313   23.2640 C   0  0  0  0  0  0
  -25.9247  -30.8452   21.3627 C   0  0  0  0  0  0
  -26.0038  -29.4852   20.7046 C   0  0  0  0  0  0
  -27.2047  -28.7445   20.6860 C   0  0  0  0  0  0
  -26.0589  -26.9467   19.5099 C   0  0  0  0  0  0
  -24.8650  -27.6920   19.5161 C   0  0  0  0  0  0
  -23.6048  -29.8266   20.1664 C   0  0  0  0  0  0
  -25.4111  -36.3113   24.0340 C   0  0  1  0  0  0
  -20.5858  -28.3648   23.1325 C   0  0  2  0  0  0
  -20.6760  -26.9388   22.5417 C   0  0  0  0  0  0
  -19.5741  -26.6376   21.5213 C   0  0  0  0  0  0
  -18.1917  -26.7918   22.1616 C   0  0  0  0  0  0
  -19.1518  -28.8827   23.2904 C   0  0  0  0  0  0
  -18.9450  -30.1441   23.8904 C   0  0  0  0  0  0
  -17.6449  -30.6576   24.0569 C   0  0  0  0  0  0
  -25.9037  -34.9476   23.5130 C   0  0  0  0  0  0
  -16.5341  -29.9077   23.6330 C   0  0  0  0  0  0
  -16.7261  -28.6492   23.0354 C   0  0  0  0  0  0
  -26.4484  -31.6606   25.0724 C   0  0  0  0  0  0
  -25.3776  -31.3683   26.1488 C   0  0  0  0  0  0
  -27.0325  -30.3058   24.6084 C   0  0  0  0  0  0
  -27.6058  -32.4337   25.7483 C   0  0  0  0  0  0
  -27.5586  -37.1811   24.8464 C   0  0  0  0  0  0
  -21.4127  -29.3020   22.3735 N   0  0  0  0  0  0
  -26.4303  -37.3795   23.9406 N   0  0  0  0  0  0
  -24.6628  -31.0823   22.1012 N   0  0  0  0  0  0
  -23.4176  -28.8205   23.3035 O   0  0  0  0  0  0
  -28.3823  -26.7265   20.0926 O   0  0  0  0  0  0
  -26.5583  -34.8922   22.4685 O   0  0  0  0  0  0
  -23.5323  -32.1431   23.7547 O   0  0  0  0  0  0
  -29.2278  -20.8896   17.2374 C   0  0  0  0  0  0
  -30.8009  -16.6107   21.7513 C   0  0  0  0  0  0
  -29.2958  -16.4173   20.3852 C   0  0  0  0  0  0
  -28.9945  -22.4093   17.1578 C   0  0  0  0  0  0
  -29.4345  -21.8503   19.4093 C   0  0  0  0  0  0
  -29.9154  -20.6414   18.5922 C   0  0  1  0  0  0
  -30.5350  -17.3065   20.4164 C   0  0  0  0  0  0
  -28.0795  -25.6420   16.8820 C   0  0  0  0  0  0
  -31.6926  -19.4340   20.5974 C   0  0  0  0  0  0
  -29.6270  -19.2232   19.1640 C   0  0  0  0  0  0
  -28.7762  -24.2023   18.9198 C   0  0  0  0  0  0
  -29.1814  -26.7513   18.9137 C   0  0  0  0  0  0
  -29.0636  -25.4641   18.0569 C   0  0  2  0  0  0
  -30.0966  -15.4438   21.1666 N   0  0  0  0  0  0
  -29.4568  -22.9705   18.4459 N   0  3  2  0  0  0
  -30.3738  -18.7859   20.3893 N   0  3  1  0  0  0
  -31.4523  -12.3412   19.1160 H   0  0  0  0  0  0
  -30.2789  -11.2609   19.8119 H   0  0  0  0  0  0
  -29.7145  -11.7742   17.4155 H   0  0  0  0  0  0
  -29.6644  -13.4833   17.7740 H   0  0  0  0  0  0
  -27.8040  -11.3082   18.8016 H   0  0  0  0  0  0
  -27.3561  -12.6515   17.7842 H   0  0  0  0  0  0
  -27.6924  -14.2440   19.5757 H   0  0  0  0  0  0
  -28.6656  -11.9601   21.3637 H   0  0  0  0  0  0
  -28.4772  -13.6139   21.8594 H   0  0  0  0  0  0
  -25.2752   -9.5684   22.4750 H   0  0  0  0  0  0
  -24.0002   -7.4631   22.7470 H   0  0  0  0  0  0
  -21.0826   -8.8748   19.8940 H   0  0  0  0  0  0
  -22.3667  -10.9666   19.6156 H   0  0  0  0  0  0
  -21.1994   -7.6140   23.9711 H   0  0  0  0  0  0
  -21.1479   -6.0522   25.9079 H   0  0  0  0  0  0
  -22.0600   -2.7606   23.2858 H   0  0  0  0  0  0
  -22.4115  -11.9851   22.4750 H   0  0  0  0  0  0
  -21.1128  -13.1240   22.2642 H   0  0  0  0  0  0
  -24.6590  -15.8393   20.5059 H   0  0  0  0  0  0
  -26.2808  -15.6231   20.0798 H   0  0  0  0  0  0
  -26.7095  -32.5548   23.1172 H   0  0  0  0  0  0
  -25.0127  -33.9806   25.0535 H   0  0  0  0  0  0
  -22.6870  -31.3094   21.4157 H   0  0  0  0  0  0
  -23.3753  -35.9643   23.3314 H   0  0  0  0  0  0
  -24.3581  -36.8915   22.2051 H   0  0  0  0  0  0
  -23.7236  -37.6517   23.6648 H   0  0  0  0  0  0
  -26.0397  -31.6173   20.6006 H   0  0  0  0  0  0
  -26.8102  -30.8911   21.9843 H   0  0  0  0  0  0
  -28.1021  -29.1392   21.1416 H   0  0  0  0  0  0
  -26.0543  -25.9530   19.0902 H   0  0  0  0  0  0
  -23.9686  -27.2774   19.0760 H   0  0  0  0  0  0
  -23.7088  -30.6021   19.4070 H   0  0  0  0  0  0
  -22.7303  -29.2443   19.8706 H   0  0  0  0  0  0
  -25.1291  -36.1986   25.0832 H   0  0  0  0  0  0
  -20.9957  -28.3209   24.1443 H   0  0  0  0  0  0
  -20.5674  -26.2255   23.3599 H   0  0  0  0  0  0
  -21.6631  -26.7438   22.1206 H   0  0  0  0  0  0
  -19.6903  -25.6292   21.1233 H   0  0  0  0  0  0
  -19.6689  -27.3195   20.6751 H   0  0  0  0  0  0
  -17.4201  -26.6700   21.4001 H   0  0  0  0  0  0
  -18.0298  -26.0037   22.8986 H   0  0  0  0  0  0
  -19.7923  -30.7264   24.2267 H   0  0  0  0  0  0
  -17.5000  -31.6258   24.5165 H   0  0  0  0  0  0
  -15.5342  -30.2981   23.7645 H   0  0  0  0  0  0
  -15.8664  -28.0815   22.7063 H   0  0  0  0  0  0
  -24.5965  -30.7005   25.7838 H   0  0  0  0  0  0
  -24.8957  -32.2829   26.4957 H   0  0  0  0  0  0
  -25.8165  -30.8856   27.0230 H   0  0  0  0  0  0
  -26.2853  -29.6790   24.1203 H   0  0  0  0  0  0
  -27.4182  -29.7318   25.4520 H   0  0  0  0  0  0
  -27.8651  -30.4388   23.9167 H   0  0  0  0  0  0
  -27.2666  -33.3619   26.2093 H   0  0  0  0  0  0
  -28.3847  -32.6933   25.0301 H   0  0  0  0  0  0
  -28.0757  -31.8455   26.5371 H   0  0  0  0  0  0
  -28.2616  -38.0102   24.7513 H   0  0  0  0  0  0
  -28.1074  -36.2634   24.6296 H   0  0  0  0  0  0
  -27.2305  -37.1467   25.8871 H   0  0  0  0  0  0
  -20.9286  -29.8743   21.6961 H   0  0  0  0  0  0
  -26.0195  -38.2876   24.1399 H   0  0  0  0  0  0
  -29.8315  -20.5278   16.4031 H   0  0  0  0  0  0
  -28.2673  -20.3742   17.1844 H   0  0  0  0  0  0
  -30.2865  -17.0456   22.6111 H   0  0  0  0  0  0
  -31.8616  -16.4638   21.9658 H   0  0  0  0  0  0
  -29.0258  -16.1063   19.3744 H   0  0  0  0  0  0
  -28.4289  -16.8087   20.9222 H   0  0  0  0  0  0
  -27.9315  -22.6077   17.0082 H   0  0  0  0  0  0
  -29.5395  -22.8604   16.3279 H   0  0  0  0  0  0
  -30.0582  -22.0635   20.2767 H   0  0  0  0  0  0
  -28.4145  -21.6897   19.7649 H   0  0  0  0  0  0
  -30.9855  -20.7480   18.4115 H   0  0  0  0  0  0
  -31.2537  -17.0132   19.6467 H   0  0  0  0  0  0
  -28.1937  -24.8596   16.1343 H   0  0  0  0  0  0
  -28.2543  -26.5861   16.3643 H   0  0  0  0  0  0
  -27.0390  -25.6325   17.1982 H   0  0  0  0  0  0
  -32.1826  -19.0383   21.4868 H   0  0  0  0  0  0
  -31.6054  -20.5062   20.7540 H   0  0  0  0  0  0
  -32.3565  -19.2631   19.7492 H   0  0  0  0  0  0
  -29.8584  -18.5182   18.3636 H   0  0  0  0  0  0
  -28.5592  -19.1037   19.3523 H   0  0  0  0  0  0
  -27.7034  -24.0362   19.0264 H   0  0  0  0  0  0
  -29.1487  -24.3753   19.9309 H   0  0  0  0  0  0
  -29.0097  -27.6508   18.3189 H   0  0  0  0  0  0
  -30.2118  -26.8324   19.2615 H   0  0  0  0  0  0
  -30.0477  -25.3470   17.6002 H   0  0  0  0  0  0
  -30.4310  -23.2072   18.3226 H   0  0  0  0  0  0
  -29.8071  -19.0468   21.1837 H   0  0  0  0  0  0
  1 25  1  0  0  0
  1 30  2  0  0  0
  1 84  1  0  0  0
  2  3  1  0  0  0
  2 25  1  0  0  0
  2 87  1  0  0  0
  2 88  1  0  0  0
  3  4  1  0  0  0
  3 89  1  0  0  0
  3 90  1  0  0  0
  4  5  1  0  0  0
  4 91  1  0  0  0
  4 92  1  0  0  0
  5  6  1  0  0  0
  5 26  1  0  0  0
  5 93  1  0  0  0
  6 25  1  0  0  0
  6 94  1  0  0  0
  6 95  1  0  0  0
  7  8  2  0  0  0
  7 26  1  0  0  0
  7 29  1  0  0  0
  8  9  1  0  0  0
  8 22  1  0  0  0
  9 10  1  0  0  0
  9 27  2  0  0  0
 10 11  2  0  0  0
 10 15  1  0  0  0
 11 12  1  0  0  0
 11 96  1  0  0  0
 12 13  2  0  0  0
 12 97  1  0  0  0
 13 14  1  0  0  0
 13 31  1  0  0  0
 14 15  2  0  0  0
 14 98  1  0  0  0
 15 99  1  0  0  0
 16 17  2  0  0  0
 16 21  1  0  0  0
 16 31  1  0  0  0
 17 18  1  0  0  0
 17100  1  0  0  0
 18 19  2  0  0  0
 18101  1  0  0  0
 19 20  1  0  0  0
 19 24  1  0  0  0
 20 21  2  0  0  0
 20102  1  0  0  0
 21 23  1  0  0  0
 22 28  1  0  0  0
 22 32  2  0  0  0
 26 27  1  0  0  0
 28103  1  0  0  0
 28104  1  0  0  0
 29105  1  0  0  0
 29106  1  0  0  0
 33 34  1  0  0  0
 33 66  1  0  0  0
 33 70  2  0  0  0
 34 36  1  0  0  0
 34 59  1  0  0  0
 34107  1  0  0  0
 35 44  2  0  0  0
 35 45  1  0  0  0
 35 68  1  0  0  0
 36 56  1  0  0  0
 36108  1  0  0  0
 37 39  1  0  0  0
 37 47  1  0  0  0
 37 66  1  0  0  0
 37109  1  0  0  0
 38 43  2  0  0  0
 38 46  1  0  0  0
 38 47  1  0  0  0
 39 64  1  0  0  0
 39 67  2  0  0  0
 40 52  1  0  0  0
 40 53  2  0  0  0
 40 58  1  0  0  0
 41110  1  0  0  0
 41111  1  0  0  0
 41112  1  0  0  0
 41 48  1  0  0  0
 42 43  1  0  0  0
 42 66  1  0  0  0
 42113  1  0  0  0
 42114  1  0  0  0
 43 44  1  0  0  0
 44115  1  0  0  0
 45 46  2  0  0  0
 45116  1  0  0  0
 46117  1  0  0  0
 47118  1  0  0  0
 47119  1  0  0  0
 48 56  1  0  0  0
 48 65  1  0  0  0
 48120  1  0  0  0
 49 50  1  0  0  0
 49 53  1  0  0  0
 49 64  1  0  0  0
 49121  1  0  0  0
 50 51  1  0  0  0
 50122  1  0  0  0
 50123  1  0  0  0
 51 52  1  0  0  0
 51124  1  0  0  0
 51125  1  0  0  0
 52126  1  0  0  0
 52127  1  0  0  0
 53 54  1  0  0  0
 54 55  2  0  0  0
 54128  1  0  0  0
 55 57  1  0  0  0
 55129  1  0  0  0
 56 69  2  0  0  0
 57 58  2  0  0  0
 57130  1  0  0  0
 58131  1  0  0  0
 59 60  1  0  0  0
 59 61  1  0  0  0
 59 62  1  0  0  0
 60132  1  0  0  0
 60133  1  0  0  0
 60134  1  0  0  0
 61135  1  0  0  0
 61136  1  0  0  0
 61137  1  0  0  0
 62138  1  0  0  0
 62139  1  0  0  0
 62140  1  0  0  0
 63 65  1  0  0  0
 63141  1  0  0  0
 63142  1  0  0  0
 63143  1  0  0  0
 64144  1  0  0  0
 65145  1  0  0  0
 68 82  1  0  0  0
 71 74  1  0  0  0
 71 76  1  0  0  0
 71146  1  0  0  0
 71147  1  0  0  0
 72 84  1  0  0  0
 72148  1  0  0  0
 72149  1  0  0  0
 72 77  1  0  0  0
 73 77  1  0  0  0
 73 84  1  0  0  0
 73150  1  0  0  0
 73151  1  0  0  0
 74 85  1  0  0  0
 74152  1  0  0  0
 74153  1  0  0  0
 75 76  1  0  0  0
 75 85  1  0  0  0
 75154  1  0  0  0
 75155  1  0  0  0
 76 80  1  0  0  0
 76156  1  0  0  0
 77 86  1  0  0  0
 77157  1  0  0  0
 78158  1  0  0  0
 78159  1  0  0  0
 78160  1  0  0  0
 78 83  1  0  0  0
 79161  1  0  0  0
 79162  1  0  0  0
 79163  1  0  0  0
 79 86  1  0  0  0
 80 86  1  0  0  0
 80164  1  0  0  0
 80165  1  0  0  0
 81 83  1  0  0  0
 81166  1  0  0  0
 81167  1  0  0  0
 81 85  1  0  0  0
 82 83  1  0  0  0
 82168  1  0  0  0
 82169  1  0  0  0
 83170  1  0  0  0
 85171  1  0  0  0
 86172  1  0  0  0
M  CHG  2  85   1  86   1
M  ISO  4   1 100  68 101  82 101  84 100
M  END
> <chiral flag>
0

> <version>
0

> <s_m_source_file>
/data/baiqing/PycharmProjects/Reinvent-master-3.2/result/LINK_invent/BTK/process_docking_weight1_custom_sum_contain_oxygen_bond_distance_aromatic_linkinvent_7_9_3/rearranged_h_0193.sdf

> <i_m_source_file_index>
92

> <r_mmod_Potential_Energy-OPLS-2005>
-57.0056953430176

> <r_mmod_Stretch_Energy-OPLS-2005>
37.160774230957

> <r_mmod_Bend_Energy-OPLS-2005>
156.173645019531

> <r_mmod_Torsional_Energy-OPLS-2005>
399.330017089844

> <r_mmod_Improper_Torsional_Energy-OPLS-2005>
10.2093152999878

> <r_mmod_Van_der_Waal_Energy-OPLS-2005>
141.096466064453

> <r_mmod_Electrostatic_Energy-OPLS-2005>
144.832336425781

> <r_mmod_Solvation_Energy-OPLS-2005>
-956.550048828125

> <b_mmod_Minimization_Converged-OPLS-2005>
0

> <r_mmod_RMS_Derivative-OPLS-2005>
1.50780689716339

$$$$
92
                    3D
 Structure written by MMmdl.
159168  0  0  1  0            999 V2000
  -30.7353  -14.3957   20.6431 C   0  0  0  0  0  0
  -30.4162  -12.2870   19.3972 C   0  0  0  0  0  0
  -29.4846  -12.5105   18.1896 C   0  0  0  0  0  0
  -28.0075  -12.3652   18.6052 C   0  0  0  0  0  0
  -27.6611  -13.1954   19.8706 C   0  0  2  0  0  0
  -28.6987  -12.9421   20.9854 C   0  0  0  0  0  0
  -25.2579  -13.8123   20.5629 C   0  0  0  0  0  0
  -24.1830  -13.0417   20.9158 C   0  0  0  0  0  0
  -24.6351  -11.6879   20.8724 C   0  0  0  0  0  0
  -23.8999  -10.4279   21.0375 C   0  0  0  0  0  0
  -24.3555   -9.4198   21.9154 C   0  0  0  0  0  0
  -23.6274   -8.2210   22.0728 C   0  0  0  0  0  0
  -22.4267   -8.0228   21.3520 C   0  0  0  0  0  0
  -21.9869   -9.0194   20.4627 C   0  0  0  0  0  0
  -22.7162  -10.2104   20.3034 C   0  0  0  0  0  0
  -21.6841   -6.0694   22.5272 C   0  0  0  0  0  0
  -21.4004   -6.5604   23.8203 C   0  0  0  0  0  0
  -21.3679   -5.6758   24.9164 C   0  0  0  0  0  0
  -21.6066   -4.3024   24.7215 C   0  0  0  0  0  0
  -21.8830   -3.8114   23.4338 C   0  0  0  0  0  0
  -21.9186   -4.6923   22.3384 C   0  0  0  0  0  0
  -22.7855  -13.5228   21.1839 C   0  0  0  0  0  0
  -22.1656   -4.2109   21.0965 F   0  0  0  0  0  0
  -21.5644   -3.4510   25.7735 F   0  0  0  0  0  0
  -30.0396  -13.2423   20.4491 N   0  0  0  0  0  0
  -26.3008  -12.9269   20.3333 N   0  0  0  0  0  0
  -25.9279  -11.6431   20.5740 N   0  0  0  0  0  0
  -22.0499  -12.8242   22.0435 N   0  0  0  0  0  0
  -25.4348  -15.1829   20.3998 N   0  0  0  0  0  0
  -31.7749  -14.6698   20.0328 O   0  0  0  0  0  0
  -21.6640   -6.8825   21.4226 O   0  0  0  0  0  0
  -22.3544  -14.5529   20.6691 O   0  0  0  0  0  0
  -24.6115  -31.8700   23.2123 C   0  0  0  0  0  0
  -25.8998  -32.4845   23.8427 C   0  0  1  0  0  0
  -27.2344  -27.4459   20.1053 C   0  0  0  0  0  0
  -25.5868  -33.8648   24.2363 N   0  0  0  0  0  0
  -23.3999  -30.4916   21.5536 C   0  0  2  0  0  0
  -24.8470  -28.9583   20.1183 C   0  0  0  0  0  0
  -22.7401  -29.4669   22.5027 C   0  0  0  0  0  0
  -18.0265  -28.1382   22.8492 C   0  0  0  0  0  0
  -24.1477  -36.7321   23.2644 C   0  0  0  0  0  0
  -25.9260  -30.8422   21.3596 C   0  0  0  0  0  0
  -26.0064  -29.4762   20.7095 C   0  0  0  0  0  0
  -27.2053  -28.7289   20.6952 C   0  0  0  0  0  0
  -26.0586  -26.9423   19.5042 C   0  0  0  0  0  0
  -24.8672  -27.6910   19.5117 C   0  0  0  0  0  0
  -23.6074  -29.8220   20.1689 C   0  0  0  0  0  0
  -25.4100  -36.3147   24.0361 C   0  0  1  0  0  0
  -20.5853  -28.3670   23.1327 C   0  0  2  0  0  0
  -20.6756  -26.9412   22.5412 C   0  0  0  0  0  0
  -19.5740  -26.6391   21.5205 C   0  0  0  0  0  0
  -18.1921  -26.7929   22.1622 C   0  0  0  0  0  0
  -19.1514  -28.8840   23.2904 C   0  0  0  0  0  0
  -18.9450  -30.1448   23.8915 C   0  0  0  0  0  0
  -17.6457  -30.6588   24.0569 C   0  0  0  0  0  0
  -25.9026  -34.9501   23.5165 C   0  0  0  0  0  0
  -16.5344  -29.9093   23.6323 C   0  0  0  0  0  0
  -16.7259  -28.6504   23.0349 C   0  0  0  0  0  0
  -26.4442  -31.6615   25.0734 C   0  0  0  0  0  0
  -25.3740  -31.3680   26.1506 C   0  0  0  0  0  0
  -27.0249  -30.3080   24.6039 C   0  0  0  0  0  0
  -27.6053  -32.4317   25.7453 C   0  0  0  0  0  0
  -27.5584  -37.1818   24.8479 C   0  0  0  0  0  0
  -21.4136  -29.3037   22.3745 N   0  0  0  0  0  0
  -26.4299  -37.3816   23.9420 N   0  0  0  0  0  0
  -24.6644  -31.0812   22.1016 N   0  0  0  0  0  0
  -23.4173  -28.8232   23.3075 O   0  0  0  0  0  0
  -28.4017  -26.7157   20.1093 O   0  0  0  0  0  0
  -26.5591  -34.8938   22.4727 O   0  0  0  0  0  0
  -23.5310  -32.1443   23.7524 O   0  0  0  0  0  0
  -29.6973  -20.9502   23.0956 C   0  0  0  0  0  0
  -29.6084  -19.6392   23.4709 C   0  0  0  0  0  0
  -29.6111  -19.7036   21.2307 C   0  0  0  0  0  0
  -29.6984  -21.0022   21.6709 C   0  0  0  0  0  0
  -29.7915  -22.1655   20.7458 C   0  0  0  0  0  0
  -30.2687  -16.7004   23.4083 C   0  0  0  0  0  0
  -30.4436  -15.2638   22.9037 C   0  0  0  0  0  0
  -29.8642  -16.6663   21.0555 C   0  0  0  0  0  0
  -29.4256  -17.3921   22.3358 C   0  0  2  0  0  0
  -29.6472  -24.6725   20.6135 C   0  0  0  0  0  0
  -28.2802  -25.3783   20.6106 C   0  0  0  0  0  0
  -29.5781  -18.8518   22.3311 N   0  0  0  0  0  0
  -30.1551  -15.2889   21.4680 N   0  0  0  0  0  0
  -29.5842  -23.3721   21.2900 N   0  0  0  0  0  0
  -30.0290  -22.0149   19.5447 O   0  0  0  0  0  0
  -31.4611  -12.3881   19.0961 H   0  0  0  0  0  0
  -30.3118  -11.2665   19.7722 H   0  0  0  0  0  0
  -29.7218  -11.8022   17.3954 H   0  0  0  0  0  0
  -29.6532  -13.5026   17.7696 H   0  0  0  0  0  0
  -27.8180  -11.3073   18.7910 H   0  0  0  0  0  0
  -27.3516  -12.6443   17.7795 H   0  0  0  0  0  0
  -27.7154  -14.2483   19.5895 H   0  0  0  0  0  0
  -28.6646  -11.8987   21.3003 H   0  0  0  0  0  0
  -28.4379  -13.5190   21.8717 H   0  0  0  0  0  0
  -25.2683   -9.5686   22.4723 H   0  0  0  0  0  0
  -23.9977   -7.4600   22.7450 H   0  0  0  0  0  0
  -21.0791   -8.8696   19.8955 H   0  0  0  0  0  0
  -22.3580  -10.9623   19.6142 H   0  0  0  0  0  0
  -21.1999   -7.6114   23.9684 H   0  0  0  0  0  0
  -21.1506   -6.0498   25.9072 H   0  0  0  0  0  0
  -22.0609   -2.7579   23.2848 H   0  0  0  0  0  0
  -22.4105  -11.9912   22.4819 H   0  0  0  0  0  0
  -21.1118  -13.1287   22.2640 H   0  0  0  0  0  0
  -24.6710  -15.8451   20.4884 H   0  0  0  0  0  0
  -26.2886  -15.6074   20.0605 H   0  0  0  0  0  0
  -26.7073  -32.5571   23.1205 H   0  0  0  0  0  0
  -25.0019  -33.9820   25.0510 H   0  0  0  0  0  0
  -22.6878  -31.3075   21.4139 H   0  0  0  0  0  0
  -23.3746  -35.9646   23.3346 H   0  0  0  0  0  0
  -24.3569  -36.8881   22.2049 H   0  0  0  0  0  0
  -23.7213  -37.6538   23.6615 H   0  0  0  0  0  0
  -26.0255  -31.6074   20.5886 H   0  0  0  0  0  0
  -26.8180  -30.9042   21.9712 H   0  0  0  0  0  0
  -28.1034  -29.1253   21.1479 H   0  0  0  0  0  0
  -26.0533  -25.9777   19.0186 H   0  0  0  0  0  0
  -23.9764  -27.2885   19.0478 H   0  0  0  0  0  0
  -23.7142  -30.5947   19.4072 H   0  0  0  0  0  0
  -22.7320  -29.2401   19.8756 H   0  0  0  0  0  0
  -25.1268  -36.2035   25.0855 H   0  0  0  0  0  0
  -20.9932  -28.3222   24.1456 H   0  0  0  0  0  0
  -20.5654  -26.2285   23.3598 H   0  0  0  0  0  0
  -21.6632  -26.7465   22.1212 H   0  0  0  0  0  0
  -19.6909  -25.6302   21.1237 H   0  0  0  0  0  0
  -19.6677  -27.3196   20.6731 H   0  0  0  0  0  0
  -17.4189  -26.6670   21.4029 H   0  0  0  0  0  0
  -18.0343  -26.0062   22.9015 H   0  0  0  0  0  0
  -19.7929  -30.7250   24.2303 H   0  0  0  0  0  0
  -17.5016  -31.6276   24.5167 H   0  0  0  0  0  0
  -15.5347  -30.3010   23.7638 H   0  0  0  0  0  0
  -15.8659  -28.0831   22.7067 H   0  0  0  0  0  0
  -24.5900  -30.7035   25.7852 H   0  0  0  0  0  0
  -24.8928  -32.2805   26.5035 H   0  0  0  0  0  0
  -25.8115  -30.8801   27.0225 H   0  0  0  0  0  0
  -26.2748  -29.6853   24.1147 H   0  0  0  0  0  0
  -27.4123  -29.7292   25.4432 H   0  0  0  0  0  0
  -27.8542  -30.4442   23.9093 H   0  0  0  0  0  0
  -27.2724  -33.3631   26.2042 H   0  0  0  0  0  0
  -28.3822  -32.6853   25.0230 H   0  0  0  0  0  0
  -28.0761  -31.8433   26.5337 H   0  0  0  0  0  0
  -28.2641  -38.0080   24.7515 H   0  0  0  0  0  0
  -28.1043  -36.2622   24.6324 H   0  0  0  0  0  0
  -27.2312  -37.1498   25.8886 H   0  0  0  0  0  0
  -20.9309  -29.8751   21.6958 H   0  0  0  0  0  0
  -26.0211  -38.2907   24.1403 H   0  0  0  0  0  0
  -29.7473  -21.7846   23.7815 H   0  0  0  0  0  0
  -29.5680  -19.1896   24.4548 H   0  0  0  0  0  0
  -29.5726  -19.3152   20.2217 H   0  0  0  0  0  0
  -31.2436  -17.1840   23.4819 H   0  0  0  0  0  0
  -29.8120  -16.7384   24.3974 H   0  0  0  0  0  0
  -31.4540  -14.9003   23.1084 H   0  0  0  0  0  0
  -29.7509  -14.5872   23.4066 H   0  0  0  0  0  0
  -30.7614  -17.1192   20.6274 H   0  0  0  0  0  0
  -29.0854  -16.6856   20.2917 H   0  0  0  0  0  0
  -28.3740  -17.1656   22.5226 H   0  0  0  0  0  0
  -30.3725  -25.2847   21.1493 H   0  0  0  0  0  0
  -30.0180  -24.5797   19.5919 H   0  0  0  0  0  0
  -27.8914  -25.4194   21.6307 H   0  0  0  0  0  0
  -27.5770  -24.7886   20.0220 H   0  0  0  0  0  0
  -29.3946  -23.3888   22.2820 H   0  0  0  0  0  0
  1 25  1  0  0  0
  1 30  2  0  0  0
  1 83  1  0  0  0
  2  3  1  0  0  0
  2 25  1  0  0  0
  2 86  1  0  0  0
  2 87  1  0  0  0
  3  4  1  0  0  0
  3 88  1  0  0  0
  3 89  1  0  0  0
  4  5  1  0  0  0
  4 90  1  0  0  0
  4 91  1  0  0  0
  5  6  1  0  0  0
  5 26  1  0  0  0
  5 92  1  0  0  0
  6 25  1  0  0  0
  6 93  1  0  0  0
  6 94  1  0  0  0
  7  8  2  0  0  0
  7 26  1  0  0  0
  7 29  1  0  0  0
  8  9  1  0  0  0
  8 22  1  0  0  0
  9 10  1  0  0  0
  9 27  2  0  0  0
 10 11  2  0  0  0
 10 15  1  0  0  0
 11 12  1  0  0  0
 11 95  1  0  0  0
 12 13  2  0  0  0
 12 96  1  0  0  0
 13 14  1  0  0  0
 13 31  1  0  0  0
 14 15  2  0  0  0
 14 97  1  0  0  0
 15 98  1  0  0  0
 16 17  2  0  0  0
 16 21  1  0  0  0
 16 31  1  0  0  0
 17 18  1  0  0  0
 17 99  1  0  0  0
 18 19  2  0  0  0
 18100  1  0  0  0
 19 20  1  0  0  0
 19 24  1  0  0  0
 20 21  2  0  0  0
 20101  1  0  0  0
 21 23  1  0  0  0
 22 28  1  0  0  0
 22 32  2  0  0  0
 26 27  1  0  0  0
 28102  1  0  0  0
 28103  1  0  0  0
 29104  1  0  0  0
 29105  1  0  0  0
 33 34  1  0  0  0
 33 66  1  0  0  0
 33 70  2  0  0  0
 34 36  1  0  0  0
 34 59  1  0  0  0
 34106  1  0  0  0
 35 44  2  0  0  0
 35 45  1  0  0  0
 35 68  1  0  0  0
 36 56  1  0  0  0
 36107  1  0  0  0
 37 39  1  0  0  0
 37 47  1  0  0  0
 37 66  1  0  0  0
 37108  1  0  0  0
 38 43  2  0  0  0
 38 46  1  0  0  0
 38 47  1  0  0  0
 39 64  1  0  0  0
 39 67  2  0  0  0
 40 52  1  0  0  0
 40 53  2  0  0  0
 40 58  1  0  0  0
 41109  1  0  0  0
 41110  1  0  0  0
 41111  1  0  0  0
 41 48  1  0  0  0
 42 43  1  0  0  0
 42 66  1  0  0  0
 42112  1  0  0  0
 42113  1  0  0  0
 43 44  1  0  0  0
 44114  1  0  0  0
 45 46  2  0  0  0
 45115  1  0  0  0
 46116  1  0  0  0
 47117  1  0  0  0
 47118  1  0  0  0
 48 56  1  0  0  0
 48 65  1  0  0  0
 48119  1  0  0  0
 49 50  1  0  0  0
 49 53  1  0  0  0
 49 64  1  0  0  0
 49120  1  0  0  0
 50 51  1  0  0  0
 50121  1  0  0  0
 50122  1  0  0  0
 51 52  1  0  0  0
 51123  1  0  0  0
 51124  1  0  0  0
 52125  1  0  0  0
 52126  1  0  0  0
 53 54  1  0  0  0
 54 55  2  0  0  0
 54127  1  0  0  0
 55 57  1  0  0  0
 55128  1  0  0  0
 56 69  2  0  0  0
 57 58  2  0  0  0
 57129  1  0  0  0
 58130  1  0  0  0
 59 60  1  0  0  0
 59 61  1  0  0  0
 59 62  1  0  0  0
 60131  1  0  0  0
 60132  1  0  0  0
 60133  1  0  0  0
 61134  1  0  0  0
 61135  1  0  0  0
 61136  1  0  0  0
 62137  1  0  0  0
 62138  1  0  0  0
 62139  1  0  0  0
 63 65  1  0  0  0
 63140  1  0  0  0
 63141  1  0  0  0
 63142  1  0  0  0
 64143  1  0  0  0
 65144  1  0  0  0
 68 81  1  0  0  0
 71 72  2  0  0  0
 71 74  1  0  0  0
 71145  1  0  0  0
 72 82  1  0  0  0
 72146  1  0  0  0
 73 74  2  0  0  0
 73 82  1  0  0  0
 73147  1  0  0  0
 74 75  1  0  0  0
 75 84  1  0  0  0
 75 85  2  0  0  0
 76 77  1  0  0  0
 76 79  1  0  0  0
 76148  1  0  0  0
 76149  1  0  0  0
 77 83  1  0  0  0
 77150  1  0  0  0
 77151  1  0  0  0
 78 79  1  0  0  0
 78 83  1  0  0  0
 78152  1  0  0  0
 78153  1  0  0  0
 79 82  1  0  0  0
 79154  1  0  0  0
 80 81  1  0  0  0
 80 84  1  0  0  0
 80155  1  0  0  0
 80156  1  0  0  0
 81157  1  0  0  0
 81158  1  0  0  0
 84159  1  0  0  0
M  ISO  4   1 100  68 101  81 101  83 100
M  END
> <chiral flag>
0

> <version>
0

> <s_m_source_file>
/data/baiqing/PycharmProjects/Reinvent-master-3.2/result/LINK_invent/BTK/process_docking_weight1_custom_sum_contain_oxygen_bond_distance_aromatic_linkinvent_7_9_3/rearranged_h_0193.sdf

> <i_m_source_file_index>
93

> <r_mmod_Potential_Energy-OPLS-2005>
66.34033203125

> <r_mmod_Stretch_Energy-OPLS-2005>
33.5274658203125

> <r_mmod_Bend_Energy-OPLS-2005>
109.354698181152

> <r_mmod_Torsional_Energy-OPLS-2005>
371.165832519531

> <r_mmod_Improper_Torsional_Energy-OPLS-2005>
5.73743581771851

> <r_mmod_Van_der_Waal_Energy-OPLS-2005>
128.068862915039

> <r_mmod_Electrostatic_Energy-OPLS-2005>
-363.655090332031

> <r_mmod_Solvation_Energy-OPLS-2005>
-226.212280273438

> <b_mmod_Minimization_Converged-OPLS-2005>
0

> <r_mmod_RMS_Derivative-OPLS-2005>
2.93953108787537

$$$$
93
                    3D
 Structure written by MMmdl.
173181  0  0  1  0            999 V2000
  -30.7315  -14.3282   20.6169 C   0  0  0  0  0  0
  -30.4205  -12.2596   19.3377 C   0  0  0  0  0  0
  -29.4544  -12.5010   18.1611 C   0  0  0  0  0  0
  -27.9837  -12.3615   18.6008 C   0  0  0  0  0  0
  -27.6643  -13.1660   19.8847 C   0  0  2  0  0  0
  -28.7157  -12.8619   20.9747 C   0  0  0  0  0  0
  -25.2666  -13.8064   20.5819 C   0  0  0  0  0  0
  -24.1845  -13.0399   20.9237 C   0  0  0  0  0  0
  -24.6322  -11.6844   20.8766 C   0  0  0  0  0  0
  -23.8952  -10.4276   21.0406 C   0  0  0  0  0  0
  -24.3522   -9.4213   21.9178 C   0  0  0  0  0  0
  -23.6229   -8.2241   22.0767 C   0  0  0  0  0  0
  -22.4215   -8.0260   21.3568 C   0  0  0  0  0  0
  -21.9819   -9.0216   20.4666 C   0  0  0  0  0  0
  -22.7119  -10.2108   20.3065 C   0  0  0  0  0  0
  -21.6847   -6.0702   22.5269 C   0  0  0  0  0  0
  -21.4007   -6.5625   23.8190 C   0  0  0  0  0  0
  -21.3682   -5.6799   24.9159 C   0  0  0  0  0  0
  -21.6073   -4.3063   24.7238 C   0  0  0  0  0  0
  -21.8845   -3.8134   23.4373 C   0  0  0  0  0  0
  -21.9201   -4.6932   22.3409 C   0  0  0  0  0  0
  -22.7882  -13.5213   21.1942 C   0  0  0  0  0  0
  -22.1676   -4.2112   21.0985 F   0  0  0  0  0  0
  -21.5630   -3.4555   25.7761 F   0  0  0  0  0  0
  -30.0505  -13.1747   20.4231 N   0  0  0  0  0  0
  -26.3033  -12.9132   20.3498 N   0  0  0  0  0  0
  -25.9231  -11.6343   20.5836 N   0  0  0  0  0  0
  -22.0505  -12.8163   22.0441 N   0  0  0  0  0  0
  -25.4582  -15.1772   20.4334 N   0  0  0  0  0  0
  -31.8304  -14.5889   20.1160 O   0  0  0  0  0  0
  -21.6643   -6.8821   21.4222 O   0  0  0  0  0  0
  -22.3589  -14.5537   20.6823 O   0  0  0  0  0  0
  -24.6069  -31.8718   23.2161 C   0  0  0  0  0  0
  -25.8967  -32.4840   23.8422 C   0  0  1  0  0  0
  -27.2724  -27.5169   20.0933 C   0  0  0  0  0  0
  -25.5846  -33.8654   24.2348 N   0  0  0  0  0  0
  -23.3940  -30.4908   21.5513 C   0  0  2  0  0  0
  -24.8453  -28.9604   20.1243 C   0  0  0  0  0  0
  -22.7338  -29.4686   22.5022 C   0  0  0  0  0  0
  -18.0212  -28.1372   22.8466 C   0  0  0  0  0  0
  -24.1509  -36.7352   23.2609 C   0  0  0  0  0  0
  -25.9090  -30.8640   21.3533 C   0  0  0  0  0  0
  -25.9940  -29.4975   20.7131 C   0  0  0  0  0  0
  -27.2009  -28.7809   20.7053 C   0  0  0  0  0  0
  -26.1050  -26.9783   19.4941 C   0  0  0  0  0  0
  -24.8926  -27.6930   19.5186 C   0  0  0  0  0  0
  -23.5990  -29.8128   20.1678 C   0  0  0  0  0  0
  -25.4109  -36.3130   24.0334 C   0  0  1  0  0  0
  -20.5805  -28.3684   23.1302 C   0  0  2  0  0  0
  -20.6740  -26.9433   22.5418 C   0  0  0  0  0  0
  -19.5716  -26.6378   21.5211 C   0  0  0  0  0  0
  -18.1870  -26.7901   22.1612 C   0  0  0  0  0  0
  -19.1470  -28.8845   23.2883 C   0  0  0  0  0  0
  -18.9423  -30.1404   23.8941 C   0  0  0  0  0  0
  -17.6441  -30.6594   24.0566 C   0  0  0  0  0  0
  -25.9034  -34.9495   23.5154 C   0  0  0  0  0  0
  -16.5320  -29.9122   23.6313 C   0  0  0  0  0  0
  -16.7201  -28.6524   23.0356 C   0  0  0  0  0  0
  -26.4482  -31.6529   25.0677 C   0  0  0  0  0  0
  -25.3846  -31.3590   26.1505 C   0  0  0  0  0  0
  -27.0252  -30.2960   24.5950 C   0  0  0  0  0  0
  -27.6118  -32.4227   25.7410 C   0  0  0  0  0  0
  -27.5572  -37.1826   24.8467 C   0  0  0  0  0  0
  -21.4082  -29.3079   22.3735 N   0  0  0  0  0  0
  -26.4300  -37.3789   23.9391 N   0  0  0  0  0  0
  -24.6539  -31.0873   22.1004 N   0  0  0  0  0  0
  -23.4096  -28.8219   23.3081 O   0  0  0  0  0  0
  -28.5006  -26.8975   20.1290 O   0  0  0  0  0  0
  -26.5619  -34.8933   22.4721 O   0  0  0  0  0  0
  -23.5283  -32.1394   23.7599 O   0  0  0  0  0  0
  -30.1403  -15.7078   22.5500 C   0  0  0  0  0  0
  -29.5612  -16.4146   20.3340 C   0  0  0  0  0  0
  -29.4544  -17.0744   22.6346 C   0  0  2  0  0  0
  -29.6711  -17.6406   21.2193 C   0  0  2  0  0  0
  -29.8685  -19.5763   25.4176 C   0  0  0  0  0  0
  -27.3318  -21.0941   21.6274 C   0  0  0  0  0  0
  -29.1975  -18.8879   24.2270 C   0  0  0  0  0  0
  -27.9159  -24.6128   20.6743 C   0  0  0  0  0  0
  -29.2265  -19.9470   20.3776 C   0  0  0  0  0  0
  -28.6370  -22.3673   19.8396 C   0  0  0  0  0  0
  -28.6319  -25.5605   19.7038 C   0  0  0  0  0  0
  -28.0972  -20.9921   20.2805 C   0  0  2  0  0  0
  -29.9838  -15.2917   21.1601 N   0  0  0  0  0  0
  -30.0700  -17.8442   23.7102 N   0  0  0  0  0  0
  -28.6800  -18.6423   20.7950 N   0  3  0  0  0  0
  -27.5533  -23.3602   19.9939 N   0  3  0  0  0  0
  -31.4447  -12.4075   18.9942 H   0  0  0  0  0  0
  -30.3634  -11.2266   19.6845 H   0  0  0  0  0  0
  -29.6585  -11.7886   17.3610 H   0  0  0  0  0  0
  -29.6164  -13.4922   17.7320 H   0  0  0  0  0  0
  -27.7851  -11.3009   18.7659 H   0  0  0  0  0  0
  -27.3141  -12.6622   17.7959 H   0  0  0  0  0  0
  -27.7240  -14.2178   19.6219 H   0  0  0  0  0  0
  -28.6759  -11.8050   21.2444 H   0  0  0  0  0  0
  -28.4952  -13.3927   21.8999 H   0  0  0  0  0  0
  -25.2685   -9.5727   22.4709 H   0  0  0  0  0  0
  -24.0007   -7.4649   22.7466 H   0  0  0  0  0  0
  -21.0769   -8.8672   19.8947 H   0  0  0  0  0  0
  -22.3556  -10.9620   19.6166 H   0  0  0  0  0  0
  -21.1979   -7.6131   23.9639 H   0  0  0  0  0  0
  -21.1471   -6.0562   25.9046 H   0  0  0  0  0  0
  -22.0599   -2.7584   23.2890 H   0  0  0  0  0  0
  -22.4076  -11.9742   22.4729 H   0  0  0  0  0  0
  -21.1155  -13.1218   22.2713 H   0  0  0  0  0  0
  -24.7246  -15.8602   20.5912 H   0  0  0  0  0  0
  -26.3442  -15.5894   20.1777 H   0  0  0  0  0  0
  -26.7050  -32.5587   23.1217 H   0  0  0  0  0  0
  -24.9957  -33.9832   25.0465 H   0  0  0  0  0  0
  -22.6794  -31.3037   21.4031 H   0  0  0  0  0  0
  -23.3721  -35.9735   23.3333 H   0  0  0  0  0  0
  -24.3580  -36.8894   22.2000 H   0  0  0  0  0  0
  -23.7339  -37.6618   23.6584 H   0  0  0  0  0  0
  -25.9925  -31.6253   20.5750 H   0  0  0  0  0  0
  -26.8073  -30.9381   21.9532 H   0  0  0  0  0  0
  -28.0870  -29.2011   21.1601 H   0  0  0  0  0  0
  -26.1087  -26.0180   19.0003 H   0  0  0  0  0  0
  -24.0132  -27.2662   19.0574 H   0  0  0  0  0  0
  -23.6985  -30.5859   19.4070 H   0  0  0  0  0  0
  -22.7319  -29.2190   19.8779 H   0  0  0  0  0  0
  -25.1277  -36.2005   25.0816 H   0  0  0  0  0  0
  -20.9853  -28.3279   24.1444 H   0  0  0  0  0  0
  -20.5661  -26.2343   23.3637 H   0  0  0  0  0  0
  -21.6622  -26.7512   22.1220 H   0  0  0  0  0  0
  -19.6950  -25.6297   21.1232 H   0  0  0  0  0  0
  -19.6630  -27.3171   20.6719 H   0  0  0  0  0  0
  -17.4156  -26.6600   21.3997 H   0  0  0  0  0  0
  -18.0304  -26.0022   22.9007 H   0  0  0  0  0  0
  -19.7915  -30.7154   24.2378 H   0  0  0  0  0  0
  -17.5029  -31.6259   24.5179 H   0  0  0  0  0  0
  -15.5336  -30.3091   23.7618 H   0  0  0  0  0  0
  -15.8549  -28.0866   22.7153 H   0  0  0  0  0  0
  -24.5865  -30.7143   25.7836 H   0  0  0  0  0  0
  -24.9268  -32.2773   26.5180 H   0  0  0  0  0  0
  -25.8254  -30.8530   27.0107 H   0  0  0  0  0  0
  -26.2627  -29.6656   24.1349 H   0  0  0  0  0  0
  -27.4429  -29.7239   25.4239 H   0  0  0  0  0  0
  -27.8307  -30.4213   23.8702 H   0  0  0  0  0  0
  -27.2755  -33.3519   26.2037 H   0  0  0  0  0  0
  -28.3911  -32.6755   25.0199 H   0  0  0  0  0  0
  -28.0786  -31.8302   26.5298 H   0  0  0  0  0  0
  -28.2639  -38.0070   24.7471 H   0  0  0  0  0  0
  -28.0997  -36.2616   24.6347 H   0  0  0  0  0  0
  -27.2264  -37.1510   25.8853 H   0  0  0  0  0  0
  -20.9238  -29.8699   21.6853 H   0  0  0  0  0  0
  -26.0221  -38.2890   24.1323 H   0  0  0  0  0  0
  -29.6832  -14.9868   23.2292 H   0  0  0  0  0  0
  -31.2015  -15.7606   22.7975 H   0  0  0  0  0  0
  -30.1645  -16.5354   19.4299 H   0  0  0  0  0  0
  -28.5355  -16.2348   20.0201 H   0  0  0  0  0  0
  -28.3934  -16.9067   22.8339 H   0  0  0  0  0  0
  -30.6901  -18.0254   21.1303 H   0  0  0  0  0  0
  -30.1008  -18.8614   26.2084 H   0  0  0  0  0  0
  -29.2038  -20.3274   25.8460 H   0  0  0  0  0  0
  -30.7885  -20.0858   25.1255 H   0  0  0  0  0  0
  -26.9683  -20.1309   21.9830 H   0  0  0  0  0  0
  -26.4355  -21.7150   21.5551 H   0  0  0  0  0  0
  -27.9706  -21.5172   22.4039 H   0  0  0  0  0  0
  -28.9713  -19.6272   23.4594 H   0  0  0  0  0  0
  -28.2456  -18.4550   24.5410 H   0  0  0  0  0  0
  -26.9772  -25.0413   21.0216 H   0  0  0  0  0  0
  -28.4988  -24.4458   21.5835 H   0  0  0  0  0  0
  -29.9732  -20.2785   21.1014 H   0  0  0  0  0  0
  -29.7401  -19.8354   19.4204 H   0  0  0  0  0  0
  -28.9728  -22.3473   18.7987 H   0  0  0  0  0  0
  -29.5128  -22.6431   20.4330 H   0  0  0  0  0  0
  -28.2732  -25.4662   18.6789 H   0  0  0  0  0  0
  -29.6933  -25.3138   19.6761 H   0  0  0  0  0  0
  -27.3953  -20.6651   19.5094 H   0  0  0  0  0  0
  -30.9728  -18.2144   23.4201 H   0  0  0  0  0  0
  -28.0354  -18.7930   21.5541 H   0  0  0  0  0  0
  -28.1577  -18.2546   20.0256 H   0  0  0  0  0  0
  -27.1004  -23.5390   19.1108 H   0  0  0  0  0  0
  -26.8746  -22.9069   20.5879 H   0  0  0  0  0  0
  1 25  1  0  0  0
  1 30  2  0  0  0
  1 83  1  0  0  0
  2  3  1  0  0  0
  2 25  1  0  0  0
  2 87  1  0  0  0
  2 88  1  0  0  0
  3  4  1  0  0  0
  3 89  1  0  0  0
  3 90  1  0  0  0
  4  5  1  0  0  0
  4 91  1  0  0  0
  4 92  1  0  0  0
  5  6  1  0  0  0
  5 26  1  0  0  0
  5 93  1  0  0  0
  6 25  1  0  0  0
  6 94  1  0  0  0
  6 95  1  0  0  0
  7  8  2  0  0  0
  7 26  1  0  0  0
  7 29  1  0  0  0
  8  9  1  0  0  0
  8 22  1  0  0  0
  9 10  1  0  0  0
  9 27  2  0  0  0
 10 11  2  0  0  0
 10 15  1  0  0  0
 11 12  1  0  0  0
 11 96  1  0  0  0
 12 13  2  0  0  0
 12 97  1  0  0  0
 13 14  1  0  0  0
 13 31  1  0  0  0
 14 15  2  0  0  0
 14 98  1  0  0  0
 15 99  1  0  0  0
 16 17  2  0  0  0
 16 21  1  0  0  0
 16 31  1  0  0  0
 17 18  1  0  0  0
 17100  1  0  0  0
 18 19  2  0  0  0
 18101  1  0  0  0
 19 20  1  0  0  0
 19 24  1  0  0  0
 20 21  2  0  0  0
 20102  1  0  0  0
 21 23  1  0  0  0
 22 28  1  0  0  0
 22 32  2  0  0  0
 26 27  1  0  0  0
 28103  1  0  0  0
 28104  1  0  0  0
 29105  1  0  0  0
 29106  1  0  0  0
 33 34  1  0  0  0
 33 66  1  0  0  0
 33 70  2  0  0  0
 34 36  1  0  0  0
 34 59  1  0  0  0
 34107  1  0  0  0
 35 44  2  0  0  0
 35 45  1  0  0  0
 35 68  1  0  0  0
 36 56  1  0  0  0
 36108  1  0  0  0
 37 39  1  0  0  0
 37 47  1  0  0  0
 37 66  1  0  0  0
 37109  1  0  0  0
 38 43  2  0  0  0
 38 46  1  0  0  0
 38 47  1  0  0  0
 39 64  1  0  0  0
 39 67  2  0  0  0
 40 52  1  0  0  0
 40 53  2  0  0  0
 40 58  1  0  0  0
 41110  1  0  0  0
 41111  1  0  0  0
 41112  1  0  0  0
 41 48  1  0  0  0
 42 43  1  0  0  0
 42 66  1  0  0  0
 42113  1  0  0  0
 42114  1  0  0  0
 43 44  1  0  0  0
 44115  1  0  0  0
 45 46  2  0  0  0
 45116  1  0  0  0
 46117  1  0  0  0
 47118  1  0  0  0
 47119  1  0  0  0
 48 56  1  0  0  0
 48 65  1  0  0  0
 48120  1  0  0  0
 49 50  1  0  0  0
 49 53  1  0  0  0
 49 64  1  0  0  0
 49121  1  0  0  0
 50 51  1  0  0  0
 50122  1  0  0  0
 50123  1  0  0  0
 51 52  1  0  0  0
 51124  1  0  0  0
 51125  1  0  0  0
 52126  1  0  0  0
 52127  1  0  0  0
 53 54  1  0  0  0
 54 55  2  0  0  0
 54128  1  0  0  0
 55 57  1  0  0  0
 55129  1  0  0  0
 56 69  2  0  0  0
 57 58  2  0  0  0
 57130  1  0  0  0
 58131  1  0  0  0
 59 60  1  0  0  0
 59 61  1  0  0  0
 59 62  1  0  0  0
 60132  1  0  0  0
 60133  1  0  0  0
 60134  1  0  0  0
 61135  1  0  0  0
 61136  1  0  0  0
 61137  1  0  0  0
 62138  1  0  0  0
 62139  1  0  0  0
 62140  1  0  0  0
 63 65  1  0  0  0
 63141  1  0  0  0
 63142  1  0  0  0
 63143  1  0  0  0
 64144  1  0  0  0
 65145  1  0  0  0
 68 81  1  0  0  0
 71 73  1  0  0  0
 71 83  1  0  0  0
 71146  1  0  0  0
 71147  1  0  0  0
 72 74  1  0  0  0
 72 83  1  0  0  0
 72148  1  0  0  0
 72149  1  0  0  0
 73 74  1  0  0  0
 73 84  1  0  0  0
 73150  1  0  0  0
 74 85  1  0  0  0
 74151  1  0  0  0
 75 77  1  0  0  0
 75152  1  0  0  0
 75153  1  0  0  0
 75154  1  0  0  0
 76155  1  0  0  0
 76156  1  0  0  0
 76157  1  0  0  0
 76 82  1  0  0  0
 77 84  1  0  0  0
 77158  1  0  0  0
 77159  1  0  0  0
 78 81  1  0  0  0
 78 86  1  0  0  0
 78160  1  0  0  0
 78161  1  0  0  0
 79 82  1  0  0  0
 79 85  1  0  0  0
 79162  1  0  0  0
 79163  1  0  0  0
 80 82  1  0  0  0
 80 86  1  0  0  0
 80164  1  0  0  0
 80165  1  0  0  0
 81166  1  0  0  0
 81167  1  0  0  0
 82168  1  0  0  0
 84169  1  0  0  0
 85170  1  0  0  0
 85171  1  0  0  0
 86172  1  0  0  0
 86173  1  0  0  0
M  CHG  2  85   1  86   1
M  ISO  4   1 100  68 101  81 101  83 100
M  END
> <chiral flag>
0

> <version>
0

> <s_m_source_file>
/data/baiqing/PycharmProjects/Reinvent-master-3.2/result/LINK_invent/BTK/process_docking_weight1_custom_sum_contain_oxygen_bond_distance_aromatic_linkinvent_7_9_3/rearranged_h_0193.sdf

> <i_m_source_file_index>
94

> <r_mmod_Potential_Energy-OPLS-2005>
-158.065734863281

> <r_mmod_Stretch_Energy-OPLS-2005>
29.8181419372559

> <r_mmod_Bend_Energy-OPLS-2005>
131.25732421875

> <r_mmod_Torsional_Energy-OPLS-2005>
368.724090576172

> <r_mmod_Improper_Torsional_Energy-OPLS-2005>
9.13490104675293

> <r_mmod_Van_der_Waal_Energy-OPLS-2005>
139.996795654297

> <r_mmod_Electrostatic_Energy-OPLS-2005>
127.857521057129

> <r_mmod_Solvation_Energy-OPLS-2005>
-978.865844726562

> <b_mmod_Minimization_Converged-OPLS-2005>
0

> <r_mmod_RMS_Derivative-OPLS-2005>
6.43483209609985

$$$$
94
                    3D
 Structure written by MMmdl.
165175  0  0  1  0            999 V2000
  -30.6393  -14.8811   20.4248 C   0  0  0  0  0  0
  -30.4126  -12.5543   19.4785 C   0  0  0  0  0  0
  -29.5006  -12.5109   18.2364 C   0  0  0  0  0  0
  -28.0344  -12.3097   18.6614 C   0  0  0  0  0  0
  -27.6194  -13.2461   19.8275 C   0  0  2  0  0  0
  -28.6697  -13.2923   20.9603 C   0  0  0  0  0  0
  -25.2396  -13.8204   20.5719 C   0  0  0  0  0  0
  -24.1738  -13.0416   20.9265 C   0  0  0  0  0  0
  -24.6366  -11.6904   20.8783 C   0  0  0  0  0  0
  -23.9050  -10.4275   21.0397 C   0  0  0  0  0  0
  -24.3590   -9.4194   21.9179 C   0  0  0  0  0  0
  -23.6274   -8.2230   22.0755 C   0  0  0  0  0  0
  -22.4258   -8.0267   21.3546 C   0  0  0  0  0  0
  -21.9884   -9.0235   20.4650 C   0  0  0  0  0  0
  -22.7208  -10.2119   20.3046 C   0  0  0  0  0  0
  -21.6851   -6.0711   22.5282 C   0  0  0  0  0  0
  -21.4015   -6.5618   23.8214 C   0  0  0  0  0  0
  -21.3655   -5.6775   24.9180 C   0  0  0  0  0  0
  -21.6053   -4.3039   24.7229 C   0  0  0  0  0  0
  -21.8815   -3.8125   23.4351 C   0  0  0  0  0  0
  -21.9192   -4.6938   22.3409 C   0  0  0  0  0  0
  -22.7755  -13.5191   21.1902 C   0  0  0  0  0  0
  -22.1671   -4.2121   21.0989 F   0  0  0  0  0  0
  -21.5625   -3.4527   25.7743 F   0  0  0  0  0  0
  -29.9421  -13.6788   20.3397 N   0  0  0  0  0  0
  -26.2827  -12.9445   20.3236 N   0  0  0  0  0  0
  -25.9291  -11.6572   20.5746 N   0  0  0  0  0  0
  -22.0377  -12.8222   22.0463 N   0  0  0  0  0  0
  -25.3973  -15.1926   20.4101 N   0  0  0  0  0  0
  -31.8539  -14.8118   20.2081 O   0  0  0  0  0  0
  -21.6634   -6.8855   21.4240 O   0  0  0  0  0  0
  -22.3458  -14.5491   20.6713 O   0  0  0  0  0  0
  -24.6388  -31.8510   23.1938 C   0  0  0  0  0  0
  -25.9184  -32.4725   23.8310 C   0  0  1  0  0  0
  -27.2057  -27.1900   20.1307 C   0  0  0  0  0  0
  -25.5956  -33.8534   24.2232 N   0  0  0  0  0  0
  -23.4382  -30.4745   21.5403 C   0  0  2  0  0  0
  -24.8834  -28.9118   20.1106 C   0  0  0  0  0  0
  -22.7542  -29.4599   22.4900 C   0  0  0  0  0  0
  -18.0303  -28.1395   22.8485 C   0  0  0  0  0  0
  -24.1495  -36.7263   23.2643 C   0  0  0  0  0  0
  -25.9925  -30.7391   21.3876 C   0  0  0  0  0  0
  -26.0621  -29.3571   20.7246 C   0  0  0  0  0  0
  -27.2289  -28.5112   20.7183 C   0  0  0  0  0  0
  -26.0095  -26.8436   19.4679 C   0  0  0  0  0  0
  -24.8669  -27.6658   19.4696 C   0  0  0  0  0  0
  -23.6598  -29.8097   20.1576 C   0  0  0  0  0  0
  -25.4126  -36.3056   24.0326 C   0  0  1  0  0  0
  -20.5912  -28.3724   23.1247 C   0  0  2  0  0  0
  -20.6796  -26.9434   22.5406 C   0  0  0  0  0  0
  -19.5766  -26.6384   21.5219 C   0  0  0  0  0  0
  -18.1944  -26.7935   22.1627 C   0  0  0  0  0  0
  -19.1560  -28.8876   23.2859 C   0  0  0  0  0  0
  -18.9474  -30.1471   23.8886 C   0  0  0  0  0  0
  -17.6474  -30.6592   24.0559 C   0  0  0  0  0  0
  -25.9072  -34.9422   23.5086 C   0  0  0  0  0  0
  -16.5364  -29.9089   23.6332 C   0  0  0  0  0  0
  -16.7290  -28.6505   23.0358 C   0  0  0  0  0  0
  -26.4512  -31.6564   25.0730 C   0  0  0  0  0  0
  -25.3705  -31.3742   26.1433 C   0  0  0  0  0  0
  -27.0360  -30.2956   24.6283 C   0  0  0  0  0  0
  -27.6058  -32.4322   25.7501 C   0  0  0  0  0  0
  -27.5583  -37.1792   24.8466 C   0  0  0  0  0  0
  -21.4242  -29.3052   22.3619 N   0  0  0  0  0  0
  -26.4296  -37.3761   23.9408 N   0  0  0  0  0  0
  -24.7096  -31.0411   22.0954 N   0  0  0  0  0  0
  -23.4214  -28.8148   23.3027 O   0  0  0  0  0  0
  -28.2563  -26.2193   20.1550 O   0  0  0  0  0  0
  -26.5646  -34.8910   22.4656 O   0  0  0  0  0  0
  -23.5522  -32.1371   23.7192 O   0  0  0  0  0  0
  -29.0566  -22.6632   22.5047 C   0  0  0  0  0  0
  -29.1873  -21.6074   23.3506 C   0  0  0  0  0  0
  -29.0726  -20.7874   21.2515 C   0  0  0  0  0  0
  -29.0794  -22.7911   25.6829 C   0  0  0  0  0  0
  -30.4882  -22.2792   25.5014 C   0  0  0  0  0  0
  -30.6063  -18.7904   20.2340 C   0  0  0  0  0  0
  -28.3022  -18.2010   20.7650 C   0  0  0  0  0  0
  -30.9007  -17.3869   20.9598 C   0  0  0  0  0  0
  -28.6974  -16.7062   20.2794 C   0  0  0  0  0  0
  -29.3364  -21.5655   24.8345 C   0  0  0  0  0  0
  -29.1820  -19.4624   20.3346 C   0  0  0  0  0  0
  -28.7557  -23.3459   20.1350 C   0  0  0  0  0  0
  -27.9273  -24.7573   20.5099 C   0  0  0  0  0  0
  -28.9178  -22.2078   21.2112 N   0  0  0  0  0  0
  -29.2012  -20.5055   22.5565 N   0  3  0  0  0  0
  -30.0613  -16.1766   20.6166 N   0  0  0  0  0  0
  -31.4495  -12.6661   19.1594 H   0  0  0  0  0  0
  -30.3773  -11.6097   20.0221 H   0  0  0  0  0  0
  -29.8089  -11.7083   17.5648 H   0  0  0  0  0  0
  -29.6049  -13.4398   17.6730 H   0  0  0  0  0  0
  -27.9276  -11.2712   18.9741 H   0  0  0  0  0  0
  -27.3679  -12.4391   17.8070 H   0  0  0  0  0  0
  -27.5743  -14.2384   19.3843 H   0  0  0  0  0  0
  -28.7552  -12.3247   21.4574 H   0  0  0  0  0  0
  -28.3860  -14.0106   21.7290 H   0  0  0  0  0  0
  -25.2713   -9.5705   22.4777 H   0  0  0  0  0  0
  -23.9980   -7.4624   22.7473 H   0  0  0  0  0  0
  -21.0808   -8.8737   19.8965 H   0  0  0  0  0  0
  -22.3634  -10.9653   19.6165 H   0  0  0  0  0  0
  -21.2015   -7.6119   23.9721 H   0  0  0  0  0  0
  -21.1486   -6.0500   25.9091 H   0  0  0  0  0  0
  -22.0600   -2.7585   23.2863 H   0  0  0  0  0  0
  -22.3934  -11.9892   22.4911 H   0  0  0  0  0  0
  -21.0998  -13.1296   22.2603 H   0  0  0  0  0  0
  -24.6196  -15.8354   20.5194 H   0  0  0  0  0  0
  -26.2326  -15.6382   20.0557 H   0  0  0  0  0  0
  -26.7249  -32.5342   23.1043 H   0  0  0  0  0  0
  -25.0089  -33.9662   25.0369 H   0  0  0  0  0  0
  -22.7387  -31.3001   21.3924 H   0  0  0  0  0  0
  -23.3769  -35.9583   23.3299 H   0  0  0  0  0  0
  -24.3585  -36.8894   22.2059 H   0  0  0  0  0  0
  -23.7231  -37.6455   23.6673 H   0  0  0  0  0  0
  -26.1510  -31.5024   20.6247 H   0  0  0  0  0  0
  -26.8613  -30.7789   22.0328 H   0  0  0  0  0  0
  -28.1309  -28.8516   21.2081 H   0  0  0  0  0  0
  -25.9367  -25.9062   18.9369 H   0  0  0  0  0  0
  -23.9706  -27.3242   18.9701 H   0  0  0  0  0  0
  -23.7928  -30.5877   19.4052 H   0  0  0  0  0  0
  -22.7732  -29.2533   19.8476 H   0  0  0  0  0  0
  -25.1311  -36.1901   25.0820 H   0  0  0  0  0  0
  -21.0011  -28.3313   24.1366 H   0  0  0  0  0  0
  -20.5709  -26.2343   23.3625 H   0  0  0  0  0  0
  -21.6660  -26.7458   22.1189 H   0  0  0  0  0  0
  -19.6931  -25.6288   21.1269 H   0  0  0  0  0  0
  -19.6698  -27.3180   20.6736 H   0  0  0  0  0  0
  -17.4221  -26.6688   21.4019 H   0  0  0  0  0  0
  -18.0334  -26.0076   22.9022 H   0  0  0  0  0  0
  -19.7954  -30.7283   24.2254 H   0  0  0  0  0  0
  -17.5030  -31.6272   24.5162 H   0  0  0  0  0  0
  -15.5365  -30.2986   23.7658 H   0  0  0  0  0  0
  -15.8691  -28.0814   22.7085 H   0  0  0  0  0  0
  -24.5889  -30.7085   25.7752 H   0  0  0  0  0  0
  -24.8882  -32.2916   26.4817 H   0  0  0  0  0  0
  -25.7996  -30.8941   27.0236 H   0  0  0  0  0  0
  -26.2953  -29.6696   24.1292 H   0  0  0  0  0  0
  -27.3973  -29.7245   25.4845 H   0  0  0  0  0  0
  -27.8872  -30.4190   23.9586 H   0  0  0  0  0  0
  -27.2658  -33.3646   26.2022 H   0  0  0  0  0  0
  -28.3878  -32.6849   25.0328 H   0  0  0  0  0  0
  -28.0706  -31.8483   26.5454 H   0  0  0  0  0  0
  -28.2596  -38.0094   24.7518 H   0  0  0  0  0  0
  -28.1083  -36.2623   24.6288 H   0  0  0  0  0  0
  -27.2299  -37.1434   25.8868 H   0  0  0  0  0  0
  -20.9457  -29.8751   21.6783 H   0  0  0  0  0  0
  -26.0173  -38.2840   24.1393 H   0  0  0  0  0  0
  -29.0639  -23.7073   22.7701 H   0  0  0  0  0  0
  -28.8161  -23.7226   25.1861 H   0  0  0  0  0  0
  -28.6103  -22.6372   26.6530 H   0  0  0  0  0  0
  -30.9606  -21.7917   26.3514 H   0  0  0  0  0  0
  -31.1560  -22.8559   24.8624 H   0  0  0  0  0  0
  -30.7990  -18.6275   19.1715 H   0  0  0  0  0  0
  -31.3591  -19.5201   20.5352 H   0  0  0  0  0  0
  -28.2924  -18.1444   21.8528 H   0  0  0  0  0  0
  -27.2621  -18.3984   20.5012 H   0  0  0  0  0  0
  -30.8192  -17.5296   22.0380 H   0  0  0  0  0  0
  -31.9555  -17.1702   20.7961 H   0  0  0  0  0  0
  -28.5790  -16.6359   19.1973 H   0  0  0  0  0  0
  -27.9697  -16.0276   20.7154 H   0  0  0  0  0  0
  -29.0176  -20.6079   25.2394 H   0  0  0  0  0  0
  -28.8811  -19.7913   19.3390 H   0  0  0  0  0  0
  -29.7719  -23.6193   19.8522 H   0  0  0  0  0  0
  -28.3201  -22.8924   19.2449 H   0  0  0  0  0  0
  -27.8209  -24.8238   21.5876 H   0  0  0  0  0  0
  -26.9042  -24.5383   20.2137 H   0  0  0  0  0  0
  -29.3281  -19.5654   22.9091 H   0  0  0  0  0  0
  1 25  1  0  0  0
  1 30  2  0  0  0
  1 86  1  0  0  0
  2  3  1  0  0  0
  2 25  1  0  0  0
  2 87  1  0  0  0
  2 88  1  0  0  0
  3  4  1  0  0  0
  3 89  1  0  0  0
  3 90  1  0  0  0
  4  5  1  0  0  0
  4 91  1  0  0  0
  4 92  1  0  0  0
  5  6  1  0  0  0
  5 26  1  0  0  0
  5 93  1  0  0  0
  6 25  1  0  0  0
  6 94  1  0  0  0
  6 95  1  0  0  0
  7  8  2  0  0  0
  7 26  1  0  0  0
  7 29  1  0  0  0
  8  9  1  0  0  0
  8 22  1  0  0  0
  9 10  1  0  0  0
  9 27  2  0  0  0
 10 11  2  0  0  0
 10 15  1  0  0  0
 11 12  1  0  0  0
 11 96  1  0  0  0
 12 13  2  0  0  0
 12 97  1  0  0  0
 13 14  1  0  0  0
 13 31  1  0  0  0
 14 15  2  0  0  0
 14 98  1  0  0  0
 15 99  1  0  0  0
 16 17  2  0  0  0
 16 21  1  0  0  0
 16 31  1  0  0  0
 17 18  1  0  0  0
 17100  1  0  0  0
 18 19  2  0  0  0
 18101  1  0  0  0
 19 20  1  0  0  0
 19 24  1  0  0  0
 20 21  2  0  0  0
 20102  1  0  0  0
 21 23  1  0  0  0
 22 28  1  0  0  0
 22 32  2  0  0  0
 26 27  1  0  0  0
 28103  1  0  0  0
 28104  1  0  0  0
 29105  1  0  0  0
 29106  1  0  0  0
 33 34  1  0  0  0
 33 66  1  0  0  0
 33 70  2  0  0  0
 34 36  1  0  0  0
 34 59  1  0  0  0
 34107  1  0  0  0
 35 44  2  0  0  0
 35 45  1  0  0  0
 35 68  1  0  0  0
 36 56  1  0  0  0
 36108  1  0  0  0
 37 39  1  0  0  0
 37 47  1  0  0  0
 37 66  1  0  0  0
 37109  1  0  0  0
 38 43  2  0  0  0
 38 46  1  0  0  0
 38 47  1  0  0  0
 39 64  1  0  0  0
 39 67  2  0  0  0
 40 52  1  0  0  0
 40 53  2  0  0  0
 40 58  1  0  0  0
 41110  1  0  0  0
 41111  1  0  0  0
 41112  1  0  0  0
 41 48  1  0  0  0
 42 43  1  0  0  0
 42 66  1  0  0  0
 42113  1  0  0  0
 42114  1  0  0  0
 43 44  1  0  0  0
 44115  1  0  0  0
 45 46  2  0  0  0
 45116  1  0  0  0
 46117  1  0  0  0
 47118  1  0  0  0
 47119  1  0  0  0
 48 56  1  0  0  0
 48 65  1  0  0  0
 48120  1  0  0  0
 49 50  1  0  0  0
 49 53  1  0  0  0
 49 64  1  0  0  0
 49121  1  0  0  0
 50 51  1  0  0  0
 50122  1  0  0  0
 50123  1  0  0  0
 51 52  1  0  0  0
 51124  1  0  0  0
 51125  1  0  0  0
 52126  1  0  0  0
 52127  1  0  0  0
 53 54  1  0  0  0
 54 55  2  0  0  0
 54128  1  0  0  0
 55 57  1  0  0  0
 55129  1  0  0  0
 56 69  2  0  0  0
 57 58  2  0  0  0
 57130  1  0  0  0
 58131  1  0  0  0
 59 60  1  0  0  0
 59 61  1  0  0  0
 59 62  1  0  0  0
 60132  1  0  0  0
 60133  1  0  0  0
 60134  1  0  0  0
 61135  1  0  0  0
 61136  1  0  0  0
 61137  1  0  0  0
 62138  1  0  0  0
 62139  1  0  0  0
 62140  1  0  0  0
 63 65  1  0  0  0
 63141  1  0  0  0
 63142  1  0  0  0
 63143  1  0  0  0
 64144  1  0  0  0
 65145  1  0  0  0
 68 83  1  0  0  0
 71 72  2  0  0  0
 71 84  1  0  0  0
 71146  1  0  0  0
 72 85  1  0  0  0
 72 80  1  0  0  0
 73 84  1  0  0  0
 73 85  2  0  0  0
 73 81  1  0  0  0
 74 75  1  0  0  0
 74 80  1  0  0  0
 74147  1  0  0  0
 74148  1  0  0  0
 75 80  1  0  0  0
 75149  1  0  0  0
 75150  1  0  0  0
 76 78  1  0  0  0
 76 81  1  0  0  0
 76151  1  0  0  0
 76152  1  0  0  0
 77 79  1  0  0  0
 77 81  1  0  0  0
 77153  1  0  0  0
 77154  1  0  0  0
 78 86  1  0  0  0
 78155  1  0  0  0
 78156  1  0  0  0
 79 86  1  0  0  0
 79157  1  0  0  0
 79158  1  0  0  0
 80159  1  0  0  0
 81160  1  0  0  0
 82 83  1  0  0  0
 82 84  1  0  0  0
 82161  1  0  0  0
 82162  1  0  0  0
 83163  1  0  0  0
 83164  1  0  0  0
 85165  1  0  0  0
M  CHG  1  85   1
M  ISO  4   1 100  68 101  83 101  86 100
M  END
> <chiral flag>
0

> <version>
0

> <s_m_source_file>
/data/baiqing/PycharmProjects/Reinvent-master-3.2/result/LINK_invent/BTK/process_docking_weight1_custom_sum_contain_oxygen_bond_distance_aromatic_linkinvent_7_9_3/rearranged_h_0193.sdf

> <i_m_source_file_index>
95

> <r_mmod_Potential_Energy-OPLS-2005>
638.090698242188

> <r_mmod_Stretch_Energy-OPLS-2005>
211.000793457031

> <r_mmod_Bend_Energy-OPLS-2005>
314.512512207031

> <r_mmod_Torsional_Energy-OPLS-2005>
388.849792480469

> <r_mmod_Improper_Torsional_Energy-OPLS-2005>
3.44070982933044

> <r_mmod_Van_der_Waal_Energy-OPLS-2005>
129.710479736328

> <r_mmod_Electrostatic_Energy-OPLS-2005>
-148.064544677734

> <r_mmod_Solvation_Energy-OPLS-2005>
-413.542236328125

> <b_mmod_Minimization_Converged-OPLS-2005>
0

> <r_mmod_RMS_Derivative-OPLS-2005>
2.48005175590515

$$$$
95
                    3D
 Structure written by MMmdl.
160168  0  0  1  0            999 V2000
  -30.7027  -14.4709   20.6325 C   0  0  0  0  0  0
  -30.4399  -12.3392   19.4149 C   0  0  0  0  0  0
  -29.4963  -12.5110   18.2029 C   0  0  0  0  0  0
  -28.0243  -12.3493   18.6285 C   0  0  0  0  0  0
  -27.6649  -13.2033   19.8738 C   0  0  2  0  0  0
  -28.7001  -12.9795   20.9974 C   0  0  0  0  0  0
  -25.2604  -13.8147   20.5634 C   0  0  0  0  0  0
  -24.1849  -13.0421   20.9133 C   0  0  0  0  0  0
  -24.6395  -11.6894   20.8688 C   0  0  0  0  0  0
  -23.9073  -10.4269   21.0378 C   0  0  0  0  0  0
  -24.3620   -9.4195   21.9168 C   0  0  0  0  0  0
  -23.6275   -8.2245   22.0763 C   0  0  0  0  0  0
  -22.4250   -8.0294   21.3556 C   0  0  0  0  0  0
  -21.9885   -9.0275   20.4662 C   0  0  0  0  0  0
  -22.7240  -10.2129   20.3051 C   0  0  0  0  0  0
  -21.6845   -6.0720   22.5267 C   0  0  0  0  0  0
  -21.4019   -6.5630   23.8209 C   0  0  0  0  0  0
  -21.3642   -5.6789   24.9174 C   0  0  0  0  0  0
  -21.6034   -4.3055   24.7209 C   0  0  0  0  0  0
  -21.8834   -3.8144   23.4330 C   0  0  0  0  0  0
  -21.9193   -4.6951   22.3388 C   0  0  0  0  0  0
  -22.7898  -13.5271   21.1787 C   0  0  0  0  0  0
  -22.1667   -4.2154   21.0959 F   0  0  0  0  0  0
  -21.5612   -3.4529   25.7708 F   0  0  0  0  0  0
  -30.0377  -13.2967   20.4579 N   0  0  0  0  0  0
  -26.3026  -12.9300   20.3323 N   0  0  0  0  0  0
  -25.9308  -11.6463   20.5719 N   0  0  0  0  0  0
  -22.0524  -12.8280   22.0352 N   0  0  0  0  0  0
  -25.4407  -15.1850   20.4113 N   0  0  0  0  0  0
  -31.7872  -14.7182   20.0987 O   0  0  0  0  0  0
  -21.6649   -6.8860   21.4232 O   0  0  0  0  0  0
  -22.3608  -14.5597   20.6681 O   0  0  0  0  0  0
  -24.6123  -31.8684   23.2092 C   0  0  0  0  0  0
  -25.9017  -32.4830   23.8393 C   0  0  1  0  0  0
  -27.2398  -27.4377   20.1002 C   0  0  0  0  0  0
  -25.5877  -33.8619   24.2305 N   0  0  0  0  0  0
  -23.4039  -30.4899   21.5489 C   0  0  2  0  0  0
  -24.8556  -28.9513   20.1201 C   0  0  0  0  0  0
  -22.7420  -29.4654   22.4994 C   0  0  0  0  0  0
  -18.0294  -28.1368   22.8504 C   0  0  0  0  0  0
  -24.1495  -36.7310   23.2632 C   0  0  0  0  0  0
  -25.9310  -30.8313   21.3683 C   0  0  0  0  0  0
  -26.0126  -29.4624   20.7216 C   0  0  0  0  0  0
  -27.2105  -28.7108   20.7151 C   0  0  0  0  0  0
  -26.0724  -26.9431   19.4860 C   0  0  0  0  0  0
  -24.8764  -27.6860   19.5057 C   0  0  0  0  0  0
  -23.6177  -29.8181   20.1657 C   0  0  0  0  0  0
  -25.4106  -36.3099   24.0338 C   0  0  1  0  0  0
  -20.5875  -28.3647   23.1311 C   0  0  2  0  0  0
  -20.6765  -26.9377   22.5419 C   0  0  0  0  0  0
  -19.5737  -26.6377   21.5213 C   0  0  0  0  0  0
  -18.1927  -26.7923   22.1641 C   0  0  0  0  0  0
  -19.1541  -28.8832   23.2904 C   0  0  0  0  0  0
  -18.9452  -30.1442   23.8912 C   0  0  0  0  0  0
  -17.6447  -30.6566   24.0571 C   0  0  0  0  0  0
  -25.9025  -34.9466   23.5110 C   0  0  0  0  0  0
  -16.5342  -29.9061   23.6334 C   0  0  0  0  0  0
  -16.7288  -28.6485   23.0350 C   0  0  0  0  0  0
  -26.4452  -31.6615   25.0723 C   0  0  0  0  0  0
  -25.3737  -31.3733   26.1493 C   0  0  0  0  0  0
  -27.0256  -30.3049   24.6099 C   0  0  0  0  0  0
  -27.6024  -32.4332   25.7495 C   0  0  0  0  0  0
  -27.5583  -37.1805   24.8460 C   0  0  0  0  0  0
  -21.4152  -29.3019   22.3728 N   0  0  0  0  0  0
  -26.4294  -37.3778   23.9404 N   0  0  0  0  0  0
  -24.6663  -31.0783   22.1001 N   0  0  0  0  0  0
  -23.4189  -28.8187   23.3036 O   0  0  0  0  0  0
  -28.3904  -26.6840   20.0362 O   0  0  0  0  0  0
  -26.5584  -34.8903   22.4675 O   0  0  0  0  0  0
  -23.5307  -32.1431   23.7468 O   0  0  0  0  0  0
  -30.1033  -18.6055   19.5267 C   0  0  0  0  0  0
  -29.4962  -17.6998   20.5951 C   0  0  2  0  0  0
  -29.0499  -19.6263   19.9799 C   0  0  2  0  0  0
  -27.6873  -19.5567   19.2675 C   0  0  0  0  0  0
  -30.3796  -16.8221   21.5069 C   0  0  0  0  0  0
  -29.5288  -21.0960   20.1449 C   0  0  0  0  0  0
  -28.4977  -22.1504   20.6492 C   0  0  0  0  0  0
  -28.1862  -24.5642   21.3295 C   0  0  0  0  0  0
  -28.7570  -26.0087   21.2464 C   0  0  0  0  0  0
  -30.0475  -15.3965   21.3541 N   0  0  0  0  0  0
  -29.0682  -23.5286   20.7123 N   0  3  0  0  0  0
  -28.9427  -18.8924   21.2416 O   0  0  0  0  0  0
  -31.4782  -12.4746   19.1046 H   0  0  0  0  0  0
  -30.3759  -11.3251   19.8085 H   0  0  0  0  0  0
  -29.7458  -11.7753   17.4366 H   0  0  0  0  0  0
  -29.6504  -13.4904   17.7442 H   0  0  0  0  0  0
  -27.8611  -11.2927   18.8526 H   0  0  0  0  0  0
  -27.3631  -12.5877   17.7954 H   0  0  0  0  0  0
  -27.7176  -14.2511   19.5765 H   0  0  0  0  0  0
  -28.6776  -11.9383   21.3190 H   0  0  0  0  0  0
  -28.4339  -13.5584   21.8842 H   0  0  0  0  0  0
  -25.2766   -9.5651   22.4747 H   0  0  0  0  0  0
  -23.9967   -7.4636   22.7487 H   0  0  0  0  0  0
  -21.0813   -8.8831   19.8975 H   0  0  0  0  0  0
  -22.3735  -10.9682   19.6178 H   0  0  0  0  0  0
  -21.2051   -7.6154   23.9708 H   0  0  0  0  0  0
  -21.1431   -6.0517   25.9072 H   0  0  0  0  0  0
  -22.0623   -2.7602   23.2839 H   0  0  0  0  0  0
  -22.4166  -11.9991   22.4806 H   0  0  0  0  0  0
  -21.1157  -13.1375   22.2526 H   0  0  0  0  0  0
  -24.6841  -15.8500   20.5291 H   0  0  0  0  0  0
  -26.3046  -15.6169   20.1073 H   0  0  0  0  0  0
  -26.7105  -32.5565   23.1165 H   0  0  0  0  0  0
  -25.0087  -33.9808   25.0493 H   0  0  0  0  0  0
  -22.6908  -31.3030   21.4028 H   0  0  0  0  0  0
  -23.3745  -35.9660   23.3320 H   0  0  0  0  0  0
  -24.3585  -36.8906   22.2040 H   0  0  0  0  0  0
  -23.7262  -37.6527   23.6641 H   0  0  0  0  0  0
  -26.0421  -31.5972   20.5988 H   0  0  0  0  0  0
  -26.8158  -30.8855   21.9907 H   0  0  0  0  0  0
  -28.1115  -29.1056   21.1641 H   0  0  0  0  0  0
  -26.0900  -25.9809   18.9924 H   0  0  0  0  0  0
  -23.9863  -27.2862   19.0371 H   0  0  0  0  0  0
  -23.7258  -30.5868   19.3987 H   0  0  0  0  0  0
  -22.7438  -29.2352   19.8732 H   0  0  0  0  0  0
  -25.1287  -36.1960   25.0838 H   0  0  0  0  0  0
  -21.0002  -28.3216   24.1411 H   0  0  0  0  0  0
  -20.5635  -26.2262   23.3611 H   0  0  0  0  0  0
  -21.6633  -26.7391   22.1221 H   0  0  0  0  0  0
  -19.6869  -25.6281   21.1234 H   0  0  0  0  0  0
  -19.6663  -27.3212   20.6757 H   0  0  0  0  0  0
  -17.4194  -26.6706   21.4049 H   0  0  0  0  0  0
  -18.0300  -26.0047   22.9010 H   0  0  0  0  0  0
  -19.7920  -30.7269   24.2280 H   0  0  0  0  0  0
  -17.4988  -31.6250   24.5142 H   0  0  0  0  0  0
  -15.5332  -30.2943   23.7627 H   0  0  0  0  0  0
  -15.8714  -28.0794   22.7032 H   0  0  0  0  0  0
  -24.5913  -30.7055   25.7867 H   0  0  0  0  0  0
  -24.8915  -32.2897   26.4915 H   0  0  0  0  0  0
  -25.8109  -30.8948   27.0268 H   0  0  0  0  0  0
  -26.2791  -29.6857   24.1106 H   0  0  0  0  0  0
  -27.3966  -29.7234   25.4547 H   0  0  0  0  0  0
  -27.8664  -30.4338   23.9273 H   0  0  0  0  0  0
  -27.2640  -33.3622   26.2087 H   0  0  0  0  0  0
  -28.3844  -32.6910   25.0348 H   0  0  0  0  0  0
  -28.0690  -31.8452   26.5413 H   0  0  0  0  0  0
  -28.2599  -38.0098   24.7497 H   0  0  0  0  0  0
  -28.1080  -36.2626   24.6308 H   0  0  0  0  0  0
  -27.2306  -37.1496   25.8864 H   0  0  0  0  0  0
  -20.9287  -29.8751   21.6971 H   0  0  0  0  0  0
  -26.0188  -38.2864   24.1397 H   0  0  0  0  0  0
  -29.9946  -18.2472   18.5043 H   0  0  0  0  0  0
  -31.1265  -18.9156   19.7510 H   0  0  0  0  0  0
  -28.6828  -17.1102   20.1670 H   0  0  0  0  0  0
  -27.6958  -20.1246   18.3355 H   0  0  0  0  0  0
  -26.8785  -19.9419   19.8874 H   0  0  0  0  0  0
  -27.4048  -18.5372   19.0063 H   0  0  0  0  0  0
  -30.2235  -17.0869   22.5536 H   0  0  0  0  0  0
  -31.4388  -17.0063   21.3234 H   0  0  0  0  0  0
  -29.8807  -21.4380   19.1715 H   0  0  0  0  0  0
  -30.4058  -21.1209   20.7926 H   0  0  0  0  0  0
  -28.1176  -21.8507   21.6260 H   0  0  0  0  0  0
  -27.6391  -22.1816   19.9800 H   0  0  0  0  0  0
  -27.1855  -24.5325   20.9008 H   0  0  0  0  0  0
  -28.0713  -24.3076   22.3836 H   0  0  0  0  0  0
  -29.8451  -25.9969   21.3235 H   0  0  0  0  0  0
  -28.4174  -26.5855   22.1080 H   0  0  0  0  0  0
  -29.1687  -15.1007   21.7524 H   0  0  0  0  0  0
  -29.3048  -23.8197   19.7754 H   0  0  0  0  0  0
  -29.9264  -23.4905   21.2410 H   0  0  0  0  0  0
  1 25  1  0  0  0
  1 30  2  0  0  0
  1 80  1  0  0  0
  2  3  1  0  0  0
  2 25  1  0  0  0
  2 83  1  0  0  0
  2 84  1  0  0  0
  3  4  1  0  0  0
  3 85  1  0  0  0
  3 86  1  0  0  0
  4  5  1  0  0  0
  4 87  1  0  0  0
  4 88  1  0  0  0
  5  6  1  0  0  0
  5 26  1  0  0  0
  5 89  1  0  0  0
  6 25  1  0  0  0
  6 90  1  0  0  0
  6 91  1  0  0  0
  7  8  2  0  0  0
  7 26  1  0  0  0
  7 29  1  0  0  0
  8  9  1  0  0  0
  8 22  1  0  0  0
  9 10  1  0  0  0
  9 27  2  0  0  0
 10 11  2  0  0  0
 10 15  1  0  0  0
 11 12  1  0  0  0
 11 92  1  0  0  0
 12 13  2  0  0  0
 12 93  1  0  0  0
 13 14  1  0  0  0
 13 31  1  0  0  0
 14 15  2  0  0  0
 14 94  1  0  0  0
 15 95  1  0  0  0
 16 17  2  0  0  0
 16 21  1  0  0  0
 16 31  1  0  0  0
 17 18  1  0  0  0
 17 96  1  0  0  0
 18 19  2  0  0  0
 18 97  1  0  0  0
 19 20  1  0  0  0
 19 24  1  0  0  0
 20 21  2  0  0  0
 20 98  1  0  0  0
 21 23  1  0  0  0
 22 28  1  0  0  0
 22 32  2  0  0  0
 26 27  1  0  0  0
 28 99  1  0  0  0
 28100  1  0  0  0
 29101  1  0  0  0
 29102  1  0  0  0
 33 34  1  0  0  0
 33 66  1  0  0  0
 33 70  2  0  0  0
 34 36  1  0  0  0
 34 59  1  0  0  0
 34103  1  0  0  0
 35 44  2  0  0  0
 35 45  1  0  0  0
 35 68  1  0  0  0
 36 56  1  0  0  0
 36104  1  0  0  0
 37 39  1  0  0  0
 37 47  1  0  0  0
 37 66  1  0  0  0
 37105  1  0  0  0
 38 43  2  0  0  0
 38 46  1  0  0  0
 38 47  1  0  0  0
 39 64  1  0  0  0
 39 67  2  0  0  0
 40 52  1  0  0  0
 40 53  2  0  0  0
 40 58  1  0  0  0
 41106  1  0  0  0
 41107  1  0  0  0
 41108  1  0  0  0
 41 48  1  0  0  0
 42 43  1  0  0  0
 42 66  1  0  0  0
 42109  1  0  0  0
 42110  1  0  0  0
 43 44  1  0  0  0
 44111  1  0  0  0
 45 46  2  0  0  0
 45112  1  0  0  0
 46113  1  0  0  0
 47114  1  0  0  0
 47115  1  0  0  0
 48 56  1  0  0  0
 48 65  1  0  0  0
 48116  1  0  0  0
 49 50  1  0  0  0
 49 53  1  0  0  0
 49 64  1  0  0  0
 49117  1  0  0  0
 50 51  1  0  0  0
 50118  1  0  0  0
 50119  1  0  0  0
 51 52  1  0  0  0
 51120  1  0  0  0
 51121  1  0  0  0
 52122  1  0  0  0
 52123  1  0  0  0
 53 54  1  0  0  0
 54 55  2  0  0  0
 54124  1  0  0  0
 55 57  1  0  0  0
 55125  1  0  0  0
 56 69  2  0  0  0
 57 58  2  0  0  0
 57126  1  0  0  0
 58127  1  0  0  0
 59 60  1  0  0  0
 59 61  1  0  0  0
 59 62  1  0  0  0
 60128  1  0  0  0
 60129  1  0  0  0
 60130  1  0  0  0
 61131  1  0  0  0
 61132  1  0  0  0
 61133  1  0  0  0
 62134  1  0  0  0
 62135  1  0  0  0
 62136  1  0  0  0
 63 65  1  0  0  0
 63137  1  0  0  0
 63138  1  0  0  0
 63139  1  0  0  0
 64140  1  0  0  0
 65141  1  0  0  0
 68 79  1  0  0  0
 71 72  1  0  0  0
 71 73  1  0  0  0
 71142  1  0  0  0
 71143  1  0  0  0
 72 75  1  0  0  0
 72 82  1  0  0  0
 72144  1  0  0  0
 73 74  1  0  0  0
 73 76  1  0  0  0
 73 82  1  0  0  0
 74145  1  0  0  0
 74146  1  0  0  0
 74147  1  0  0  0
 75 80  1  0  0  0
 75148  1  0  0  0
 75149  1  0  0  0
 76 77  1  0  0  0
 76150  1  0  0  0
 76151  1  0  0  0
 77 81  1  0  0  0
 77152  1  0  0  0
 77153  1  0  0  0
 78 79  1  0  0  0
 78 81  1  0  0  0
 78154  1  0  0  0
 78155  1  0  0  0
 79156  1  0  0  0
 79157  1  0  0  0
 80158  1  0  0  0
 81159  1  0  0  0
 81160  1  0  0  0
M  CHG  1  81   1
M  ISO  4   1 100  68 101  79 101  80 100
M  END
> <chiral flag>
0

> <version>
0

> <s_m_source_file>
/data/baiqing/PycharmProjects/Reinvent-master-3.2/result/LINK_invent/BTK/process_docking_weight1_custom_sum_contain_oxygen_bond_distance_aromatic_linkinvent_7_9_3/rearranged_h_0193.sdf

> <i_m_source_file_index>
96

> <r_mmod_Potential_Energy-OPLS-2005>
-258.566009521484

> <r_mmod_Stretch_Energy-OPLS-2005>
38.4304161071777

> <r_mmod_Bend_Energy-OPLS-2005>
111.904747009277

> <r_mmod_Torsional_Energy-OPLS-2005>
252.05891418457

> <r_mmod_Improper_Torsional_Energy-OPLS-2005>
2.58530068397522

> <r_mmod_Van_der_Waal_Energy-OPLS-2005>
128.769683837891

> <r_mmod_Electrostatic_Energy-OPLS-2005>
-355.14013671875

> <r_mmod_Solvation_Energy-OPLS-2005>
-448.629028320312

> <b_mmod_Minimization_Converged-OPLS-2005>
0

> <r_mmod_RMS_Derivative-OPLS-2005>
4.08524560928345

$$$$
96
                    3D
 Structure written by MMmdl.
161170  0  0  1  0            999 V2000
  -30.6790  -14.5676   20.5170 C   0  0  0  0  0  0
  -30.4244  -12.3531   19.4475 C   0  0  0  0  0  0
  -29.5040  -12.4987   18.2179 C   0  0  0  0  0  0
  -28.0249  -12.3543   18.6272 C   0  0  0  0  0  0
  -27.6536  -13.2193   19.8627 C   0  0  2  0  0  0
  -28.6965  -13.0708   20.9920 C   0  0  0  0  0  0
  -25.2557  -13.8181   20.5708 C   0  0  0  0  0  0
  -24.1827  -13.0438   20.9205 C   0  0  0  0  0  0
  -24.6397  -11.6914   20.8741 C   0  0  0  0  0  0
  -23.9068  -10.4293   21.0406 C   0  0  0  0  0  0
  -24.3619   -9.4206   21.9181 C   0  0  0  0  0  0
  -23.6296   -8.2243   22.0745 C   0  0  0  0  0  0
  -22.4276   -8.0282   21.3539 C   0  0  0  0  0  0
  -21.9915   -9.0255   20.4639 C   0  0  0  0  0  0
  -22.7248  -10.2132   20.3049 C   0  0  0  0  0  0
  -21.6846   -6.0754   22.5284 C   0  0  0  0  0  0
  -21.4006   -6.5650   23.8216 C   0  0  0  0  0  0
  -21.3661   -5.6796   24.9178 C   0  0  0  0  0  0
  -21.6049   -4.3063   24.7227 C   0  0  0  0  0  0
  -21.8812   -3.8167   23.4345 C   0  0  0  0  0  0
  -21.9198   -4.6985   22.3405 C   0  0  0  0  0  0
  -22.7850  -13.5233   21.1884 C   0  0  0  0  0  0
  -22.1669   -4.2175   21.0979 F   0  0  0  0  0  0
  -21.5632   -3.4540   25.7736 F   0  0  0  0  0  0
  -30.0159  -13.3782   20.4247 N   0  0  0  0  0  0
  -26.2989  -12.9373   20.3313 N   0  0  0  0  0  0
  -25.9324  -11.6523   20.5742 N   0  0  0  0  0  0
  -22.0466  -12.8222   22.0423 N   0  0  0  0  0  0
  -25.4263  -15.1905   20.4134 N   0  0  0  0  0  0
  -31.8426  -14.6934   20.1284 O   0  0  0  0  0  0
  -21.6627   -6.8888   21.4242 O   0  0  0  0  0  0
  -22.3542  -14.5548   20.6743 O   0  0  0  0  0  0
  -24.6234  -31.8638   23.2087 C   0  0  0  0  0  0
  -25.9103  -32.4796   23.8392 C   0  0  1  0  0  0
  -27.2111  -27.3505   20.0877 C   0  0  0  0  0  0
  -25.5927  -33.8598   24.2304 N   0  0  0  0  0  0
  -23.4120  -30.4929   21.5535 C   0  0  2  0  0  0
  -24.8503  -28.9586   20.1126 C   0  0  0  0  0  0
  -22.7449  -29.4645   22.4983 C   0  0  0  0  0  0
  -18.0273  -28.1380   22.8487 C   0  0  0  0  0  0
  -24.1488  -36.7296   23.2632 C   0  0  0  0  0  0
  -25.9526  -30.8037   21.3747 C   0  0  0  0  0  0
  -26.0210  -29.4362   20.7120 C   0  0  0  0  0  0
  -27.2012  -28.6410   20.6949 C   0  0  0  0  0  0
  -26.0016  -26.9114   19.4932 C   0  0  0  0  0  0
  -24.8402  -27.6993   19.5013 C   0  0  0  0  0  0
  -23.6203  -29.8366   20.1656 C   0  0  0  0  0  0
  -25.4106  -36.3092   24.0333 C   0  0  1  0  0  0
  -20.5866  -28.3664   23.1314 C   0  0  2  0  0  0
  -20.6766  -26.9400   22.5413 C   0  0  0  0  0  0
  -19.5747  -26.6381   21.5207 C   0  0  0  0  0  0
  -18.1923  -26.7924   22.1618 C   0  0  0  0  0  0
  -19.1524  -28.8842   23.2890 C   0  0  0  0  0  0
  -18.9453  -30.1451   23.8896 C   0  0  0  0  0  0
  -17.6456  -30.6589   24.0558 C   0  0  0  0  0  0
  -25.9048  -34.9463   23.5116 C   0  0  0  0  0  0
  -16.5344  -29.9087   23.6339 C   0  0  0  0  0  0
  -16.7259  -28.6503   23.0358 C   0  0  0  0  0  0
  -26.4491  -31.6594   25.0752 C   0  0  0  0  0  0
  -25.3737  -31.3727   26.1489 C   0  0  0  0  0  0
  -27.0313  -30.3019   24.6183 C   0  0  0  0  0  0
  -27.6066  -32.4301   25.7524 C   0  0  0  0  0  0
  -27.5593  -37.1787   24.8445 C   0  0  0  0  0  0
  -21.4166  -29.3032   22.3723 N   0  0  0  0  0  0
  -26.4276  -37.3797   23.9434 N   0  0  0  0  0  0
  -24.6818  -31.0684   22.1026 N   0  0  0  0  0  0
  -23.4198  -28.8168   23.3027 O   0  0  0  0  0  0
  -28.3612  -26.5543   20.1351 O   0  0  0  0  0  0
  -26.5626  -34.8926   22.4685 O   0  0  0  0  0  0
  -23.5406  -32.1421   23.7442 O   0  0  0  0  0  0
  -28.4310  -22.7109   20.0498 C   0  0  0  0  0  0
  -29.1826  -21.6162   20.5809 C   0  0  0  0  0  0
  -28.9951  -24.0230   20.1454 C   0  0  0  0  0  0
  -30.7944  -23.1121   21.2532 C   0  0  0  0  0  0
  -29.6105  -16.7160   19.8646 C   0  0  0  0  0  0
  -30.5543  -16.7829   21.6529 C   0  0  0  0  0  0
  -29.4964  -17.7050   21.0322 C   0  0  0  0  0  0
  -27.0729  -22.4909   19.3878 C   0  0  0  0  0  0
  -32.1374  -23.3448   21.9097 C   0  0  0  0  0  0
  -28.7536  -20.1216   20.5146 C   0  0  0  0  0  0
  -28.4449  -25.2817   19.4039 C   0  0  0  0  0  0
  -30.3674  -21.8521   21.1804 N   0  0  0  0  0  0
  -30.1782  -24.1845   20.7682 N   0  0  0  0  0  0
  -29.9477  -15.6684   20.8730 N   0  0  0  0  0  0
  -29.8575  -19.1585   20.8139 N   0  3  0  0  0  0
  -31.4712  -12.4505   19.1523 H   0  0  0  0  0  0
  -30.3292  -11.3582   19.8848 H   0  0  0  0  0  0
  -29.7575  -11.7490   17.4669 H   0  0  0  0  0  0
  -29.6625  -13.4701   17.7479 H   0  0  0  0  0  0
  -27.8480  -11.3013   18.8491 H   0  0  0  0  0  0
  -27.3753  -12.6017   17.7872 H   0  0  0  0  0  0
  -27.6765  -14.2557   19.5295 H   0  0  0  0  0  0
  -28.6870  -12.0569   21.3938 H   0  0  0  0  0  0
  -28.4569  -13.7294   21.8281 H   0  0  0  0  0  0
  -25.2757   -9.5705   22.4757 H   0  0  0  0  0  0
  -24.0022   -7.4632   22.7453 H   0  0  0  0  0  0
  -21.0854   -8.8785   19.8928 H   0  0  0  0  0  0
  -22.3718  -10.9673   19.6164 H   0  0  0  0  0  0
  -21.1975   -7.6157   23.9731 H   0  0  0  0  0  0
  -21.1494   -6.0525   25.9086 H   0  0  0  0  0  0
  -22.0593   -2.7630   23.2829 H   0  0  0  0  0  0
  -22.4034  -11.9851   22.4791 H   0  0  0  0  0  0
  -21.1092  -13.1282   22.2607 H   0  0  0  0  0  0
  -24.6604  -15.8465   20.5222 H   0  0  0  0  0  0
  -26.2886  -15.6289   20.1157 H   0  0  0  0  0  0
  -26.7169  -32.5472   23.1140 H   0  0  0  0  0  0
  -25.0052  -33.9740   25.0434 H   0  0  0  0  0  0
  -22.7040  -31.3133   21.4201 H   0  0  0  0  0  0
  -23.3774  -35.9601   23.3238 H   0  0  0  0  0  0
  -24.3601  -36.8978   22.2061 H   0  0  0  0  0  0
  -23.7210  -37.6468   23.6689 H   0  0  0  0  0  0
  -26.0822  -31.5727   20.6116 H   0  0  0  0  0  0
  -26.8348  -30.8462   22.0020 H   0  0  0  0  0  0
  -28.1025  -29.0054   21.1676 H   0  0  0  0  0  0
  -25.8713  -25.9487   19.0315 H   0  0  0  0  0  0
  -23.9350  -27.3217   19.0457 H   0  0  0  0  0  0
  -23.7381  -30.6168   19.4127 H   0  0  0  0  0  0
  -22.7390  -29.2676   19.8644 H   0  0  0  0  0  0
  -25.1270  -36.1939   25.0822 H   0  0  0  0  0  0
  -20.9946  -28.3220   24.1438 H   0  0  0  0  0  0
  -20.5677  -26.2258   23.3589 H   0  0  0  0  0  0
  -21.6642  -26.7452   22.1213 H   0  0  0  0  0  0
  -19.6913  -25.6294   21.1233 H   0  0  0  0  0  0
  -19.6697  -27.3191   20.6738 H   0  0  0  0  0  0
  -17.4195  -26.6673   21.4017 H   0  0  0  0  0  0
  -18.0326  -26.0069   22.9018 H   0  0  0  0  0  0
  -19.7930  -30.7265   24.2266 H   0  0  0  0  0  0
  -17.5016  -31.6277   24.5150 H   0  0  0  0  0  0
  -15.5348  -30.2989   23.7675 H   0  0  0  0  0  0
  -15.8658  -28.0827   22.7078 H   0  0  0  0  0  0
  -24.5906  -30.7074   25.7834 H   0  0  0  0  0  0
  -24.8929  -32.2889   26.4931 H   0  0  0  0  0  0
  -25.8076  -30.8905   27.0259 H   0  0  0  0  0  0
  -26.2876  -29.6796   24.1193 H   0  0  0  0  0  0
  -27.3996  -29.7250   25.4678 H   0  0  0  0  0  0
  -27.8757  -30.4300   23.9405 H   0  0  0  0  0  0
  -27.2701  -33.3605   26.2111 H   0  0  0  0  0  0
  -28.3891  -32.6848   25.0364 H   0  0  0  0  0  0
  -28.0718  -31.8413   26.5440 H   0  0  0  0  0  0
  -28.2533  -38.0162   24.7616 H   0  0  0  0  0  0
  -28.1165  -36.2704   24.6097 H   0  0  0  0  0  0
  -27.2335  -37.1233   25.8848 H   0  0  0  0  0  0
  -20.9322  -29.8763   21.6956 H   0  0  0  0  0  0
  -26.0148  -38.2851   24.1520 H   0  0  0  0  0  0
  -30.4122  -16.9387   19.1555 H   0  0  0  0  0  0
  -28.6668  -16.5561   19.3429 H   0  0  0  0  0  0
  -30.4600  -16.6829   22.7353 H   0  0  0  0  0  0
  -31.5836  -17.0270   21.3739 H   0  0  0  0  0  0
  -28.5438  -17.6096   21.5593 H   0  0  0  0  0  0
  -26.6411  -21.5166   19.6178 H   0  0  0  0  0  0
  -27.1510  -22.5748   18.3026 H   0  0  0  0  0  0
  -26.3513  -23.2324   19.7369 H   0  0  0  0  0  0
  -32.5908  -22.4074   22.2328 H   0  0  0  0  0  0
  -32.0323  -23.9890   22.7824 H   0  0  0  0  0  0
  -32.8203  -23.8236   21.2078 H   0  0  0  0  0  0
  -28.3564  -19.8982   19.5254 H   0  0  0  0  0  0
  -27.9438  -19.9722   21.2291 H   0  0  0  0  0  0
  -27.5676  -24.9936   18.8446 H   0  0  0  0  0  0
  -29.1633  -25.4740   18.6076 H   0  0  0  0  0  0
  -30.5513  -19.2691   20.0955 H   0  0  0  0  0  0
  -30.2703  -19.5506   21.6466 H   0  0  0  0  0  0
  1 25  1  0  0  0
  1 30  2  0  0  0
  1 84  1  0  0  0
  2  3  1  0  0  0
  2 25  1  0  0  0
  2 86  1  0  0  0
  2 87  1  0  0  0
  3  4  1  0  0  0
  3 88  1  0  0  0
  3 89  1  0  0  0
  4  5  1  0  0  0
  4 90  1  0  0  0
  4 91  1  0  0  0
  5  6  1  0  0  0
  5 26  1  0  0  0
  5 92  1  0  0  0
  6 25  1  0  0  0
  6 93  1  0  0  0
  6 94  1  0  0  0
  7  8  2  0  0  0
  7 26  1  0  0  0
  7 29  1  0  0  0
  8  9  1  0  0  0
  8 22  1  0  0  0
  9 10  1  0  0  0
  9 27  2  0  0  0
 10 11  2  0  0  0
 10 15  1  0  0  0
 11 12  1  0  0  0
 11 95  1  0  0  0
 12 13  2  0  0  0
 12 96  1  0  0  0
 13 14  1  0  0  0
 13 31  1  0  0  0
 14 15  2  0  0  0
 14 97  1  0  0  0
 15 98  1  0  0  0
 16 17  2  0  0  0
 16 21  1  0  0  0
 16 31  1  0  0  0
 17 18  1  0  0  0
 17 99  1  0  0  0
 18 19  2  0  0  0
 18100  1  0  0  0
 19 20  1  0  0  0
 19 24  1  0  0  0
 20 21  2  0  0  0
 20101  1  0  0  0
 21 23  1  0  0  0
 22 28  1  0  0  0
 22 32  2  0  0  0
 26 27  1  0  0  0
 28102  1  0  0  0
 28103  1  0  0  0
 29104  1  0  0  0
 29105  1  0  0  0
 33 34  1  0  0  0
 33 66  1  0  0  0
 33 70  2  0  0  0
 34 36  1  0  0  0
 34 59  1  0  0  0
 34106  1  0  0  0
 35 44  2  0  0  0
 35 45  1  0  0  0
 35 68  1  0  0  0
 36 56  1  0  0  0
 36107  1  0  0  0
 37 39  1  0  0  0
 37 47  1  0  0  0
 37 66  1  0  0  0
 37108  1  0  0  0
 38 43  2  0  0  0
 38 46  1  0  0  0
 38 47  1  0  0  0
 39 64  1  0  0  0
 39 67  2  0  0  0
 40 52  1  0  0  0
 40 53  2  0  0  0
 40 58  1  0  0  0
 41109  1  0  0  0
 41110  1  0  0  0
 41111  1  0  0  0
 41 48  1  0  0  0
 42 43  1  0  0  0
 42 66  1  0  0  0
 42112  1  0  0  0
 42113  1  0  0  0
 43 44  1  0  0  0
 44114  1  0  0  0
 45 46  2  0  0  0
 45115  1  0  0  0
 46116  1  0  0  0
 47117  1  0  0  0
 47118  1  0  0  0
 48 56  1  0  0  0
 48 65  1  0  0  0
 48119  1  0  0  0
 49 50  1  0  0  0
 49 53  1  0  0  0
 49 64  1  0  0  0
 49120  1  0  0  0
 50 51  1  0  0  0
 50121  1  0  0  0
 50122  1  0  0  0
 51 52  1  0  0  0
 51123  1  0  0  0
 51124  1  0  0  0
 52125  1  0  0  0
 52126  1  0  0  0
 53 54  1  0  0  0
 54 55  2  0  0  0
 54127  1  0  0  0
 55 57  1  0  0  0
 55128  1  0  0  0
 56 69  2  0  0  0
 57 58  2  0  0  0
 57129  1  0  0  0
 58130  1  0  0  0
 59 60  1  0  0  0
 59 61  1  0  0  0
 59 62  1  0  0  0
 60131  1  0  0  0
 60132  1  0  0  0
 60133  1  0  0  0
 61134  1  0  0  0
 61135  1  0  0  0
 61136  1  0  0  0
 62137  1  0  0  0
 62138  1  0  0  0
 62139  1  0  0  0
 63 65  1  0  0  0
 63140  1  0  0  0
 63141  1  0  0  0
 63142  1  0  0  0
 64143  1  0  0  0
 65144  1  0  0  0
 68 81  1  0  0  0
 71 72  2  0  0  0
 71 73  1  0  0  0
 71 78  1  0  0  0
 72 80  1  0  0  0
 72 82  1  0  0  0
 73 81  1  0  0  0
 73 83  2  0  0  0
 74 79  1  0  0  0
 74 82  2  0  0  0
 74 83  1  0  0  0
 75 77  1  0  0  0
 75 84  1  0  0  0
 75145  1  0  0  0
 75146  1  0  0  0
 76 77  1  0  0  0
 76 84  1  0  0  0
 76147  1  0  0  0
 76148  1  0  0  0
 77 85  1  0  0  0
 77149  1  0  0  0
 78150  1  0  0  0
 78151  1  0  0  0
 78152  1  0  0  0
 79153  1  0  0  0
 79154  1  0  0  0
 79155  1  0  0  0
 80 85  1  0  0  0
 80156  1  0  0  0
 80157  1  0  0  0
 81158  1  0  0  0
 81159  1  0  0  0
 85160  1  0  0  0
 85161  1  0  0  0
M  CHG  1  85   1
M  ISO  4   1 100  68 101  81 101  84 100
M  END
> <chiral flag>
0

> <version>
0

> <s_m_source_file>
/data/baiqing/PycharmProjects/Reinvent-master-3.2/result/LINK_invent/BTK/process_docking_weight1_custom_sum_contain_oxygen_bond_distance_aromatic_linkinvent_7_9_3/rearranged_h_0193.sdf

> <i_m_source_file_index>
97

> <r_mmod_Potential_Energy-OPLS-2005>
-583.082214355469

> <r_mmod_Stretch_Energy-OPLS-2005>
61.4410591125488

> <r_mmod_Bend_Energy-OPLS-2005>
147.508438110352

> <r_mmod_Torsional_Energy-OPLS-2005>
281.316284179688

> <r_mmod_Improper_Torsional_Energy-OPLS-2005>
12.6614599227905

> <r_mmod_Van_der_Waal_Energy-OPLS-2005>
163.498504638672

> <r_mmod_Electrostatic_Energy-OPLS-2005>
-785.47998046875

> <r_mmod_Solvation_Energy-OPLS-2005>
-496.7578125

> <b_mmod_Minimization_Converged-OPLS-2005>
0

> <r_mmod_RMS_Derivative-OPLS-2005>
1.78889119625092

$$$$
97
                    3D
 Structure written by MMmdl.
155164  0  0  1  0            999 V2000
  -30.6285  -14.8224   20.4653 C   0  0  0  0  0  0
  -30.4291  -12.5117   19.4857 C   0  0  0  0  0  0
  -29.5102  -12.5271   18.2448 C   0  0  0  0  0  0
  -28.0397  -12.3383   18.6594 C   0  0  0  0  0  0
  -27.6374  -13.2425   19.8549 C   0  0  2  0  0  0
  -28.6863  -13.1990   20.9867 C   0  0  0  0  0  0
  -25.2469  -13.8206   20.5697 C   0  0  0  0  0  0
  -24.1786  -13.0426   20.9215 C   0  0  0  0  0  0
  -24.6402  -11.6915   20.8759 C   0  0  0  0  0  0
  -23.9083  -10.4290   21.0420 C   0  0  0  0  0  0
  -24.3626   -9.4203   21.9196 C   0  0  0  0  0  0
  -23.6295   -8.2242   22.0766 C   0  0  0  0  0  0
  -22.4280   -8.0286   21.3545 C   0  0  0  0  0  0
  -21.9918   -9.0263   20.4648 C   0  0  0  0  0  0
  -22.7254  -10.2138   20.3066 C   0  0  0  0  0  0
  -21.6858   -6.0739   22.5280 C   0  0  0  0  0  0
  -21.4015   -6.5645   23.8209 C   0  0  0  0  0  0
  -21.3659   -5.6797   24.9169 C   0  0  0  0  0  0
  -21.6048   -4.3062   24.7218 C   0  0  0  0  0  0
  -21.8819   -3.8157   23.4340 C   0  0  0  0  0  0
  -21.9193   -4.6969   22.3397 C   0  0  0  0  0  0
  -22.7810  -13.5192   21.1875 C   0  0  0  0  0  0
  -22.1663   -4.2157   21.0974 F   0  0  0  0  0  0
  -21.5627   -3.4544   25.7731 F   0  0  0  0  0  0
  -29.9705  -13.6000   20.3939 N   0  0  0  0  0  0
  -26.2923  -12.9442   20.3334 N   0  0  0  0  0  0
  -25.9347  -11.6573   20.5809 N   0  0  0  0  0  0
  -22.0473  -12.8174   22.0430 N   0  0  0  0  0  0
  -25.4096  -15.1929   20.4052 N   0  0  0  0  0  0
  -31.8145  -14.8480   20.1218 O   0  0  0  0  0  0
  -21.6642   -6.8884   21.4246 O   0  0  0  0  0  0
  -22.3484  -14.5494   20.6726 O   0  0  0  0  0  0
  -24.6382  -31.8512   23.1967 C   0  0  0  0  0  0
  -25.9174  -32.4745   23.8338 C   0  0  1  0  0  0
  -27.2153  -27.1991   20.1306 C   0  0  0  0  0  0
  -25.5950  -33.8551   24.2249 N   0  0  0  0  0  0
  -23.4394  -30.4737   21.5423 C   0  0  2  0  0  0
  -24.8891  -28.9214   20.1125 C   0  0  0  0  0  0
  -22.7535  -29.4571   22.4888 C   0  0  0  0  0  0
  -18.0290  -28.1396   22.8482 C   0  0  0  0  0  0
  -24.1489  -36.7259   23.2637 C   0  0  0  0  0  0
  -25.9936  -30.7446   21.3906 C   0  0  0  0  0  0
  -26.0664  -29.3635   20.7292 C   0  0  0  0  0  0
  -27.2322  -28.5157   20.7283 C   0  0  0  0  0  0
  -26.0103  -26.8581   19.4685 C   0  0  0  0  0  0
  -24.8693  -27.6791   19.4709 C   0  0  0  0  0  0
  -23.6638  -29.8135   20.1592 C   0  0  0  0  0  0
  -25.4118  -36.3058   24.0320 C   0  0  1  0  0  0
  -20.5901  -28.3712   23.1253 C   0  0  2  0  0  0
  -20.6780  -26.9426   22.5403 C   0  0  0  0  0  0
  -19.5760  -26.6385   21.5212 C   0  0  0  0  0  0
  -18.1937  -26.7937   22.1619 C   0  0  0  0  0  0
  -19.1548  -28.8874   23.2855 C   0  0  0  0  0  0
  -18.9469  -30.1468   23.8885 C   0  0  0  0  0  0
  -17.6469  -30.6600   24.0560 C   0  0  0  0  0  0
  -25.9062  -34.9433   23.5086 C   0  0  0  0  0  0
  -16.5356  -29.9096   23.6337 C   0  0  0  0  0  0
  -16.7273  -28.6507   23.0367 C   0  0  0  0  0  0
  -26.4520  -31.6584   25.0744 C   0  0  0  0  0  0
  -25.3712  -31.3758   26.1436 C   0  0  0  0  0  0
  -27.0377  -30.2991   24.6280 C   0  0  0  0  0  0
  -27.6066  -32.4327   25.7526 C   0  0  0  0  0  0
  -27.5576  -37.1782   24.8462 C   0  0  0  0  0  0
  -21.4235  -29.3048   22.3636 N   0  0  0  0  0  0
  -26.4286  -37.3765   23.9408 N   0  0  0  0  0  0
  -24.7097  -31.0413   22.0994 N   0  0  0  0  0  0
  -23.4197  -28.8101   23.3015 O   0  0  0  0  0  0
  -28.2613  -26.2207   20.2090 O   0  0  0  0  0  0
  -26.5638  -34.8910   22.4656 O   0  0  0  0  0  0
  -23.5503  -32.1366   23.7204 O   0  0  0  0  0  0
  -28.8357  -23.5282   20.2768 C   0  0  0  0  0  0
  -29.5951  -21.4689   20.4699 C   0  0  0  0  0  0
  -28.8707  -17.9832   21.6947 C   0  0  0  0  0  0
  -28.8898  -16.4277   21.5235 C   0  0  0  0  0  0
  -30.3927  -17.4027   20.0095 C   0  0  0  0  0  0
  -29.3879  -18.6015   20.3913 C   0  0  2  0  0  0
  -31.9423  -22.1222   21.1667 C   0  0  0  0  0  0
  -27.8749  -24.7627   19.9406 C   0  0  0  0  0  0
  -28.4669  -22.1631   20.1576 N   0  0  0  0  0  0
  -30.1095  -23.6567   20.6539 N   0  0  0  0  0  0
  -30.5660  -22.3605   20.7700 N   0  0  0  0  0  0
  -29.9355  -16.0537   20.5571 N   0  0  0  0  0  0
  -29.9110  -20.0356   20.5142 N   0  0  0  0  0  0
  -31.4697  -12.6299   19.1781 H   0  0  0  0  0  0
  -30.3850  -11.5432   19.9870 H   0  0  0  0  0  0
  -29.8014  -11.7483   17.5381 H   0  0  0  0  0  0
  -29.6260  -13.4766   17.7194 H   0  0  0  0  0  0
  -27.9047  -11.2906   18.9306 H   0  0  0  0  0  0
  -27.3828  -12.5185   17.8074 H   0  0  0  0  0  0
  -27.6230  -14.2618   19.4694 H   0  0  0  0  0  0
  -28.7530  -12.1966   21.4134 H   0  0  0  0  0  0
  -28.3979  -13.8477   21.8111 H   0  0  0  0  0  0
  -25.2773   -9.5673   22.4768 H   0  0  0  0  0  0
  -24.0003   -7.4630   22.7482 H   0  0  0  0  0  0
  -21.0855   -8.8784   19.8939 H   0  0  0  0  0  0
  -22.3723  -10.9682   19.6175 H   0  0  0  0  0  0
  -21.2010   -7.6152   23.9705 H   0  0  0  0  0  0
  -21.1479   -6.0534   25.9068 H   0  0  0  0  0  0
  -22.0597   -2.7620   23.2839 H   0  0  0  0  0  0
  -22.4117  -11.9819   22.4767 H   0  0  0  0  0  0
  -21.1103  -13.1212   22.2678 H   0  0  0  0  0  0
  -24.6399  -15.8441   20.5104 H   0  0  0  0  0  0
  -26.2525  -15.6309   20.0591 H   0  0  0  0  0  0
  -26.7240  -32.5386   23.1073 H   0  0  0  0  0  0
  -25.0097  -33.9704   25.0395 H   0  0  0  0  0  0
  -22.7389  -31.2978   21.3928 H   0  0  0  0  0  0
  -23.3771  -35.9571   23.3294 H   0  0  0  0  0  0
  -24.3564  -36.8895   22.2050 H   0  0  0  0  0  0
  -23.7232  -37.6449   23.6673 H   0  0  0  0  0  0
  -26.1391  -31.5031   20.6202 H   0  0  0  0  0  0
  -26.8680  -30.7941   22.0282 H   0  0  0  0  0  0
  -28.1270  -28.8442   21.2393 H   0  0  0  0  0  0
  -25.8910  -25.9186   18.9531 H   0  0  0  0  0  0
  -23.9700  -27.3362   18.9778 H   0  0  0  0  0  0
  -23.7978  -30.5927   19.4086 H   0  0  0  0  0  0
  -22.7826  -29.2512   19.8464 H   0  0  0  0  0  0
  -25.1310  -36.1897   25.0819 H   0  0  0  0  0  0
  -20.9974  -28.3292   24.1380 H   0  0  0  0  0  0
  -20.5688  -26.2321   23.3606 H   0  0  0  0  0  0
  -21.6646  -26.7451   22.1197 H   0  0  0  0  0  0
  -19.6928  -25.6290   21.1265 H   0  0  0  0  0  0
  -19.6721  -27.3178   20.6732 H   0  0  0  0  0  0
  -17.4206  -26.6674   21.4021 H   0  0  0  0  0  0
  -18.0348  -26.0085   22.9027 H   0  0  0  0  0  0
  -19.7944  -30.7288   24.2253 H   0  0  0  0  0  0
  -17.5023  -31.6284   24.5159 H   0  0  0  0  0  0
  -15.5357  -30.2999   23.7675 H   0  0  0  0  0  0
  -15.8663  -28.0824   22.7102 H   0  0  0  0  0  0
  -24.5905  -30.7099   25.7741 H   0  0  0  0  0  0
  -24.8887  -32.2939   26.4800 H   0  0  0  0  0  0
  -25.7993  -30.8967   27.0251 H   0  0  0  0  0  0
  -26.2989  -29.6728   24.1269 H   0  0  0  0  0  0
  -27.3994  -29.7274   25.4837 H   0  0  0  0  0  0
  -27.8898  -30.4251   23.9595 H   0  0  0  0  0  0
  -27.2685  -33.3643   26.2077 H   0  0  0  0  0  0
  -28.3901  -32.6856   25.0369 H   0  0  0  0  0  0
  -28.0707  -31.8465   26.5468 H   0  0  0  0  0  0
  -28.2579  -38.0092   24.7521 H   0  0  0  0  0  0
  -28.1089  -36.2620   24.6282 H   0  0  0  0  0  0
  -27.2283  -37.1419   25.8861 H   0  0  0  0  0  0
  -20.9420  -29.8769   21.6838 H   0  0  0  0  0  0
  -26.0158  -38.2830   24.1442 H   0  0  0  0  0  0
  -29.5437  -18.2511   22.5119 H   0  0  0  0  0  0
  -27.8808  -18.3543   21.9640 H   0  0  0  0  0  0
  -29.0516  -15.9401   22.4864 H   0  0  0  0  0  0
  -27.9262  -16.0949   21.1409 H   0  0  0  0  0  0
  -31.3853  -17.6034   20.4177 H   0  0  0  0  0  0
  -30.5114  -17.3351   18.9266 H   0  0  0  0  0  0
  -28.5725  -18.6063   19.6664 H   0  0  0  0  0  0
  -32.4726  -21.6234   20.3546 H   0  0  0  0  0  0
  -31.9663  -21.4836   22.0505 H   0  0  0  0  0  0
  -32.4477  -23.0599   21.4013 H   0  0  0  0  0  0
  -26.9415  -24.5596   20.4666 H   0  0  0  0  0  0
  -27.6562  -24.6779   18.8762 H   0  0  0  0  0  0
  -30.8954  -19.9796   20.7499 H   0  0  0  0  0  0
  1 25  1  0  0  0
  1 30  2  0  0  0
  1 82  1  0  0  0
  2  3  1  0  0  0
  2 25  1  0  0  0
  2 84  1  0  0  0
  2 85  1  0  0  0
  3  4  1  0  0  0
  3 86  1  0  0  0
  3 87  1  0  0  0
  4  5  1  0  0  0
  4 88  1  0  0  0
  4 89  1  0  0  0
  5  6  1  0  0  0
  5 26  1  0  0  0
  5 90  1  0  0  0
  6 25  1  0  0  0
  6 91  1  0  0  0
  6 92  1  0  0  0
  7  8  2  0  0  0
  7 26  1  0  0  0
  7 29  1  0  0  0
  8  9  1  0  0  0
  8 22  1  0  0  0
  9 10  1  0  0  0
  9 27  2  0  0  0
 10 11  2  0  0  0
 10 15  1  0  0  0
 11 12  1  0  0  0
 11 93  1  0  0  0
 12 13  2  0  0  0
 12 94  1  0  0  0
 13 14  1  0  0  0
 13 31  1  0  0  0
 14 15  2  0  0  0
 14 95  1  0  0  0
 15 96  1  0  0  0
 16 17  2  0  0  0
 16 21  1  0  0  0
 16 31  1  0  0  0
 17 18  1  0  0  0
 17 97  1  0  0  0
 18 19  2  0  0  0
 18 98  1  0  0  0
 19 20  1  0  0  0
 19 24  1  0  0  0
 20 21  2  0  0  0
 20 99  1  0  0  0
 21 23  1  0  0  0
 22 28  1  0  0  0
 22 32  2  0  0  0
 26 27  1  0  0  0
 28100  1  0  0  0
 28101  1  0  0  0
 29102  1  0  0  0
 29103  1  0  0  0
 33 34  1  0  0  0
 33 66  1  0  0  0
 33 70  2  0  0  0
 34 36  1  0  0  0
 34 59  1  0  0  0
 34104  1  0  0  0
 35 44  2  0  0  0
 35 45  1  0  0  0
 35 68  1  0  0  0
 36 56  1  0  0  0
 36105  1  0  0  0
 37 39  1  0  0  0
 37 47  1  0  0  0
 37 66  1  0  0  0
 37106  1  0  0  0
 38 43  2  0  0  0
 38 46  1  0  0  0
 38 47  1  0  0  0
 39 64  1  0  0  0
 39 67  2  0  0  0
 40 52  1  0  0  0
 40 53  2  0  0  0
 40 58  1  0  0  0
 41107  1  0  0  0
 41108  1  0  0  0
 41109  1  0  0  0
 41 48  1  0  0  0
 42 43  1  0  0  0
 42 66  1  0  0  0
 42110  1  0  0  0
 42111  1  0  0  0
 43 44  1  0  0  0
 44112  1  0  0  0
 45 46  2  0  0  0
 45113  1  0  0  0
 46114  1  0  0  0
 47115  1  0  0  0
 47116  1  0  0  0
 48 56  1  0  0  0
 48 65  1  0  0  0
 48117  1  0  0  0
 49 50  1  0  0  0
 49 53  1  0  0  0
 49 64  1  0  0  0
 49118  1  0  0  0
 50 51  1  0  0  0
 50119  1  0  0  0
 50120  1  0  0  0
 51 52  1  0  0  0
 51121  1  0  0  0
 51122  1  0  0  0
 52123  1  0  0  0
 52124  1  0  0  0
 53 54  1  0  0  0
 54 55  2  0  0  0
 54125  1  0  0  0
 55 57  1  0  0  0
 55126  1  0  0  0
 56 69  2  0  0  0
 57 58  2  0  0  0
 57127  1  0  0  0
 58128  1  0  0  0
 59 60  1  0  0  0
 59 61  1  0  0  0
 59 62  1  0  0  0
 60129  1  0  0  0
 60130  1  0  0  0
 60131  1  0  0  0
 61132  1  0  0  0
 61133  1  0  0  0
 61134  1  0  0  0
 62135  1  0  0  0
 62136  1  0  0  0
 62137  1  0  0  0
 63 65  1  0  0  0
 63138  1  0  0  0
 63139  1  0  0  0
 63140  1  0  0  0
 64141  1  0  0  0
 65142  1  0  0  0
 68 78  1  0  0  0
 71 78  1  0  0  0
 71 79  1  0  0  0
 71 80  2  0  0  0
 72 79  2  0  0  0
 72 81  1  0  0  0
 72 83  1  0  0  0
 73 74  1  0  0  0
 73 76  1  0  0  0
 73143  1  0  0  0
 73144  1  0  0  0
 74 82  1  0  0  0
 74145  1  0  0  0
 74146  1  0  0  0
 75 76  1  0  0  0
 75 82  1  0  0  0
 75147  1  0  0  0
 75148  1  0  0  0
 76 83  1  0  0  0
 76149  1  0  0  0
 77 81  1  0  0  0
 77150  1  0  0  0
 77151  1  0  0  0
 77152  1  0  0  0
 78153  1  0  0  0
 78154  1  0  0  0
 80 81  1  0  0  0
 83155  1  0  0  0
M  ISO  4   1 100  68 101  78 101  82 100
M  END
> <chiral flag>
0

> <version>
0

> <s_m_source_file>
/data/baiqing/PycharmProjects/Reinvent-master-3.2/result/LINK_invent/BTK/process_docking_weight1_custom_sum_contain_oxygen_bond_distance_aromatic_linkinvent_7_9_3/rearranged_h_0193.sdf

> <i_m_source_file_index>
98

> <r_mmod_Potential_Energy-OPLS-2005>
345.199798583984

> <r_mmod_Stretch_Energy-OPLS-2005>
155.311065673828

> <r_mmod_Bend_Energy-OPLS-2005>
246.810394287109

> <r_mmod_Torsional_Energy-OPLS-2005>
292.897094726562

> <r_mmod_Improper_Torsional_Energy-OPLS-2005>
10.7312717437744

> <r_mmod_Van_der_Waal_Energy-OPLS-2005>
119.153457641602

> <r_mmod_Electrostatic_Energy-OPLS-2005>
-370.607360839844

> <r_mmod_Solvation_Energy-OPLS-2005>
-235.502746582031

> <b_mmod_Minimization_Converged-OPLS-2005>
0

> <r_mmod_RMS_Derivative-OPLS-2005>
1.6081954240799

$$$$
98
                    3D
 Structure written by MMmdl.
156165  0  0  1  0            999 V2000
  -30.5743  -14.9528   20.4379 C   0  0  0  0  0  0
  -30.4311  -12.6012   19.5017 C   0  0  0  0  0  0
  -29.5185  -12.5493   18.2555 C   0  0  0  0  0  0
  -28.0507  -12.3316   18.6664 C   0  0  0  0  0  0
  -27.6255  -13.2568   19.8385 C   0  0  2  0  0  0
  -28.6685  -13.3020   20.9763 C   0  0  0  0  0  0
  -25.2462  -13.8224   20.5751 C   0  0  0  0  0  0
  -24.1768  -13.0443   20.9220 C   0  0  0  0  0  0
  -24.6390  -11.6927   20.8736 C   0  0  0  0  0  0
  -23.9060  -10.4298   21.0387 C   0  0  0  0  0  0
  -24.3614   -9.4218   21.9174 C   0  0  0  0  0  0
  -23.6311   -8.2246   22.0747 C   0  0  0  0  0  0
  -22.4295   -8.0278   21.3531 C   0  0  0  0  0  0
  -21.9915   -9.0248   20.4630 C   0  0  0  0  0  0
  -22.7225  -10.2142   20.3028 C   0  0  0  0  0  0
  -21.6850   -6.0733   22.5280 C   0  0  0  0  0  0
  -21.4021   -6.5639   23.8214 C   0  0  0  0  0  0
  -21.3665   -5.6796   24.9177 C   0  0  0  0  0  0
  -21.6056   -4.3060   24.7220 C   0  0  0  0  0  0
  -21.8821   -3.8140   23.4342 C   0  0  0  0  0  0
  -21.9196   -4.6961   22.3403 C   0  0  0  0  0  0
  -22.7796  -13.5226   21.1885 C   0  0  0  0  0  0
  -22.1657   -4.2152   21.0975 F   0  0  0  0  0  0
  -21.5635   -3.4540   25.7729 F   0  0  0  0  0  0
  -29.9394  -13.7113   20.3686 N   0  0  0  0  0  0
  -26.2877  -12.9460   20.3265 N   0  0  0  0  0  0
  -25.9322  -11.6581   20.5724 N   0  0  0  0  0  0
  -22.0428  -12.8213   22.0416 N   0  0  0  0  0  0
  -25.4192  -15.1952   20.4254 N   0  0  0  0  0  0
  -31.7875  -14.9561   20.1930 O   0  0  0  0  0  0
  -21.6650   -6.8877   21.4243 O   0  0  0  0  0  0
  -22.3497  -14.5549   20.6747 O   0  0  0  0  0  0
  -24.6454  -31.8439   23.1873 C   0  0  0  0  0  0
  -25.9223  -32.4695   23.8256 C   0  0  1  0  0  0
  -27.2166  -27.1240   20.1463 C   0  0  0  0  0  0
  -25.5980  -33.8500   24.2193 N   0  0  0  0  0  0
  -23.4484  -30.4622   21.5365 C   0  0  2  0  0  0
  -24.8958  -28.8849   20.1173 C   0  0  0  0  0  0
  -22.7568  -29.4558   22.4903 C   0  0  0  0  0  0
  -18.0302  -28.1394   22.8482 C   0  0  0  0  0  0
  -24.1500  -36.7254   23.2636 C   0  0  0  0  0  0
  -26.0050  -30.7134   21.3852 C   0  0  0  0  0  0
  -26.0765  -29.3210   20.7327 C   0  0  0  0  0  0
  -27.2388  -28.4573   20.7294 C   0  0  0  0  0  0
  -26.0097  -26.7993   19.4869 C   0  0  0  0  0  0
  -24.8761  -27.6369   19.4798 C   0  0  0  0  0  0
  -23.6726  -29.7866   20.1585 C   0  0  0  0  0  0
  -25.4127  -36.3034   24.0320 C   0  0  1  0  0  0
  -20.5917  -28.3724   23.1249 C   0  0  2  0  0  0
  -20.6800  -26.9434   22.5409 C   0  0  0  0  0  0
  -19.5776  -26.6387   21.5218 C   0  0  0  0  0  0
  -18.1950  -26.7937   22.1613 C   0  0  0  0  0  0
  -19.1559  -28.8876   23.2860 C   0  0  0  0  0  0
  -18.9471  -30.1471   23.8883 C   0  0  0  0  0  0
  -17.6471  -30.6597   24.0550 C   0  0  0  0  0  0
  -25.9085  -34.9411   23.5065 C   0  0  0  0  0  0
  -16.5363  -29.9087   23.6335 C   0  0  0  0  0  0
  -16.7287  -28.6502   23.0362 C   0  0  0  0  0  0
  -26.4540  -31.6543   25.0686 C   0  0  0  0  0  0
  -25.3721  -31.3719   26.1377 C   0  0  0  0  0  0
  -27.0392  -30.2946   24.6229 C   0  0  0  0  0  0
  -27.6091  -32.4275   25.7478 C   0  0  0  0  0  0
  -27.5591  -37.1774   24.8448 C   0  0  0  0  0  0
  -21.4264  -29.3053   22.3632 N   0  0  0  0  0  0
  -26.4284  -37.3756   23.9422 N   0  0  0  0  0  0
  -24.7203  -31.0277   22.0922 N   0  0  0  0  0  0
  -23.4204  -28.8107   23.3061 O   0  0  0  0  0  0
  -28.2696  -26.1304   20.1715 O   0  0  0  0  0  0
  -26.5657  -34.8907   22.4635 O   0  0  0  0  0  0
  -23.5574  -32.1324   23.7087 O   0  0  0  0  0  0
  -30.8531  -22.6672   19.0470 C   0  0  0  0  0  0
  -28.9645  -23.3304   20.0544 C   0  0  0  0  0  0
  -29.6135  -21.0252   19.9729 C   0  0  0  0  0  0
  -30.4410  -18.6124   19.3648 C   0  0  0  0  0  0
  -28.9051  -18.6503   21.1617 C   0  0  0  0  0  0
  -29.9675  -17.0877   19.1640 C   0  0  0  0  0  0
  -29.5971  -17.1878   21.4865 C   0  0  0  0  0  0
  -32.0935  -23.0194   18.2471 C   0  0  0  0  0  0
  -27.9518  -24.6035   20.3525 C   0  0  0  0  0  0
  -30.0567  -23.6763   19.3819 N   0  0  0  0  0  0
  -30.6950  -21.3735   19.2962 N   0  0  0  0  0  0
  -28.7000  -21.9855   20.3858 N   0  0  0  0  0  0
  -29.5468  -19.5347   20.1357 N   0  0  0  0  0  0
  -29.8552  -16.1923   20.3660 N   0  0  0  0  0  0
  -31.4674  -12.7464   19.1918 H   0  0  0  0  0  0
  -30.4136  -11.6532   20.0407 H   0  0  0  0  0  0
  -29.8444  -11.7600   17.5765 H   0  0  0  0  0  0
  -29.6072  -13.4853   17.7025 H   0  0  0  0  0  0
  -27.9427  -11.2872   18.9598 H   0  0  0  0  0  0
  -27.3908  -12.4731   17.8083 H   0  0  0  0  0  0
  -27.5833  -14.2602   19.4142 H   0  0  0  0  0  0
  -28.7601  -12.3324   21.4681 H   0  0  0  0  0  0
  -28.3678  -14.0168   21.7436 H   0  0  0  0  0  0
  -25.2740   -9.5719   22.4785 H   0  0  0  0  0  0
  -24.0022   -7.4637   22.7469 H   0  0  0  0  0  0
  -21.0843   -8.8739   19.8950 H   0  0  0  0  0  0
  -22.3641  -10.9688   19.6154 H   0  0  0  0  0  0
  -21.2000   -7.6147   23.9720 H   0  0  0  0  0  0
  -21.1500   -6.0517   25.9090 H   0  0  0  0  0  0
  -22.0597   -2.7604   23.2821 H   0  0  0  0  0  0
  -22.4005  -11.9841   22.4786 H   0  0  0  0  0  0
  -21.1056  -13.1262   22.2607 H   0  0  0  0  0  0
  -24.6691  -15.8630   20.5621 H   0  0  0  0  0  0
  -26.2915  -15.6298   20.1538 H   0  0  0  0  0  0
  -26.7287  -32.5299   23.0982 H   0  0  0  0  0  0
  -25.0116  -33.9614   25.0337 H   0  0  0  0  0  0
  -22.7518  -31.2887   21.3802 H   0  0  0  0  0  0
  -23.3793  -35.9549   23.3220 H   0  0  0  0  0  0
  -24.3607  -36.8958   22.2066 H   0  0  0  0  0  0
  -23.7198  -37.6407   23.6715 H   0  0  0  0  0  0
  -26.1489  -31.4609   20.6046 H   0  0  0  0  0  0
  -26.8817  -30.7757   22.0179 H   0  0  0  0  0  0
  -28.1405  -28.7894   21.2242 H   0  0  0  0  0  0
  -25.9062  -25.8643   18.9604 H   0  0  0  0  0  0
  -23.9786  -27.3005   18.9795 H   0  0  0  0  0  0
  -23.8028  -30.5571   19.3977 H   0  0  0  0  0  0
  -22.7879  -29.2238   19.8542 H   0  0  0  0  0  0
  -25.1307  -36.1861   25.0811 H   0  0  0  0  0  0
  -20.9991  -28.3306   24.1376 H   0  0  0  0  0  0
  -20.5709  -26.2338   23.3621 H   0  0  0  0  0  0
  -21.6662  -26.7460   22.1187 H   0  0  0  0  0  0
  -19.6943  -25.6292   21.1261 H   0  0  0  0  0  0
  -19.6720  -27.3186   20.6738 H   0  0  0  0  0  0
  -17.4231  -26.6693   21.4003 H   0  0  0  0  0  0
  -18.0339  -26.0076   22.9001 H   0  0  0  0  0  0
  -19.7951  -30.7292   24.2246 H   0  0  0  0  0  0
  -17.5025  -31.6280   24.5140 H   0  0  0  0  0  0
  -15.5362  -30.2982   23.7676 H   0  0  0  0  0  0
  -15.8680  -28.0808   22.7100 H   0  0  0  0  0  0
  -24.5931  -30.7046   25.7678 H   0  0  0  0  0  0
  -24.8881  -32.2891   26.4742 H   0  0  0  0  0  0
  -25.8002  -30.8923   27.0188 H   0  0  0  0  0  0
  -26.2987  -29.6675   24.1259 H   0  0  0  0  0  0
  -27.4053  -29.7236   25.4770 H   0  0  0  0  0  0
  -27.8875  -30.4197   23.9500 H   0  0  0  0  0  0
  -27.2734  -33.3628   26.1969 H   0  0  0  0  0  0
  -28.3967  -32.6728   25.0339 H   0  0  0  0  0  0
  -28.0679  -31.8423   26.5462 H   0  0  0  0  0  0
  -28.2539  -38.0143   24.7595 H   0  0  0  0  0  0
  -28.1161  -36.2679   24.6147 H   0  0  0  0  0  0
  -27.2324  -37.1248   25.8849 H   0  0  0  0  0  0
  -20.9490  -29.8738   21.6774 H   0  0  0  0  0  0
  -26.0147  -38.2816   24.1467 H   0  0  0  0  0  0
  -30.5860  -19.0331   18.3687 H   0  0  0  0  0  0
  -31.4275  -18.6290   19.8304 H   0  0  0  0  0  0
  -28.8211  -19.2221   22.0874 H   0  0  0  0  0  0
  -27.8786  -18.4811   20.8368 H   0  0  0  0  0  0
  -30.6481  -16.6221   18.4490 H   0  0  0  0  0  0
  -28.9952  -17.0854   18.6704 H   0  0  0  0  0  0
  -28.9902  -16.6800   22.2387 H   0  0  0  0  0  0
  -30.5556  -17.3701   21.9763 H   0  0  0  0  0  0
  -32.3892  -24.0580   18.3918 H   0  0  0  0  0  0
  -31.9128  -22.8606   17.1842 H   0  0  0  0  0  0
  -32.9355  -22.3910   18.5386 H   0  0  0  0  0  0
  -27.6420  -24.4930   21.3920 H   0  0  0  0  0  0
  -27.0676  -24.3509   19.7742 H   0  0  0  0  0  0
  1 25  1  0  0  0
  1 30  2  0  0  0
  1 84  1  0  0  0
  2  3  1  0  0  0
  2 25  1  0  0  0
  2 85  1  0  0  0
  2 86  1  0  0  0
  3  4  1  0  0  0
  3 87  1  0  0  0
  3 88  1  0  0  0
  4  5  1  0  0  0
  4 89  1  0  0  0
  4 90  1  0  0  0
  5  6  1  0  0  0
  5 26  1  0  0  0
  5 91  1  0  0  0
  6 25  1  0  0  0
  6 92  1  0  0  0
  6 93  1  0  0  0
  7  8  2  0  0  0
  7 26  1  0  0  0
  7 29  1  0  0  0
  8  9  1  0  0  0
  8 22  1  0  0  0
  9 10  1  0  0  0
  9 27  2  0  0  0
 10 11  2  0  0  0
 10 15  1  0  0  0
 11 12  1  0  0  0
 11 94  1  0  0  0
 12 13  2  0  0  0
 12 95  1  0  0  0
 13 14  1  0  0  0
 13 31  1  0  0  0
 14 15  2  0  0  0
 14 96  1  0  0  0
 15 97  1  0  0  0
 16 17  2  0  0  0
 16 21  1  0  0  0
 16 31  1  0  0  0
 17 18  1  0  0  0
 17 98  1  0  0  0
 18 19  2  0  0  0
 18 99  1  0  0  0
 19 20  1  0  0  0
 19 24  1  0  0  0
 20 21  2  0  0  0
 20100  1  0  0  0
 21 23  1  0  0  0
 22 28  1  0  0  0
 22 32  2  0  0  0
 26 27  1  0  0  0
 28101  1  0  0  0
 28102  1  0  0  0
 29103  1  0  0  0
 29104  1  0  0  0
 33 34  1  0  0  0
 33 66  1  0  0  0
 33 70  2  0  0  0
 34 36  1  0  0  0
 34 59  1  0  0  0
 34105  1  0  0  0
 35 44  2  0  0  0
 35 45  1  0  0  0
 35 68  1  0  0  0
 36 56  1  0  0  0
 36106  1  0  0  0
 37 39  1  0  0  0
 37 47  1  0  0  0
 37 66  1  0  0  0
 37107  1  0  0  0
 38 43  2  0  0  0
 38 46  1  0  0  0
 38 47  1  0  0  0
 39 64  1  0  0  0
 39 67  2  0  0  0
 40 52  1  0  0  0
 40 53  2  0  0  0
 40 58  1  0  0  0
 41108  1  0  0  0
 41109  1  0  0  0
 41110  1  0  0  0
 41 48  1  0  0  0
 42 43  1  0  0  0
 42 66  1  0  0  0
 42111  1  0  0  0
 42112  1  0  0  0
 43 44  1  0  0  0
 44113  1  0  0  0
 45 46  2  0  0  0
 45114  1  0  0  0
 46115  1  0  0  0
 47116  1  0  0  0
 47117  1  0  0  0
 48 56  1  0  0  0
 48 65  1  0  0  0
 48118  1  0  0  0
 49 50  1  0  0  0
 49 53  1  0  0  0
 49 64  1  0  0  0
 49119  1  0  0  0
 50 51  1  0  0  0
 50120  1  0  0  0
 50121  1  0  0  0
 51 52  1  0  0  0
 51122  1  0  0  0
 51123  1  0  0  0
 52124  1  0  0  0
 52125  1  0  0  0
 53 54  1  0  0  0
 54 55  2  0  0  0
 54126  1  0  0  0
 55 57  1  0  0  0
 55127  1  0  0  0
 56 69  2  0  0  0
 57 58  2  0  0  0
 57128  1  0  0  0
 58129  1  0  0  0
 59 60  1  0  0  0
 59 61  1  0  0  0
 59 62  1  0  0  0
 60130  1  0  0  0
 60131  1  0  0  0
 60132  1  0  0  0
 61133  1  0  0  0
 61134  1  0  0  0
 61135  1  0  0  0
 62136  1  0  0  0
 62137  1  0  0  0
 62138  1  0  0  0
 63 65  1  0  0  0
 63139  1  0  0  0
 63140  1  0  0  0
 63141  1  0  0  0
 64142  1  0  0  0
 65143  1  0  0  0
 68 79  1  0  0  0
 71 78  1  0  0  0
 71 80  2  0  0  0
 71 81  1  0  0  0
 72 79  1  0  0  0
 72 80  1  0  0  0
 72 82  2  0  0  0
 73 81  2  0  0  0
 73 82  1  0  0  0
 73 83  1  0  0  0
 74 76  1  0  0  0
 74 83  1  0  0  0
 74144  1  0  0  0
 74145  1  0  0  0
 75 77  1  0  0  0
 75 83  1  0  0  0
 75146  1  0  0  0
 75147  1  0  0  0
 76 84  1  0  0  0
 76148  1  0  0  0
 76149  1  0  0  0
 77 84  1  0  0  0
 77150  1  0  0  0
 77151  1  0  0  0
 78152  1  0  0  0
 78153  1  0  0  0
 78154  1  0  0  0
 79155  1  0  0  0
 79156  1  0  0  0
M  ISO  4   1 100  68 101  79 101  84 100
M  END
> <chiral flag>
0

> <version>
0

> <s_m_source_file>
/data/baiqing/PycharmProjects/Reinvent-master-3.2/result/LINK_invent/BTK/process_docking_weight1_custom_sum_contain_oxygen_bond_distance_aromatic_linkinvent_7_9_3/rearranged_h_0193.sdf

> <i_m_source_file_index>
99

> <r_mmod_Potential_Energy-OPLS-2005>
-32.3341484069824

> <r_mmod_Stretch_Energy-OPLS-2005>
241.76286315918

> <r_mmod_Bend_Energy-OPLS-2005>
275.590362548828

> <r_mmod_Torsional_Energy-OPLS-2005>
355.689727783203

> <r_mmod_Improper_Torsional_Energy-OPLS-2005>
15.340425491333

> <r_mmod_Van_der_Waal_Energy-OPLS-2005>
167.034957885742

> <r_mmod_Electrostatic_Energy-OPLS-2005>
-1038.48315429688

> <r_mmod_Solvation_Energy-OPLS-2005>
-245.539459228516

> <b_mmod_Minimization_Converged-OPLS-2005>
0

> <r_mmod_RMS_Derivative-OPLS-2005>
2.42874813079834

$$$$
