0
                    3D
 Structure written by MMmdl.
168177  0  0  1  0            999 V2000
  -30.5173  -15.0644   20.3905 C   0  0  0  0  0  0
  -30.4345  -12.6690   19.5056 C   0  0  0  0  0  0
  -29.5226  -12.5399   18.2637 C   0  0  0  0  0  0
  -28.0614  -12.3056   18.6877 C   0  0  0  0  0  0
  -27.6185  -13.2601   19.8269 C   0  0  2  0  0  0
  -28.6592  -13.3567   20.9616 C   0  0  0  0  0  0
  -25.2419  -13.8233   20.5730 C   0  0  0  0  0  0
  -24.1755  -13.0439   20.9251 C   0  0  0  0  0  0
  -24.6389  -11.6931   20.8761 C   0  0  0  0  0  0
  -23.9079  -10.4295   21.0410 C   0  0  0  0  0  0
  -24.3627   -9.4208   21.9187 C   0  0  0  0  0  0
  -23.6298   -8.2244   22.0756 C   0  0  0  0  0  0
  -22.4277   -8.0284   21.3546 C   0  0  0  0  0  0
  -21.9917   -9.0259   20.4648 C   0  0  0  0  0  0
  -22.7251  -10.2136   20.3057 C   0  0  0  0  0  0
  -21.6855   -6.0736   22.5279 C   0  0  0  0  0  0
  -21.4018   -6.5639   23.8213 C   0  0  0  0  0  0
  -21.3662   -5.6792   24.9174 C   0  0  0  0  0  0
  -21.6044   -4.3054   24.7225 C   0  0  0  0  0  0
  -21.8818   -3.8146   23.4345 C   0  0  0  0  0  0
  -21.9194   -4.6964   22.3401 C   0  0  0  0  0  0
  -22.7773  -13.5202   21.1899 C   0  0  0  0  0  0
  -22.1660   -4.2150   21.0979 F   0  0  0  0  0  0
  -21.5628   -3.4537   25.7737 F   0  0  0  0  0  0
  -29.9153  -13.7973   20.3422 N   0  0  0  0  0  0
  -26.2837  -12.9484   20.3218 N   0  0  0  0  0  0
  -25.9319  -11.6601   20.5727 N   0  0  0  0  0  0
  -22.0423  -12.8189   22.0452 N   0  0  0  0  0  0
  -25.4062  -15.1967   20.4159 N   0  0  0  0  0  0
  -31.7369  -15.0665   20.1899 O   0  0  0  0  0  0
  -21.6641   -6.8881   21.4240 O   0  0  0  0  0  0
  -22.3456  -14.5503   20.6737 O   0  0  0  0  0  0
  -24.6504  -31.8355   23.1795 C   0  0  0  0  0  0
  -25.9244  -32.4646   23.8219 C   0  0  1  0  0  0
  -27.2189  -27.0575   20.1766 C   0  0  0  0  0  0
  -25.5963  -33.8456   24.2140 N   0  0  0  0  0  0
  -23.4577  -30.4501   21.5267 C   0  0  2  0  0  0
  -24.9073  -28.8529   20.1171 C   0  0  0  0  0  0
  -22.7599  -29.4504   22.4832 C   0  0  0  0  0  0
  -18.0311  -28.1403   22.8472 C   0  0  0  0  0  0
  -24.1490  -36.7231   23.2644 C   0  0  0  0  0  0
  -26.0171  -30.6858   21.3865 C   0  0  0  0  0  0
  -26.0872  -29.2865   20.7346 C   0  0  0  0  0  0
  -27.2442  -28.4091   20.7354 C   0  0  0  0  0  0
  -26.0092  -26.7307   19.5313 C   0  0  0  0  0  0
  -24.8850  -27.5914   19.4977 C   0  0  0  0  0  0
  -23.6892  -29.7679   20.1509 C   0  0  0  0  0  0
  -25.4126  -36.3002   24.0310 C   0  0  1  0  0  0
  -20.5926  -28.3733   23.1219 C   0  0  2  0  0  0
  -20.6793  -26.9428   22.5403 C   0  0  0  0  0  0
  -19.5767  -26.6381   21.5213 C   0  0  0  0  0  0
  -18.1949  -26.7938   22.1624 C   0  0  0  0  0  0
  -19.1569  -28.8888   23.2836 C   0  0  0  0  0  0
  -18.9483  -30.1483   23.8862 C   0  0  0  0  0  0
  -17.6479  -30.6594   24.0560 C   0  0  0  0  0  0
  -25.9084  -34.9380   23.5039 C   0  0  0  0  0  0
  -16.5370  -29.9085   23.6338 C   0  0  0  0  0  0
  -16.7296  -28.6508   23.0353 C   0  0  0  0  0  0
  -26.4544  -31.6543   25.0692 C   0  0  0  0  0  0
  -25.3713  -31.3761   26.1379 C   0  0  0  0  0  0
  -27.0421  -30.2928   24.6324 C   0  0  0  0  0  0
  -27.6058  -32.4325   25.7488 C   0  0  0  0  0  0
  -27.5573  -37.1771   24.8467 C   0  0  0  0  0  0
  -21.4283  -29.3045   22.3582 N   0  0  0  0  0  0
  -26.4281  -37.3725   23.9412 N   0  0  0  0  0  0
  -24.7289  -31.0143   22.0859 N   0  0  0  0  0  0
  -23.4207  -28.8067   23.3025 O   0  0  0  0  0  0
  -28.2908  -26.0718   20.1879 O   0  0  0  0  0  0
  -26.5678  -34.8897   22.4625 O   0  0  0  0  0  0
  -23.5606  -32.1267   23.6973 O   0  0  0  0  0  0
  -30.6533  -19.5840   23.2960 C   0  0  0  0  0  0
  -32.5162  -18.7984   20.3411 C   0  0  0  0  0  0
  -27.9870  -21.7100   19.8290 C   0  0  0  0  0  0
  -29.6058  -22.2813   21.4443 C   0  0  0  0  0  0
  -31.3922  -18.1946   19.4750 C   0  0  0  0  0  0
  -27.8937  -23.3207   19.4120 C   0  0  0  0  0  0
  -29.5394  -23.8499   21.0207 C   0  0  0  0  0  0
  -32.0257  -19.9516   21.2535 C   0  0  0  0  0  0
  -29.3510  -21.0594   20.4048 C   0  0  1  0  0  0
  -29.5945  -19.4057   21.0112 C   0  0  1  0  0  0
  -30.2111  -17.8726   20.3962 C   0  0  1  0  0  0
  -28.1965  -24.5042   20.4760 C   0  0  1  0  0  0
  -29.3167  -19.2446   23.9763 C   0  0  0  0  0  0
  -30.7291  -19.6680   21.9418 N   0  0  0  0  0  0
  -29.7759  -16.3127   20.4529 N   0  0  0  0  0  0
  -31.6291  -19.7712   24.0349 O   0  0  0  0  0  0
  -29.5000  -19.2405   25.3843 O   0  0  0  0  0  0
  -31.4643  -12.8370   19.1869 H   0  0  0  0  0  0
  -30.4502  -11.7390   20.0764 H   0  0  0  0  0  0
  -29.8636  -11.7251   17.6237 H   0  0  0  0  0  0
  -29.5899  -13.4498   17.6651 H   0  0  0  0  0  0
  -27.9806  -11.2714   19.0245 H   0  0  0  0  0  0
  -27.3956  -12.3996   17.8291 H   0  0  0  0  0  0
  -27.5594  -14.2461   19.3651 H   0  0  0  0  0  0
  -28.7788  -12.4021   21.4761 H   0  0  0  0  0  0
  -28.3389  -14.0801   21.7133 H   0  0  0  0  0  0
  -25.2768   -9.5683   22.4766 H   0  0  0  0  0  0
  -24.0005   -7.4632   22.7472 H   0  0  0  0  0  0
  -21.0848   -8.8778   19.8950 H   0  0  0  0  0  0
  -22.3707  -10.9675   19.6167 H   0  0  0  0  0  0
  -21.2012   -7.6147   23.9717 H   0  0  0  0  0  0
  -21.1485   -6.0521   25.9078 H   0  0  0  0  0  0
  -22.0594   -2.7607   23.2845 H   0  0  0  0  0  0
  -22.4045  -11.9862   22.4855 H   0  0  0  0  0  0
  -21.1037  -13.1206   22.2648 H   0  0  0  0  0  0
  -24.6320  -15.8433   20.5245 H   0  0  0  0  0  0
  -26.2419  -15.6396   20.0578 H   0  0  0  0  0  0
  -26.7307  -32.5229   23.0940 H   0  0  0  0  0  0
  -25.0089  -33.9553   25.0275 H   0  0  0  0  0  0
  -22.7642  -31.2777   21.3632 H   0  0  0  0  0  0
  -23.3761  -35.9554   23.3283 H   0  0  0  0  0  0
  -24.3572  -36.8891   22.2062 H   0  0  0  0  0  0
  -23.7237  -37.6414   23.6703 H   0  0  0  0  0  0
  -26.1785  -31.4325   20.6082 H   0  0  0  0  0  0
  -26.8848  -30.7420   22.0321 H   0  0  0  0  0  0
  -28.1490  -28.7432   21.2230 H   0  0  0  0  0  0
  -25.9202  -25.7632   19.0585 H   0  0  0  0  0  0
  -23.9843  -27.2535   19.0040 H   0  0  0  0  0  0
  -23.8363  -30.5369   19.3917 H   0  0  0  0  0  0
  -22.8013  -29.2157   19.8376 H   0  0  0  0  0  0
  -25.1316  -36.1814   25.0801 H   0  0  0  0  0  0
  -21.0019  -28.3333   24.1340 H   0  0  0  0  0  0
  -20.5684  -26.2348   23.3630 H   0  0  0  0  0  0
  -21.6658  -26.7425   22.1202 H   0  0  0  0  0  0
  -19.6927  -25.6284   21.1261 H   0  0  0  0  0  0
  -19.6703  -27.3176   20.6730 H   0  0  0  0  0  0
  -17.4216  -26.6677   21.4032 H   0  0  0  0  0  0
  -18.0351  -26.0091   22.9032 H   0  0  0  0  0  0
  -19.7959  -30.7313   24.2210 H   0  0  0  0  0  0
  -17.5030  -31.6268   24.5174 H   0  0  0  0  0  0
  -15.5370  -30.2975   23.7682 H   0  0  0  0  0  0
  -15.8697  -28.0818   22.7078 H   0  0  0  0  0  0
  -24.5893  -30.7107   25.7702 H   0  0  0  0  0  0
  -24.8907  -32.2954   26.4731 H   0  0  0  0  0  0
  -25.7981  -30.8980   27.0205 H   0  0  0  0  0  0
  -26.3055  -29.6626   24.1326 H   0  0  0  0  0  0
  -27.4007  -29.7255   25.4924 H   0  0  0  0  0  0
  -27.8972  -30.4143   23.9670 H   0  0  0  0  0  0
  -27.2644  -33.3663   26.1969 H   0  0  0  0  0  0
  -28.3924  -32.6824   25.0354 H   0  0  0  0  0  0
  -28.0664  -31.8511   26.5486 H   0  0  0  0  0  0
  -28.2574  -38.0082   24.7515 H   0  0  0  0  0  0
  -28.1085  -36.2609   24.6291 H   0  0  0  0  0  0
  -27.2291  -37.1411   25.8870 H   0  0  0  0  0  0
  -20.9513  -29.8741   21.6732 H   0  0  0  0  0  0
  -26.0139  -38.2787   24.1422 H   0  0  0  0  0  0
  -33.3295  -19.1496   19.7045 H   0  0  0  0  0  0
  -32.9484  -18.0127   20.9633 H   0  0  0  0  0  0
  -27.6936  -21.1267   18.9555 H   0  0  0  0  0  0
  -27.1994  -21.5223   20.5601 H   0  0  0  0  0  0
  -28.9179  -22.1487   22.2806 H   0  0  0  0  0  0
  -30.5926  -22.1809   21.8903 H   0  0  0  0  0  0
  -31.7564  -17.3196   18.9378 H   0  0  0  0  0  0
  -31.0772  -18.9093   18.7140 H   0  0  0  0  0  0
  -26.8962  -23.4956   19.0086 H   0  0  0  0  0  0
  -28.5614  -23.4691   18.5626 H   0  0  0  0  0  0
  -30.3209  -24.0234   20.2797 H   0  0  0  0  0  0
  -29.8487  -24.4334   21.8883 H   0  0  0  0  0  0
  -31.9507  -20.8536   20.6509 H   0  0  0  0  0  0
  -32.8224  -20.1848   21.9612 H   0  0  0  0  0  0
  -30.0698  -21.1760   19.5936 H   0  0  0  0  0  0
  -28.6744  -19.1588   21.5373 H   0  0  0  0  0  0
  -30.7330  -17.5416   21.2957 H   0  0  0  0  0  0
  -27.4514  -24.4128   21.2673 H   0  0  0  0  0  0
  -28.9730  -18.2616   23.6516 H   0  0  0  0  0  0
  -28.5603  -19.9828   23.7076 H   0  0  0  0  0  0
  -28.7811  -16.1715   20.5516 H   0  0  0  0  0  0
  -30.4330  -19.4359   25.4885 H   0  0  0  0  0  0
  1 25  1  0  0  0
  1 30  2  0  0  0
  1 85  1  0  0  0
  2  3  1  0  0  0
  2 25  1  0  0  0
  2 88  1  0  0  0
  2 89  1  0  0  0
  3  4  1  0  0  0
  3 90  1  0  0  0
  3 91  1  0  0  0
  4  5  1  0  0  0
  4 92  1  0  0  0
  4 93  1  0  0  0
  5  6  1  0  0  0
  5 26  1  0  0  0
  5 94  1  0  0  0
  6 25  1  0  0  0
  6 95  1  0  0  0
  6 96  1  0  0  0
  7  8  2  0  0  0
  7 26  1  0  0  0
  7 29  1  0  0  0
  8  9  1  0  0  0
  8 22  1  0  0  0
  9 10  1  0  0  0
  9 27  2  0  0  0
 10 11  2  0  0  0
 10 15  1  0  0  0
 11 12  1  0  0  0
 11 97  1  0  0  0
 12 13  2  0  0  0
 12 98  1  0  0  0
 13 14  1  0  0  0
 13 31  1  0  0  0
 14 15  2  0  0  0
 14 99  1  0  0  0
 15100  1  0  0  0
 16 17  2  0  0  0
 16 21  1  0  0  0
 16 31  1  0  0  0
 17 18  1  0  0  0
 17101  1  0  0  0
 18 19  2  0  0  0
 18102  1  0  0  0
 19 20  1  0  0  0
 19 24  1  0  0  0
 20 21  2  0  0  0
 20103  1  0  0  0
 21 23  1  0  0  0
 22 28  1  0  0  0
 22 32  2  0  0  0
 26 27  1  0  0  0
 28104  1  0  0  0
 28105  1  0  0  0
 29106  1  0  0  0
 29107  1  0  0  0
 33 34  1  0  0  0
 33 66  1  0  0  0
 33 70  2  0  0  0
 34 36  1  0  0  0
 34 59  1  0  0  0
 34108  1  0  0  0
 35 44  2  0  0  0
 35 45  1  0  0  0
 35 68  1  0  0  0
 36 56  1  0  0  0
 36109  1  0  0  0
 37 39  1  0  0  0
 37 47  1  0  0  0
 37 66  1  0  0  0
 37110  1  0  0  0
 38 43  2  0  0  0
 38 46  1  0  0  0
 38 47  1  0  0  0
 39 64  1  0  0  0
 39 67  2  0  0  0
 40 52  1  0  0  0
 40 53  2  0  0  0
 40 58  1  0  0  0
 41111  1  0  0  0
 41112  1  0  0  0
 41113  1  0  0  0
 41 48  1  0  0  0
 42 43  1  0  0  0
 42 66  1  0  0  0
 42114  1  0  0  0
 42115  1  0  0  0
 43 44  1  0  0  0
 44116  1  0  0  0
 45 46  2  0  0  0
 45117  1  0  0  0
 46118  1  0  0  0
 47119  1  0  0  0
 47120  1  0  0  0
 48 56  1  0  0  0
 48 65  1  0  0  0
 48121  1  0  0  0
 49 50  1  0  0  0
 49 53  1  0  0  0
 49 64  1  0  0  0
 49122  1  0  0  0
 50 51  1  0  0  0
 50123  1  0  0  0
 50124  1  0  0  0
 51 52  1  0  0  0
 51125  1  0  0  0
 51126  1  0  0  0
 52127  1  0  0  0
 52128  1  0  0  0
 53 54  1  0  0  0
 54 55  2  0  0  0
 54129  1  0  0  0
 55 57  1  0  0  0
 55130  1  0  0  0
 56 69  2  0  0  0
 57 58  2  0  0  0
 57131  1  0  0  0
 58132  1  0  0  0
 59 60  1  0  0  0
 59 61  1  0  0  0
 59 62  1  0  0  0
 60133  1  0  0  0
 60134  1  0  0  0
 60135  1  0  0  0
 61136  1  0  0  0
 61137  1  0  0  0
 61138  1  0  0  0
 62139  1  0  0  0
 62140  1  0  0  0
 62141  1  0  0  0
 63 65  1  0  0  0
 63142  1  0  0  0
 63143  1  0  0  0
 63144  1  0  0  0
 64145  1  0  0  0
 65146  1  0  0  0
 68 82  1  0  0  0
 71 83  1  0  0  0
 71 84  1  0  0  0
 71 86  2  0  0  0
 72 75  1  0  0  0
 72 78  1  0  0  0
 72147  1  0  0  0
 72148  1  0  0  0
 73 76  1  0  0  0
 73149  1  0  0  0
 73150  1  0  0  0
 73 79  1  0  0  0
 74 77  1  0  0  0
 74 79  1  0  0  0
 74151  1  0  0  0
 74152  1  0  0  0
 75 81  1  0  0  0
 75153  1  0  0  0
 75154  1  0  0  0
 76 82  1  0  0  0
 76155  1  0  0  0
 76156  1  0  0  0
 77 82  1  0  0  0
 77157  1  0  0  0
 77158  1  0  0  0
 78 84  1  0  0  0
 78159  1  0  0  0
 78160  1  0  0  0
 79 80  1  0  0  0
 79161  1  0  0  0
 80 81  1  0  0  0
 80 84  1  0  0  0
 80162  1  0  0  0
 81 85  1  0  0  0
 81163  1  0  0  0
 82164  1  0  0  0
 83 87  1  0  0  0
 83165  1  0  0  0
 83166  1  0  0  0
 85167  1  0  0  0
 87168  1  0  0  0
M  ISO  4   1 100  68 101  82 101  85 100
M  END
> <chiral flag>
0

> <version>
0

> <s_m_source_file>
/data/baiqing/PycharmProjects/Reinvent-master-3.2/result/LINK_invent/BTK/process_docking_weight1_custom_sum_contain_oxygen_bond_distance_aromatic_linkinvent_7_9_3/rearranged_h_0133.sdf

> <i_m_source_file_index>
1

> <r_mmod_Potential_Energy-OPLS-2005>
1066.44396972656

> <r_mmod_Stretch_Energy-OPLS-2005>
394.776214599609

> <r_mmod_Bend_Energy-OPLS-2005>
509.604766845703

> <r_mmod_Torsional_Energy-OPLS-2005>
341.359191894531

> <r_mmod_Improper_Torsional_Energy-OPLS-2005>
4.2658486366272

> <r_mmod_Van_der_Waal_Energy-OPLS-2005>
151.559478759766

> <r_mmod_Electrostatic_Energy-OPLS-2005>
-369.009582519531

> <r_mmod_Solvation_Energy-OPLS-2005>
-235.865936279297

> <b_mmod_Minimization_Converged-OPLS-2005>
0

> <r_mmod_RMS_Derivative-OPLS-2005>
0.53584486246109

$$$$
1
                    3D
 Structure written by MMmdl.
150158  0  0  1  0            999 V2000
  -30.4780  -15.1828   20.3799 C   0  0  0  0  0  0
  -30.4356  -12.7504   19.5211 C   0  0  0  0  0  0
  -29.5300  -12.5638   18.2795 C   0  0  0  0  0  0
  -28.0739  -12.3053   18.7040 C   0  0  0  0  0  0
  -27.6146  -13.2703   19.8263 C   0  0  2  0  0  0
  -28.6508  -13.4145   20.9611 C   0  0  0  0  0  0
  -25.2400  -13.8245   20.5742 C   0  0  0  0  0  0
  -24.1747  -13.0439   20.9255 C   0  0  0  0  0  0
  -24.6395  -11.6934   20.8762 C   0  0  0  0  0  0
  -23.9089  -10.4294   21.0407 C   0  0  0  0  0  0
  -24.3634   -9.4207   21.9185 C   0  0  0  0  0  0
  -23.6305   -8.2242   22.0752 C   0  0  0  0  0  0
  -22.4286   -8.0283   21.3543 C   0  0  0  0  0  0
  -21.9926   -9.0256   20.4643 C   0  0  0  0  0  0
  -22.7259  -10.2135   20.3055 C   0  0  0  0  0  0
  -21.6858   -6.0739   22.5279 C   0  0  0  0  0  0
  -21.4016   -6.5641   23.8213 C   0  0  0  0  0  0
  -21.3660   -5.6793   24.9175 C   0  0  0  0  0  0
  -21.6045   -4.3056   24.7225 C   0  0  0  0  0  0
  -21.8818   -3.8148   23.4346 C   0  0  0  0  0  0
  -21.9195   -4.6966   22.3403 C   0  0  0  0  0  0
  -22.7764  -13.5193   21.1905 C   0  0  0  0  0  0
  -22.1663   -4.2150   21.0981 F   0  0  0  0  0  0
  -21.5629   -3.4540   25.7738 F   0  0  0  0  0  0
  -29.8941  -13.8927   20.3383 N   0  0  0  0  0  0
  -26.2826  -12.9513   20.3228 N   0  0  0  0  0  0
  -25.9332  -11.6622   20.5727 N   0  0  0  0  0  0
  -22.0427  -12.8169   22.0458 N   0  0  0  0  0  0
  -25.4033  -15.1979   20.4165 N   0  0  0  0  0  0
  -31.6959  -15.1816   20.1583 O   0  0  0  0  0  0
  -21.6646   -6.8882   21.4241 O   0  0  0  0  0  0
  -22.3441  -14.5494   20.6747 O   0  0  0  0  0  0
  -24.6591  -31.8286   23.1758 C   0  0  0  0  0  0
  -25.9295  -32.4615   23.8199 C   0  0  1  0  0  0
  -27.2132  -26.9737   20.1725 C   0  0  0  0  0  0
  -25.5980  -33.8428   24.2105 N   0  0  0  0  0  0
  -23.4710  -30.4439   21.5238 C   0  0  2  0  0  0
  -24.9239  -28.8448   20.1092 C   0  0  0  0  0  0
  -22.7648  -29.4469   22.4792 C   0  0  0  0  0  0
  -18.0321  -28.1409   22.8472 C   0  0  0  0  0  0
  -24.1490  -36.7211   23.2645 C   0  0  0  0  0  0
  -26.0389  -30.6497   21.4010 C   0  0  0  0  0  0
  -26.1072  -29.2456   20.7423 C   0  0  0  0  0  0
  -27.2486  -28.3296   20.7535 C   0  0  0  0  0  0
  -26.0033  -26.7224   19.4852 C   0  0  0  0  0  0
  -24.8949  -27.6020   19.4609 C   0  0  0  0  0  0
  -23.7084  -29.7667   20.1470 C   0  0  0  0  0  0
  -25.4130  -36.2980   24.0303 C   0  0  1  0  0  0
  -20.5943  -28.3750   23.1197 C   0  0  2  0  0  0
  -20.6797  -26.9437   22.5403 C   0  0  0  0  0  0
  -19.5769  -26.6383   21.5215 C   0  0  0  0  0  0
  -18.1953  -26.7943   22.1627 C   0  0  0  0  0  0
  -19.1582  -28.8900   23.2824 C   0  0  0  0  0  0
  -18.9492  -30.1490   23.8858 C   0  0  0  0  0  0
  -17.6487  -30.6601   24.0558 C   0  0  0  0  0  0
  -25.9095  -34.9363   23.5021 C   0  0  0  0  0  0
  -16.5377  -29.9088   23.6343 C   0  0  0  0  0  0
  -16.7304  -28.6508   23.0366 C   0  0  0  0  0  0
  -26.4557  -31.6545   25.0711 C   0  0  0  0  0  0
  -25.3695  -31.3789   26.1376 C   0  0  0  0  0  0
  -27.0443  -30.2913   24.6421 C   0  0  0  0  0  0
  -27.6053  -32.4348   25.7514 C   0  0  0  0  0  0
  -27.5568  -37.1764   24.8467 C   0  0  0  0  0  0
  -21.4321  -29.3047   22.3546 N   0  0  0  0  0  0
  -26.4276  -37.3714   23.9411 N   0  0  0  0  0  0
  -24.7439  -30.9995   22.0872 N   0  0  0  0  0  0
  -23.4217  -28.8032   23.3012 O   0  0  0  0  0  0
  -28.1987  -25.8671   20.2618 O   0  0  0  0  0  0
  -26.5695  -34.8890   22.4610 O   0  0  0  0  0  0
  -23.5672  -32.1237   23.6879 O   0  0  0  0  0  0
  -29.7369  -22.1840   19.6714 C   0  0  0  0  0  0
  -30.1590  -20.7632   19.7119 C   0  0  0  0  0  0
  -27.8495  -21.6002   20.8487 C   0  0  0  0  0  0
  -28.5344  -22.7488   20.2501 C   0  0  0  0  0  0
  -29.4752  -19.6152   20.3029 C   0  0  0  0  0  0
  -28.2638  -20.1677   20.8886 C   0  0  0  0  0  0
  -27.3473  -19.1918   21.6011 C   0  0  0  0  0  0
  -30.1874  -18.0280   20.3303 C   0  0  0  0  0  0
  -27.8085  -24.3096   20.0163 C   0  0  0  0  0  0
  -29.7401  -16.4523   20.4624 N   0  0  0  0  0  0
  -31.4602  -12.9355   19.1961 H   0  0  0  0  0  0
  -30.4773  -11.8344   20.1129 H   0  0  0  0  0  0
  -29.8938  -11.7424   17.6610 H   0  0  0  0  0  0
  -29.5757  -13.4599   17.6588 H   0  0  0  0  0  0
  -28.0130  -11.2758   19.0587 H   0  0  0  0  0  0
  -27.4070  -12.3727   17.8437 H   0  0  0  0  0  0
  -27.5401  -14.2455   19.3443 H   0  0  0  0  0  0
  -28.7978  -12.4724   21.4912 H   0  0  0  0  0  0
  -28.3060  -14.1385   21.7010 H   0  0  0  0  0  0
  -25.2776   -9.5687   22.4764 H   0  0  0  0  0  0
  -24.0016   -7.4634   22.7470 H   0  0  0  0  0  0
  -21.0859   -8.8776   19.8947 H   0  0  0  0  0  0
  -22.3714  -10.9675   19.6166 H   0  0  0  0  0  0
  -21.2006   -7.6149   23.9715 H   0  0  0  0  0  0
  -21.1484   -6.0524   25.9077 H   0  0  0  0  0  0
  -22.0596   -2.7611   23.2845 H   0  0  0  0  0  0
  -22.4066  -11.9838   22.4842 H   0  0  0  0  0  0
  -21.1035  -13.1165   22.2663 H   0  0  0  0  0  0
  -24.6291  -15.8447   20.5210 H   0  0  0  0  0  0
  -26.2388  -15.6369   20.0535 H   0  0  0  0  0  0
  -26.7364  -32.5166   23.0916 H   0  0  0  0  0  0
  -25.0090  -33.9515   25.0230 H   0  0  0  0  0  0
  -22.7821  -31.2749   21.3585 H   0  0  0  0  0  0
  -23.3764  -35.9529   23.3284 H   0  0  0  0  0  0
  -24.3566  -36.8877   22.2064 H   0  0  0  0  0  0
  -23.7238  -37.6391   23.6709 H   0  0  0  0  0  0
  -26.2161  -31.3960   20.6252 H   0  0  0  0  0  0
  -26.9002  -30.7020   22.0552 H   0  0  0  0  0  0
  -28.1415  -28.6307   21.2830 H   0  0  0  0  0  0
  -25.8675  -25.7775   18.9816 H   0  0  0  0  0  0
  -23.9967  -27.2904   18.9456 H   0  0  0  0  0  0
  -23.8610  -30.5385   19.3917 H   0  0  0  0  0  0
  -22.8187  -29.2201   19.8290 H   0  0  0  0  0  0
  -25.1329  -36.1775   25.0794 H   0  0  0  0  0  0
  -21.0037  -28.3352   24.1318 H   0  0  0  0  0  0
  -20.5680  -26.2369   23.3640 H   0  0  0  0  0  0
  -21.6662  -26.7419   22.1206 H   0  0  0  0  0  0
  -19.6926  -25.6283   21.1271 H   0  0  0  0  0  0
  -19.6702  -27.3169   20.6724 H   0  0  0  0  0  0
  -17.4220  -26.6689   21.4032 H   0  0  0  0  0  0
  -18.0348  -26.0097   22.9036 H   0  0  0  0  0  0
  -19.7969  -30.7318   24.2211 H   0  0  0  0  0  0
  -17.5039  -31.6277   24.5166 H   0  0  0  0  0  0
  -15.5375  -30.2979   23.7689 H   0  0  0  0  0  0
  -15.8705  -28.0811   22.7107 H   0  0  0  0  0  0
  -24.5887  -30.7124   25.7694 H   0  0  0  0  0  0
  -24.8873  -32.2990   26.4687 H   0  0  0  0  0  0
  -25.7940  -30.9037   27.0228 H   0  0  0  0  0  0
  -26.3100  -29.6603   24.1400 H   0  0  0  0  0  0
  -27.3952  -29.7265   25.5067 H   0  0  0  0  0  0
  -27.9055  -30.4099   23.9844 H   0  0  0  0  0  0
  -27.2622  -33.3693   26.1966 H   0  0  0  0  0  0
  -28.3932  -32.6837   25.0392 H   0  0  0  0  0  0
  -28.0640  -31.8555   26.5536 H   0  0  0  0  0  0
  -28.2572  -38.0072   24.7515 H   0  0  0  0  0  0
  -28.1078  -36.2601   24.6295 H   0  0  0  0  0  0
  -27.2286  -37.1412   25.8870 H   0  0  0  0  0  0
  -20.9562  -29.8746   21.6691 H   0  0  0  0  0  0
  -26.0123  -38.2772   24.1422 H   0  0  0  0  0  0
  -30.3748  -22.8655   19.1258 H   0  0  0  0  0  0
  -31.1027  -20.5472   19.2300 H   0  0  0  0  0  0
  -26.8927  -21.8294   21.2974 H   0  0  0  0  0  0
  -26.3765  -19.6359   21.8233 H   0  0  0  0  0  0
  -27.7953  -18.8676   22.5407 H   0  0  0  0  0  0
  -27.1740  -18.3096   20.9839 H   0  0  0  0  0  0
  -30.9387  -18.1241   21.1148 H   0  0  0  0  0  0
  -30.7800  -18.0205   19.4149 H   0  0  0  0  0  0
  -26.8494  -24.2061   20.5246 H   0  0  0  0  0  0
  -27.5560  -24.2802   18.9565 H   0  0  0  0  0  0
  -28.7493  -16.3233   20.6002 H   0  0  0  0  0  0
  1 25  1  0  0  0
  1 30  2  0  0  0
  1 80  1  0  0  0
  2  3  1  0  0  0
  2 25  1  0  0  0
  2 81  1  0  0  0
  2 82  1  0  0  0
  3  4  1  0  0  0
  3 83  1  0  0  0
  3 84  1  0  0  0
  4  5  1  0  0  0
  4 85  1  0  0  0
  4 86  1  0  0  0
  5  6  1  0  0  0
  5 26  1  0  0  0
  5 87  1  0  0  0
  6 25  1  0  0  0
  6 88  1  0  0  0
  6 89  1  0  0  0
  7  8  2  0  0  0
  7 26  1  0  0  0
  7 29  1  0  0  0
  8  9  1  0  0  0
  8 22  1  0  0  0
  9 10  1  0  0  0
  9 27  2  0  0  0
 10 11  2  0  0  0
 10 15  1  0  0  0
 11 12  1  0  0  0
 11 90  1  0  0  0
 12 13  2  0  0  0
 12 91  1  0  0  0
 13 14  1  0  0  0
 13 31  1  0  0  0
 14 15  2  0  0  0
 14 92  1  0  0  0
 15 93  1  0  0  0
 16 17  2  0  0  0
 16 21  1  0  0  0
 16 31  1  0  0  0
 17 18  1  0  0  0
 17 94  1  0  0  0
 18 19  2  0  0  0
 18 95  1  0  0  0
 19 20  1  0  0  0
 19 24  1  0  0  0
 20 21  2  0  0  0
 20 96  1  0  0  0
 21 23  1  0  0  0
 22 28  1  0  0  0
 22 32  2  0  0  0
 26 27  1  0  0  0
 28 97  1  0  0  0
 28 98  1  0  0  0
 29 99  1  0  0  0
 29100  1  0  0  0
 33 34  1  0  0  0
 33 66  1  0  0  0
 33 70  2  0  0  0
 34 36  1  0  0  0
 34 59  1  0  0  0
 34101  1  0  0  0
 35 44  2  0  0  0
 35 45  1  0  0  0
 35 68  1  0  0  0
 36 56  1  0  0  0
 36102  1  0  0  0
 37 39  1  0  0  0
 37 47  1  0  0  0
 37 66  1  0  0  0
 37103  1  0  0  0
 38 43  2  0  0  0
 38 46  1  0  0  0
 38 47  1  0  0  0
 39 64  1  0  0  0
 39 67  2  0  0  0
 40 52  1  0  0  0
 40 53  2  0  0  0
 40 58  1  0  0  0
 41104  1  0  0  0
 41105  1  0  0  0
 41106  1  0  0  0
 41 48  1  0  0  0
 42 43  1  0  0  0
 42 66  1  0  0  0
 42107  1  0  0  0
 42108  1  0  0  0
 43 44  1  0  0  0
 44109  1  0  0  0
 45 46  2  0  0  0
 45110  1  0  0  0
 46111  1  0  0  0
 47112  1  0  0  0
 47113  1  0  0  0
 48 56  1  0  0  0
 48 65  1  0  0  0
 48114  1  0  0  0
 49 50  1  0  0  0
 49 53  1  0  0  0
 49 64  1  0  0  0
 49115  1  0  0  0
 50 51  1  0  0  0
 50116  1  0  0  0
 50117  1  0  0  0
 51 52  1  0  0  0
 51118  1  0  0  0
 51119  1  0  0  0
 52120  1  0  0  0
 52121  1  0  0  0
 53 54  1  0  0  0
 54 55  2  0  0  0
 54122  1  0  0  0
 55 57  1  0  0  0
 55123  1  0  0  0
 56 69  2  0  0  0
 57 58  2  0  0  0
 57124  1  0  0  0
 58125  1  0  0  0
 59 60  1  0  0  0
 59 61  1  0  0  0
 59 62  1  0  0  0
 60126  1  0  0  0
 60127  1  0  0  0
 60128  1  0  0  0
 61129  1  0  0  0
 61130  1  0  0  0
 61131  1  0  0  0
 62132  1  0  0  0
 62133  1  0  0  0
 62134  1  0  0  0
 63 65  1  0  0  0
 63135  1  0  0  0
 63136  1  0  0  0
 63137  1  0  0  0
 64138  1  0  0  0
 65139  1  0  0  0
 68 79  1  0  0  0
 71 72  2  0  0  0
 71 74  1  0  0  0
 71140  1  0  0  0
 72 75  1  0  0  0
 72141  1  0  0  0
 73 74  2  0  0  0
 73 76  1  0  0  0
 73142  1  0  0  0
 74 79  1  0  0  0
 75 76  2  0  0  0
 75 78  1  0  0  0
 76 77  1  0  0  0
 77143  1  0  0  0
 77144  1  0  0  0
 77145  1  0  0  0
 78 80  1  0  0  0
 78146  1  0  0  0
 78147  1  0  0  0
 79148  1  0  0  0
 79149  1  0  0  0
 80150  1  0  0  0
M  ISO  4   1 100  68 101  79 101  80 100
M  END
> <chiral flag>
0

> <version>
0

> <s_m_source_file>
/data/baiqing/PycharmProjects/Reinvent-master-3.2/result/LINK_invent/BTK/process_docking_weight1_custom_sum_contain_oxygen_bond_distance_aromatic_linkinvent_7_9_3/rearranged_h_0133.sdf

> <i_m_source_file_index>
2

> <r_mmod_Potential_Energy-OPLS-2005>
1011.51025390625

> <r_mmod_Stretch_Energy-OPLS-2005>
446.362121582031

> <r_mmod_Bend_Energy-OPLS-2005>
421.889862060547

> <r_mmod_Torsional_Energy-OPLS-2005>
214.760284423828

> <r_mmod_Improper_Torsional_Energy-OPLS-2005>
7.14611434936523

> <r_mmod_Van_der_Waal_Energy-OPLS-2005>
130.517288208008

> <r_mmod_Electrostatic_Energy-OPLS-2005>
-383.772766113281

> <r_mmod_Solvation_Energy-OPLS-2005>
-212.566070556641

> <b_mmod_Minimization_Converged-OPLS-2005>
0

> <r_mmod_RMS_Derivative-OPLS-2005>
0.40788397192955

$$$$
2
                    3D
 Structure written by MMmdl.
149157  0  0  1  0            999 V2000
  -30.5146  -14.8970   20.4391 C   0  0  0  0  0  0
  -30.4552  -12.5516   19.4882 C   0  0  0  0  0  0
  -29.5258  -12.5307   18.2503 C   0  0  0  0  0  0
  -28.0549  -12.3233   18.6638 C   0  0  0  0  0  0
  -27.6402  -13.2347   19.8478 C   0  0  2  0  0  0
  -28.6849  -13.2020   20.9851 C   0  0  0  0  0  0
  -25.2507  -13.8183   20.5687 C   0  0  0  0  0  0
  -24.1808  -13.0432   20.9226 C   0  0  0  0  0  0
  -24.6401  -11.6911   20.8754 C   0  0  0  0  0  0
  -23.9075  -10.4289   21.0411 C   0  0  0  0  0  0
  -24.3623   -9.4203   21.9187 C   0  0  0  0  0  0
  -23.6294   -8.2241   22.0755 C   0  0  0  0  0  0
  -22.4276   -8.0282   21.3546 C   0  0  0  0  0  0
  -21.9915   -9.0257   20.4649 C   0  0  0  0  0  0
  -22.7247  -10.2135   20.3059 C   0  0  0  0  0  0
  -21.6853   -6.0735   22.5279 C   0  0  0  0  0  0
  -21.4014   -6.5639   23.8213 C   0  0  0  0  0  0
  -21.3660   -5.6792   24.9174 C   0  0  0  0  0  0
  -21.6043   -4.3054   24.7225 C   0  0  0  0  0  0
  -21.8819   -3.8147   23.4346 C   0  0  0  0  0  0
  -21.9192   -4.6963   22.3402 C   0  0  0  0  0  0
  -22.7828  -13.5218   21.1878 C   0  0  0  0  0  0
  -22.1661   -4.2149   21.0980 F   0  0  0  0  0  0
  -21.5629   -3.4538   25.7738 F   0  0  0  0  0  0
  -29.9715  -13.6175   20.4055 N   0  0  0  0  0  0
  -26.2931  -12.9392   20.3252 N   0  0  0  0  0  0
  -25.9331  -11.6536   20.5737 N   0  0  0  0  0  0
  -22.0468  -12.8211   22.0432 N   0  0  0  0  0  0
  -25.4175  -15.1904   20.4053 N   0  0  0  0  0  0
  -31.7003  -15.0433   20.1203 O   0  0  0  0  0  0
  -21.6639   -6.8879   21.4241 O   0  0  0  0  0  0
  -22.3517  -14.5522   20.6717 O   0  0  0  0  0  0
  -24.6418  -31.8461   23.1900 C   0  0  0  0  0  0
  -25.9198  -32.4706   23.8284 C   0  0  1  0  0  0
  -27.2215  -27.1597   20.1448 C   0  0  0  0  0  0
  -25.5952  -33.8511   24.2202 N   0  0  0  0  0  0
  -23.4442  -30.4665   21.5354 C   0  0  2  0  0  0
  -24.8938  -28.8978   20.1109 C   0  0  0  0  0  0
  -22.7558  -29.4559   22.4868 C   0  0  0  0  0  0
  -18.0304  -28.1393   22.8479 C   0  0  0  0  0  0
  -24.1491  -36.7261   23.2642 C   0  0  0  0  0  0
  -25.9991  -30.7276   21.3852 C   0  0  0  0  0  0
  -26.0714  -29.3413   20.7262 C   0  0  0  0  0  0
  -27.2366  -28.4889   20.7252 C   0  0  0  0  0  0
  -26.0150  -26.8126   19.4950 C   0  0  0  0  0  0
  -24.8774  -27.6458   19.4806 C   0  0  0  0  0  0
  -23.6694  -29.7971   20.1543 C   0  0  0  0  0  0
  -25.4122  -36.3039   24.0317 C   0  0  1  0  0  0
  -20.5915  -28.3719   23.1239 C   0  0  2  0  0  0
  -20.6788  -26.9424   22.5403 C   0  0  0  0  0  0
  -19.5761  -26.6381   21.5211 C   0  0  0  0  0  0
  -18.1943  -26.7932   22.1625 C   0  0  0  0  0  0
  -19.1560  -28.8874   23.2852 C   0  0  0  0  0  0
  -18.9476  -30.1470   23.8878 C   0  0  0  0  0  0
  -17.6473  -30.6590   24.0559 C   0  0  0  0  0  0
  -25.9071  -34.9413   23.5067 C   0  0  0  0  0  0
  -16.5364  -29.9083   23.6334 C   0  0  0  0  0  0
  -16.7289  -28.6501   23.0356 C   0  0  0  0  0  0
  -26.4524  -31.6567   25.0718 C   0  0  0  0  0  0
  -25.3713  -31.3748   26.1414 C   0  0  0  0  0  0
  -27.0389  -30.2967   24.6285 C   0  0  0  0  0  0
  -27.6055  -32.4330   25.7504 C   0  0  0  0  0  0
  -27.5576  -37.1788   24.8466 C   0  0  0  0  0  0
  -21.4253  -29.3049   22.3614 N   0  0  0  0  0  0
  -26.4288  -37.3749   23.9407 N   0  0  0  0  0  0
  -24.7148  -31.0338   22.0923 N   0  0  0  0  0  0
  -23.4209  -28.8104   23.3009 O   0  0  0  0  0  0
  -28.2835  -26.1892   20.2094 O   0  0  0  0  0  0
  -26.5654  -34.8907   22.4644 O   0  0  0  0  0  0
  -23.5542  -32.1327   23.7132 O   0  0  0  0  0  0
  -28.2366  -18.0817   20.7183 C   0  0  0  0  0  0
  -30.5202  -18.5072   20.3130 C   0  0  0  0  0  0
  -27.9516  -19.4917   20.6393 C   0  0  0  0  0  0
  -30.2296  -19.9455   20.2477 C   0  0  0  0  0  0
  -29.5263  -17.4891   20.5531 C   0  0  0  0  0  0
  -28.9146  -20.5197   20.4005 C   0  0  0  0  0  0
  -29.0141  -23.3595   20.3275 C   0  0  0  0  0  0
  -27.9882  -24.6721   20.1002 C   0  0  0  0  0  0
  -29.6283  -15.9693   20.6755 N   0  0  0  0  0  0
  -28.4323  -21.9218   20.3165 N   0  0  0  0  0  0
  -31.4870  -12.7245   19.1781 H   0  0  0  0  0  0
  -30.4529  -11.5836   19.9914 H   0  0  0  0  0  0
  -29.8345  -11.7459   17.5584 H   0  0  0  0  0  0
  -29.6220  -13.4719   17.7066 H   0  0  0  0  0  0
  -27.9371  -11.2769   18.9476 H   0  0  0  0  0  0
  -27.3945  -12.4832   17.8106 H   0  0  0  0  0  0
  -27.6204  -14.2483   19.4471 H   0  0  0  0  0  0
  -28.7581  -12.2031   21.4177 H   0  0  0  0  0  0
  -28.3907  -13.8636   21.8015 H   0  0  0  0  0  0
  -25.2767   -9.5678   22.4764 H   0  0  0  0  0  0
  -24.0002   -7.4631   22.7473 H   0  0  0  0  0  0
  -21.0846   -8.8778   19.8954 H   0  0  0  0  0  0
  -22.3707  -10.9675   19.6169 H   0  0  0  0  0  0
  -21.2007   -7.6147   23.9716 H   0  0  0  0  0  0
  -21.1482   -6.0522   25.9077 H   0  0  0  0  0  0
  -22.0598   -2.7609   23.2845 H   0  0  0  0  0  0
  -22.4085  -11.9877   22.4826 H   0  0  0  0  0  0
  -21.1084  -13.1235   22.2631 H   0  0  0  0  0  0
  -24.6349  -15.8303   20.4887 H   0  0  0  0  0  0
  -26.2295  -15.6146   19.9775 H   0  0  0  0  0  0
  -26.7265  -32.5321   23.1016 H   0  0  0  0  0  0
  -25.0078  -33.9628   25.0335 H   0  0  0  0  0  0
  -22.7459  -31.2919   21.3824 H   0  0  0  0  0  0
  -23.3756  -35.9590   23.3296 H   0  0  0  0  0  0
  -24.3578  -36.8900   22.2058 H   0  0  0  0  0  0
  -23.7245  -37.6455   23.6682 H   0  0  0  0  0  0
  -26.1521  -31.4836   20.6138 H   0  0  0  0  0  0
  -26.8706  -30.7772   22.0264 H   0  0  0  0  0  0
  -28.1343  -28.8249   21.2250 H   0  0  0  0  0  0
  -25.9116  -25.8577   19.0039 H   0  0  0  0  0  0
  -23.9784  -27.3007   18.9886 H   0  0  0  0  0  0
  -23.8040  -30.5720   19.3988 H   0  0  0  0  0  0
  -22.7849  -29.2378   19.8444 H   0  0  0  0  0  0
  -25.1309  -36.1870   25.0810 H   0  0  0  0  0  0
  -21.0009  -28.3307   24.1359 H   0  0  0  0  0  0
  -20.5681  -26.2332   23.3621 H   0  0  0  0  0  0
  -21.6654  -26.7430   22.1202 H   0  0  0  0  0  0
  -19.6922  -25.6286   21.1255 H   0  0  0  0  0  0
  -19.6696  -27.3179   20.6731 H   0  0  0  0  0  0
  -17.4210  -26.6675   21.4030 H   0  0  0  0  0  0
  -18.0345  -26.0079   22.9027 H   0  0  0  0  0  0
  -19.7952  -30.7291   24.2239 H   0  0  0  0  0  0
  -17.5025  -31.6268   24.5164 H   0  0  0  0  0  0
  -15.5364  -30.2978   23.7667 H   0  0  0  0  0  0
  -15.8690  -28.0811   22.7084 H   0  0  0  0  0  0
  -24.5901  -30.7086   25.7736 H   0  0  0  0  0  0
  -24.8891  -32.2927   26.4787 H   0  0  0  0  0  0
  -25.8001  -30.8958   27.0225 H   0  0  0  0  0  0
  -26.3004  -29.6690   24.1283 H   0  0  0  0  0  0
  -27.4003  -29.7262   25.4851 H   0  0  0  0  0  0
  -27.8911  -30.4209   23.9599 H   0  0  0  0  0  0
  -27.2648  -33.3646   26.2033 H   0  0  0  0  0  0
  -28.3894  -32.6864   25.0354 H   0  0  0  0  0  0
  -28.0693  -31.8488   26.5463 H   0  0  0  0  0  0
  -28.2588  -38.0089   24.7508 H   0  0  0  0  0  0
  -28.1076  -36.2618   24.6298 H   0  0  0  0  0  0
  -27.2293  -37.1442   25.8869 H   0  0  0  0  0  0
  -20.9458  -29.8765   21.6799 H   0  0  0  0  0  0
  -26.0156  -38.2819   24.1405 H   0  0  0  0  0  0
  -27.3971  -17.4306   20.9148 H   0  0  0  0  0  0
  -31.5454  -18.1939   20.1758 H   0  0  0  0  0  0
  -26.9191  -19.7814   20.7746 H   0  0  0  0  0  0
  -31.0561  -20.6149   20.0569 H   0  0  0  0  0  0
  -29.5153  -23.4908   21.2874 H   0  0  0  0  0  0
  -29.8051  -23.4065   19.5781 H   0  0  0  0  0  0
  -27.1462  -24.5051   20.7732 H   0  0  0  0  0  0
  -27.5883  -24.5250   19.0974 H   0  0  0  0  0  0
  -28.7396  -15.5694   20.9336 H   0  0  0  0  0  0
  -27.4167  -21.9648   20.3636 H   0  0  0  0  0  0
  1 25  1  0  0  0
  1 30  2  0  0  0
  1 79  1  0  0  0
  2  3  1  0  0  0
  2 25  1  0  0  0
  2 81  1  0  0  0
  2 82  1  0  0  0
  3  4  1  0  0  0
  3 83  1  0  0  0
  3 84  1  0  0  0
  4  5  1  0  0  0
  4 85  1  0  0  0
  4 86  1  0  0  0
  5  6  1  0  0  0
  5 26  1  0  0  0
  5 87  1  0  0  0
  6 25  1  0  0  0
  6 88  1  0  0  0
  6 89  1  0  0  0
  7  8  2  0  0  0
  7 26  1  0  0  0
  7 29  1  0  0  0
  8  9  1  0  0  0
  8 22  1  0  0  0
  9 10  1  0  0  0
  9 27  2  0  0  0
 10 11  2  0  0  0
 10 15  1  0  0  0
 11 12  1  0  0  0
 11 90  1  0  0  0
 12 13  2  0  0  0
 12 91  1  0  0  0
 13 14  1  0  0  0
 13 31  1  0  0  0
 14 15  2  0  0  0
 14 92  1  0  0  0
 15 93  1  0  0  0
 16 17  2  0  0  0
 16 21  1  0  0  0
 16 31  1  0  0  0
 17 18  1  0  0  0
 17 94  1  0  0  0
 18 19  2  0  0  0
 18 95  1  0  0  0
 19 20  1  0  0  0
 19 24  1  0  0  0
 20 21  2  0  0  0
 20 96  1  0  0  0
 21 23  1  0  0  0
 22 28  1  0  0  0
 22 32  2  0  0  0
 26 27  1  0  0  0
 28 97  1  0  0  0
 28 98  1  0  0  0
 29 99  1  0  0  0
 29100  1  0  0  0
 33 34  1  0  0  0
 33 66  1  0  0  0
 33 70  2  0  0  0
 34 36  1  0  0  0
 34 59  1  0  0  0
 34101  1  0  0  0
 35 44  2  0  0  0
 35 45  1  0  0  0
 35 68  1  0  0  0
 36 56  1  0  0  0
 36102  1  0  0  0
 37 39  1  0  0  0
 37 47  1  0  0  0
 37 66  1  0  0  0
 37103  1  0  0  0
 38 43  2  0  0  0
 38 46  1  0  0  0
 38 47  1  0  0  0
 39 64  1  0  0  0
 39 67  2  0  0  0
 40 52  1  0  0  0
 40 53  2  0  0  0
 40 58  1  0  0  0
 41104  1  0  0  0
 41105  1  0  0  0
 41106  1  0  0  0
 41 48  1  0  0  0
 42 43  1  0  0  0
 42 66  1  0  0  0
 42107  1  0  0  0
 42108  1  0  0  0
 43 44  1  0  0  0
 44109  1  0  0  0
 45 46  2  0  0  0
 45110  1  0  0  0
 46111  1  0  0  0
 47112  1  0  0  0
 47113  1  0  0  0
 48 56  1  0  0  0
 48 65  1  0  0  0
 48114  1  0  0  0
 49 50  1  0  0  0
 49 53  1  0  0  0
 49 64  1  0  0  0
 49115  1  0  0  0
 50 51  1  0  0  0
 50116  1  0  0  0
 50117  1  0  0  0
 51 52  1  0  0  0
 51118  1  0  0  0
 51119  1  0  0  0
 52120  1  0  0  0
 52121  1  0  0  0
 53 54  1  0  0  0
 54 55  2  0  0  0
 54122  1  0  0  0
 55 57  1  0  0  0
 55123  1  0  0  0
 56 69  2  0  0  0
 57 58  2  0  0  0
 57124  1  0  0  0
 58125  1  0  0  0
 59 60  1  0  0  0
 59 61  1  0  0  0
 59 62  1  0  0  0
 60126  1  0  0  0
 60127  1  0  0  0
 60128  1  0  0  0
 61129  1  0  0  0
 61130  1  0  0  0
 61131  1  0  0  0
 62132  1  0  0  0
 62133  1  0  0  0
 62134  1  0  0  0
 63 65  1  0  0  0
 63135  1  0  0  0
 63136  1  0  0  0
 63137  1  0  0  0
 64138  1  0  0  0
 65139  1  0  0  0
 68 78  1  0  0  0
 71 73  2  0  0  0
 71 75  1  0  0  0
 71140  1  0  0  0
 72 74  1  0  0  0
 72 75  2  0  0  0
 72141  1  0  0  0
 73 76  1  0  0  0
 73142  1  0  0  0
 74 76  2  0  0  0
 74143  1  0  0  0
 75 79  1  0  0  0
 76 80  1  0  0  0
 77 78  1  0  0  0
 77 80  1  0  0  0
 77144  1  0  0  0
 77145  1  0  0  0
 78146  1  0  0  0
 78147  1  0  0  0
 79148  1  0  0  0
 80149  1  0  0  0
M  ISO  4   1 100  68 101  78 101  79 100
M  END
> <chiral flag>
0

> <version>
0

> <s_m_source_file>
/data/baiqing/PycharmProjects/Reinvent-master-3.2/result/LINK_invent/BTK/process_docking_weight1_custom_sum_contain_oxygen_bond_distance_aromatic_linkinvent_7_9_3/rearranged_h_0133.sdf

> <i_m_source_file_index>
3

> <r_mmod_Potential_Energy-OPLS-2005>
390.738555908203

> <r_mmod_Stretch_Energy-OPLS-2005>
202.600051879883

> <r_mmod_Bend_Energy-OPLS-2005>
288.785308837891

> <r_mmod_Torsional_Energy-OPLS-2005>
203.258590698242

> <r_mmod_Improper_Torsional_Energy-OPLS-2005>
4.59908533096313

> <r_mmod_Van_der_Waal_Energy-OPLS-2005>
131.553817749023

> <r_mmod_Electrostatic_Energy-OPLS-2005>
-379.286437988281

> <r_mmod_Solvation_Energy-OPLS-2005>
-225.920135498047

> <b_mmod_Minimization_Converged-OPLS-2005>
0

> <r_mmod_RMS_Derivative-OPLS-2005>
0.165144622325897

$$$$
3
                    3D
 Structure written by MMmdl.
155163  0  0  1  0            999 V2000
  -30.7174  -14.4660   20.5473 C   0  0  0  0  0  0
  -30.4144  -12.2987   19.4276 C   0  0  0  0  0  0
  -29.4969  -12.5071   18.2069 C   0  0  0  0  0  0
  -28.0186  -12.3599   18.6190 C   0  0  0  0  0  0
  -27.6611  -13.2099   19.8694 C   0  0  2  0  0  0
  -28.7028  -13.0163   20.9972 C   0  0  0  0  0  0
  -25.2607  -13.8163   20.5645 C   0  0  0  0  0  0
  -24.1863  -13.0430   20.9184 C   0  0  0  0  0  0
  -24.6416  -11.6906   20.8722 C   0  0  0  0  0  0
  -23.9060  -10.4303   21.0400 C   0  0  0  0  0  0
  -24.3613   -9.4226   21.9177 C   0  0  0  0  0  0
  -23.6296   -8.2254   22.0740 C   0  0  0  0  0  0
  -22.4275   -8.0298   21.3550 C   0  0  0  0  0  0
  -21.9914   -9.0256   20.4641 C   0  0  0  0  0  0
  -22.7227  -10.2141   20.3057 C   0  0  0  0  0  0
  -21.6858   -6.0735   22.5283 C   0  0  0  0  0  0
  -21.4009   -6.5640   23.8210 C   0  0  0  0  0  0
  -21.3658   -5.6803   24.9172 C   0  0  0  0  0  0
  -21.6044   -4.3066   24.7232 C   0  0  0  0  0  0
  -21.8816   -3.8146   23.4359 C   0  0  0  0  0  0
  -21.9188   -4.6959   22.3404 C   0  0  0  0  0  0
  -22.7904  -13.5248   21.1859 C   0  0  0  0  0  0
  -22.1670   -4.2146   21.0982 F   0  0  0  0  0  0
  -21.5609   -3.4550   25.7738 F   0  0  0  0  0  0
  -30.0349  -13.2967   20.4382 N   0  0  0  0  0  0
  -26.3040  -12.9338   20.3349 N   0  0  0  0  0  0
  -25.9348  -11.6498   20.5766 N   0  0  0  0  0  0
  -22.0552  -12.8222   22.0415 N   0  0  0  0  0  0
  -25.4331  -15.1858   20.3938 N   0  0  0  0  0  0
  -31.8554  -14.6241   20.0987 O   0  0  0  0  0  0
  -21.6647   -6.8892   21.4259 O   0  0  0  0  0  0
  -22.3595  -14.5556   20.6722 O   0  0  0  0  0  0
  -24.6132  -31.8695   23.2094 C   0  0  0  0  0  0
  -25.9016  -32.4827   23.8414 C   0  0  1  0  0  0
  -27.2402  -27.4491   20.1036 C   0  0  0  0  0  0
  -25.5859  -33.8622   24.2335 N   0  0  0  0  0  0
  -23.4043  -30.4898   21.5485 C   0  0  2  0  0  0
  -24.8531  -28.9515   20.1237 C   0  0  0  0  0  0
  -22.7395  -29.4671   22.4973 C   0  0  0  0  0  0
  -18.0280  -28.1417   22.8484 C   0  0  0  0  0  0
  -24.1480  -36.7334   23.2641 C   0  0  0  0  0  0
  -25.9292  -30.8387   21.3617 C   0  0  0  0  0  0
  -26.0096  -29.4683   20.7224 C   0  0  0  0  0  0
  -27.2073  -28.7196   20.7194 C   0  0  0  0  0  0
  -26.0739  -26.9437   19.4989 C   0  0  0  0  0  0
  -24.8766  -27.6837   19.5148 C   0  0  0  0  0  0
  -23.6163  -29.8197   20.1641 C   0  0  0  0  0  0
  -25.4096  -36.3128   24.0345 C   0  0  1  0  0  0
  -20.5862  -28.3702   23.1306 C   0  0  2  0  0  0
  -20.6772  -26.9443   22.5442 C   0  0  0  0  0  0
  -19.5774  -26.6426   21.5222 C   0  0  0  0  0  0
  -18.1956  -26.7962   22.1637 C   0  0  0  0  0  0
  -19.1524  -28.8870   23.2905 C   0  0  0  0  0  0
  -18.9444  -30.1466   23.8939 C   0  0  0  0  0  0
  -17.6447  -30.6612   24.0582 C   0  0  0  0  0  0
  -25.9020  -34.9474   23.5142 C   0  0  0  0  0  0
  -16.5337  -29.9115   23.6329 C   0  0  0  0  0  0
  -16.7256  -28.6535   23.0333 C   0  0  0  0  0  0
  -26.4455  -31.6596   25.0725 C   0  0  0  0  0  0
  -25.3743  -31.3675   26.1488 C   0  0  0  0  0  0
  -27.0301  -30.3061   24.6063 C   0  0  0  0  0  0
  -27.6061  -32.4292   25.7473 C   0  0  0  0  0  0
  -27.5578  -37.1823   24.8461 C   0  0  0  0  0  0
  -21.4129  -29.3047   22.3676 N   0  0  0  0  0  0
  -26.4297  -37.3803   23.9392 N   0  0  0  0  0  0
  -24.6671  -31.0803   22.1000 N   0  0  0  0  0  0
  -23.4130  -28.8227   23.3047 O   0  0  0  0  0  0
  -28.3974  -26.7165   20.0189 O   0  0  0  0  0  0
  -26.5611  -34.8919   22.4714 O   0  0  0  0  0  0
  -23.5311  -32.1415   23.7486 O   0  0  0  0  0  0
  -29.9845  -23.7998   21.0183 C   0  0  0  0  0  0
  -27.5560  -23.8593   21.0197 C   0  0  0  0  0  0
  -29.9562  -22.3930   20.8792 C   0  0  0  0  0  0
  -27.5272  -22.4542   20.8932 C   0  0  0  0  0  0
  -28.7858  -24.5447   21.0825 C   0  0  0  0  0  0
  -28.7219  -21.7040   20.8242 C   0  0  0  0  0  0
  -28.8103  -26.0647   21.2193 C   0  0  0  0  0  0
  -29.3055  -17.9286   20.9481 C   0  0  0  0  0  0
  -29.7561  -19.4098   20.8942 C   0  0  0  0  0  0
  -30.4739  -16.9160   20.9609 C   0  0  0  0  0  0
  -28.6197  -20.3078   20.6921 N   0  0  0  0  0  0
  -30.0176  -15.5158   21.0128 N   0  0  0  0  0  0
  -31.4651  -12.3704   19.1366 H   0  0  0  0  0  0
  -30.2855  -11.2928   19.8290 H   0  0  0  0  0  0
  -29.7374  -11.7845   17.4274 H   0  0  0  0  0  0
  -29.6684  -13.4952   17.7708 H   0  0  0  0  0  0
  -27.8334  -11.3042   18.8230 H   0  0  0  0  0  0
  -27.3645  -12.6225   17.7878 H   0  0  0  0  0  0
  -27.6989  -14.2540   19.5559 H   0  0  0  0  0  0
  -28.6803  -11.9933   21.3735 H   0  0  0  0  0  0
  -28.4732  -13.6517   21.8550 H   0  0  0  0  0  0
  -25.2746   -9.5689   22.4757 H   0  0  0  0  0  0
  -23.9994   -7.4639   22.7450 H   0  0  0  0  0  0
  -21.0839   -8.8757   19.8960 H   0  0  0  0  0  0
  -22.3660  -10.9671   19.6161 H   0  0  0  0  0  0
  -21.2023   -7.6150   23.9708 H   0  0  0  0  0  0
  -21.1480   -6.0536   25.9068 H   0  0  0  0  0  0
  -22.0600   -2.7611   23.2855 H   0  0  0  0  0  0
  -22.4152  -11.9852   22.4750 H   0  0  0  0  0  0
  -21.1185  -13.1250   22.2652 H   0  0  0  0  0  0
  -24.6602  -15.8399   20.4566 H   0  0  0  0  0  0
  -26.2811  -15.6093   20.0365 H   0  0  0  0  0  0
  -26.7070  -32.5567   23.1178 H   0  0  0  0  0  0
  -24.9961  -33.9780   25.0446 H   0  0  0  0  0  0
  -22.6955  -31.3069   21.4066 H   0  0  0  0  0  0
  -23.3723  -35.9690   23.3326 H   0  0  0  0  0  0
  -24.3580  -36.8927   22.2052 H   0  0  0  0  0  0
  -23.7241  -37.6547   23.6644 H   0  0  0  0  0  0
  -26.0355  -31.5985   20.5858 H   0  0  0  0  0  0
  -26.8211  -30.9010   21.9745 H   0  0  0  0  0  0
  -28.1053  -29.1206   21.1671 H   0  0  0  0  0  0
  -26.0889  -25.9788   19.0131 H   0  0  0  0  0  0
  -23.9889  -27.2765   19.0502 H   0  0  0  0  0  0
  -23.7308  -30.5971   19.4060 H   0  0  0  0  0  0
  -22.7406  -29.2419   19.8610 H   0  0  0  0  0  0
  -25.1271  -36.2022   25.0847 H   0  0  0  0  0  0
  -20.9958  -28.3291   24.1419 H   0  0  0  0  0  0
  -20.5675  -26.2307   23.3642 H   0  0  0  0  0  0
  -21.6650  -26.7497   22.1242 H   0  0  0  0  0  0
  -19.6947  -25.6335   21.1250 H   0  0  0  0  0  0
  -19.6707  -27.3259   20.6777 H   0  0  0  0  0  0
  -17.4240  -26.6635   21.4049 H   0  0  0  0  0  0
  -18.0382  -26.0153   22.9096 H   0  0  0  0  0  0
  -19.7931  -30.7279   24.2321 H   0  0  0  0  0  0
  -17.5001  -31.6285   24.5204 H   0  0  0  0  0  0
  -15.5343  -30.3022   23.7654 H   0  0  0  0  0  0
  -15.8658  -28.0869   22.7009 H   0  0  0  0  0  0
  -24.5875  -30.7080   25.7788 H   0  0  0  0  0  0
  -24.8989  -32.2829   26.5036 H   0  0  0  0  0  0
  -25.8106  -30.8745   27.0186 H   0  0  0  0  0  0
  -26.2835  -29.6807   24.1143 H   0  0  0  0  0  0
  -27.4124  -29.7308   25.4502 H   0  0  0  0  0  0
  -27.8641  -30.4405   23.9168 H   0  0  0  0  0  0
  -27.2698  -33.3534   26.2180 H   0  0  0  0  0  0
  -28.3805  -32.6932   25.0257 H   0  0  0  0  0  0
  -28.0811  -31.8336   26.5279 H   0  0  0  0  0  0
  -28.2622  -38.0103   24.7517 H   0  0  0  0  0  0
  -28.1065  -36.2639   24.6297 H   0  0  0  0  0  0
  -27.2318  -37.1492   25.8877 H   0  0  0  0  0  0
  -20.9301  -29.8609   21.6761 H   0  0  0  0  0  0
  -26.0200  -38.2889   24.1392 H   0  0  0  0  0  0
  -30.9374  -24.3062   21.0610 H   0  0  0  0  0  0
  -26.6299  -24.4138   21.0735 H   0  0  0  0  0  0
  -30.8964  -21.8637   20.8120 H   0  0  0  0  0  0
  -26.5667  -21.9591   20.8472 H   0  0  0  0  0  0
  -28.1976  -26.3520   22.0780 H   0  0  0  0  0  0
  -29.8241  -26.3975   21.4486 H   0  0  0  0  0  0
  -28.6683  -17.7116   20.0890 H   0  0  0  0  0  0
  -28.6878  -17.7847   21.8358 H   0  0  0  0  0  0
  -30.2706  -19.6775   21.8204 H   0  0  0  0  0  0
  -30.4745  -19.5470   20.0853 H   0  0  0  0  0  0
  -31.1364  -17.1069   21.8062 H   0  0  0  0  0  0
  -31.0768  -17.0744   20.0627 H   0  0  0  0  0  0
  -27.6922  -19.8929   20.6502 H   0  0  0  0  0  0
  -29.0823  -15.3354   21.3486 H   0  0  0  0  0  0
  1 25  1  0  0  0
  1 30  2  0  0  0
  1 82  1  0  0  0
  2  3  1  0  0  0
  2 25  1  0  0  0
  2 83  1  0  0  0
  2 84  1  0  0  0
  3  4  1  0  0  0
  3 85  1  0  0  0
  3 86  1  0  0  0
  4  5  1  0  0  0
  4 87  1  0  0  0
  4 88  1  0  0  0
  5  6  1  0  0  0
  5 26  1  0  0  0
  5 89  1  0  0  0
  6 25  1  0  0  0
  6 90  1  0  0  0
  6 91  1  0  0  0
  7  8  2  0  0  0
  7 26  1  0  0  0
  7 29  1  0  0  0
  8  9  1  0  0  0
  8 22  1  0  0  0
  9 10  1  0  0  0
  9 27  2  0  0  0
 10 11  2  0  0  0
 10 15  1  0  0  0
 11 12  1  0  0  0
 11 92  1  0  0  0
 12 13  2  0  0  0
 12 93  1  0  0  0
 13 14  1  0  0  0
 13 31  1  0  0  0
 14 15  2  0  0  0
 14 94  1  0  0  0
 15 95  1  0  0  0
 16 17  2  0  0  0
 16 21  1  0  0  0
 16 31  1  0  0  0
 17 18  1  0  0  0
 17 96  1  0  0  0
 18 19  2  0  0  0
 18 97  1  0  0  0
 19 20  1  0  0  0
 19 24  1  0  0  0
 20 21  2  0  0  0
 20 98  1  0  0  0
 21 23  1  0  0  0
 22 28  1  0  0  0
 22 32  2  0  0  0
 26 27  1  0  0  0
 28 99  1  0  0  0
 28100  1  0  0  0
 29101  1  0  0  0
 29102  1  0  0  0
 33 34  1  0  0  0
 33 66  1  0  0  0
 33 70  2  0  0  0
 34 36  1  0  0  0
 34 59  1  0  0  0
 34103  1  0  0  0
 35 44  2  0  0  0
 35 45  1  0  0  0
 35 68  1  0  0  0
 36 56  1  0  0  0
 36104  1  0  0  0
 37 39  1  0  0  0
 37 47  1  0  0  0
 37 66  1  0  0  0
 37105  1  0  0  0
 38 43  2  0  0  0
 38 46  1  0  0  0
 38 47  1  0  0  0
 39 64  1  0  0  0
 39 67  2  0  0  0
 40 52  1  0  0  0
 40 53  2  0  0  0
 40 58  1  0  0  0
 41106  1  0  0  0
 41107  1  0  0  0
 41108  1  0  0  0
 41 48  1  0  0  0
 42 43  1  0  0  0
 42 66  1  0  0  0
 42109  1  0  0  0
 42110  1  0  0  0
 43 44  1  0  0  0
 44111  1  0  0  0
 45 46  2  0  0  0
 45112  1  0  0  0
 46113  1  0  0  0
 47114  1  0  0  0
 47115  1  0  0  0
 48 56  1  0  0  0
 48 65  1  0  0  0
 48116  1  0  0  0
 49 50  1  0  0  0
 49 53  1  0  0  0
 49 64  1  0  0  0
 49117  1  0  0  0
 50 51  1  0  0  0
 50118  1  0  0  0
 50119  1  0  0  0
 51 52  1  0  0  0
 51120  1  0  0  0
 51121  1  0  0  0
 52122  1  0  0  0
 52123  1  0  0  0
 53 54  1  0  0  0
 54 55  2  0  0  0
 54124  1  0  0  0
 55 57  1  0  0  0
 55125  1  0  0  0
 56 69  2  0  0  0
 57 58  2  0  0  0
 57126  1  0  0  0
 58127  1  0  0  0
 59 60  1  0  0  0
 59 61  1  0  0  0
 59 62  1  0  0  0
 60128  1  0  0  0
 60129  1  0  0  0
 60130  1  0  0  0
 61131  1  0  0  0
 61132  1  0  0  0
 61133  1  0  0  0
 62134  1  0  0  0
 62135  1  0  0  0
 62136  1  0  0  0
 63 65  1  0  0  0
 63137  1  0  0  0
 63138  1  0  0  0
 63139  1  0  0  0
 64140  1  0  0  0
 65141  1  0  0  0
 68 77  1  0  0  0
 71 73  2  0  0  0
 71 75  1  0  0  0
 71142  1  0  0  0
 72 74  1  0  0  0
 72 75  2  0  0  0
 72143  1  0  0  0
 73 76  1  0  0  0
 73144  1  0  0  0
 74 76  2  0  0  0
 74145  1  0  0  0
 75 77  1  0  0  0
 76 81  1  0  0  0
 77146  1  0  0  0
 77147  1  0  0  0
 78 79  1  0  0  0
 78 80  1  0  0  0
 78148  1  0  0  0
 78149  1  0  0  0
 79 81  1  0  0  0
 79150  1  0  0  0
 79151  1  0  0  0
 80 82  1  0  0  0
 80152  1  0  0  0
 80153  1  0  0  0
 81154  1  0  0  0
 82155  1  0  0  0
M  ISO  4   1 100  68 101  77 101  82 100
M  END
> <chiral flag>
0

> <version>
0

> <s_m_source_file>
/data/baiqing/PycharmProjects/Reinvent-master-3.2/result/LINK_invent/BTK/process_docking_weight1_custom_sum_contain_oxygen_bond_distance_aromatic_linkinvent_7_9_3/rearranged_h_0133.sdf

> <i_m_source_file_index>
4

> <r_mmod_Potential_Energy-OPLS-2005>
-69.7395477294922

> <r_mmod_Stretch_Energy-OPLS-2005>
33.5330772399902

> <r_mmod_Bend_Energy-OPLS-2005>
97.0257110595703

> <r_mmod_Torsional_Energy-OPLS-2005>
224.537506103516

> <r_mmod_Improper_Torsional_Energy-OPLS-2005>
4.75038528442383

> <r_mmod_Van_der_Waal_Energy-OPLS-2005>
146.017196655273

> <r_mmod_Electrostatic_Energy-OPLS-2005>
-367.864135742188

> <r_mmod_Solvation_Energy-OPLS-2005>
-219.553405761719

> <b_mmod_Minimization_Converged-OPLS-2005>
0

> <r_mmod_RMS_Derivative-OPLS-2005>
3.65446496009827

$$$$
4
                    3D
 Structure written by MMmdl.
158167  0  0  1  0            999 V2000
  -30.5102  -15.0536   20.3766 C   0  0  0  0  0  0
  -30.4362  -12.6526   19.5178 C   0  0  0  0  0  0
  -29.5281  -12.5437   18.2697 C   0  0  0  0  0  0
  -28.0631  -12.3153   18.6846 C   0  0  0  0  0  0
  -27.6222  -13.2614   19.8317 C   0  0  2  0  0  0
  -28.6601  -13.3399   20.9716 C   0  0  0  0  0  0
  -25.2423  -13.8230   20.5716 C   0  0  0  0  0  0
  -24.1762  -13.0437   20.9239 C   0  0  0  0  0  0
  -24.6400  -11.6929   20.8752 C   0  0  0  0  0  0
  -23.9087  -10.4293   21.0398 C   0  0  0  0  0  0
  -24.3634   -9.4205   21.9176 C   0  0  0  0  0  0
  -23.6304   -8.2239   22.0747 C   0  0  0  0  0  0
  -22.4285   -8.0278   21.3542 C   0  0  0  0  0  0
  -21.9926   -9.0250   20.4641 C   0  0  0  0  0  0
  -22.7257  -10.2127   20.3048 C   0  0  0  0  0  0
  -21.6854   -6.0735   22.5283 C   0  0  0  0  0  0
  -21.4018   -6.5637   23.8217 C   0  0  0  0  0  0
  -21.3662   -5.6786   24.9178 C   0  0  0  0  0  0
  -21.6045   -4.3049   24.7224 C   0  0  0  0  0  0
  -21.8818   -3.8145   23.4345 C   0  0  0  0  0  0
  -21.9193   -4.6964   22.3403 C   0  0  0  0  0  0
  -22.7779  -13.5192   21.1890 C   0  0  0  0  0  0
  -22.1658   -4.2150   21.0981 F   0  0  0  0  0  0
  -21.5629   -3.4533   25.7738 F   0  0  0  0  0  0
  -29.9257  -13.7761   20.3677 N   0  0  0  0  0  0
  -26.2850  -12.9488   20.3215 N   0  0  0  0  0  0
  -25.9333  -11.6605   20.5724 N   0  0  0  0  0  0
  -22.0436  -12.8176   22.0450 N   0  0  0  0  0  0
  -25.4067  -15.1962   20.4161 N   0  0  0  0  0  0
  -31.7268  -15.0631   20.1486 O   0  0  0  0  0  0
  -21.6643   -6.8879   21.4245 O   0  0  0  0  0  0
  -22.3455  -14.5492   20.6728 O   0  0  0  0  0  0
  -24.6508  -31.8369   23.1815 C   0  0  0  0  0  0
  -25.9252  -32.4652   23.8232 C   0  0  1  0  0  0
  -27.2140  -27.0592   20.1652 C   0  0  0  0  0  0
  -25.5972  -33.8460   24.2144 N   0  0  0  0  0  0
  -23.4577  -30.4542   21.5284 C   0  0  2  0  0  0
  -24.9077  -28.8659   20.1116 C   0  0  0  0  0  0
  -22.7603  -29.4514   22.4828 C   0  0  0  0  0  0
  -18.0314  -28.1399   22.8474 C   0  0  0  0  0  0
  -24.1493  -36.7239   23.2642 C   0  0  0  0  0  0
  -26.0189  -30.6866   21.3907 C   0  0  0  0  0  0
  -26.0887  -29.2899   20.7337 C   0  0  0  0  0  0
  -27.2422  -28.4059   20.7373 C   0  0  0  0  0  0
  -26.0045  -26.7542   19.5027 C   0  0  0  0  0  0
  -24.8836  -27.6149   19.4776 C   0  0  0  0  0  0
  -23.6889  -29.7787   20.1505 C   0  0  0  0  0  0
  -25.4129  -36.3004   24.0305 C   0  0  1  0  0  0
  -20.5929  -28.3735   23.1218 C   0  0  2  0  0  0
  -20.6794  -26.9431   22.5404 C   0  0  0  0  0  0
  -19.5767  -26.6378   21.5214 C   0  0  0  0  0  0
  -18.1950  -26.7935   22.1623 C   0  0  0  0  0  0
  -19.1570  -28.8886   23.2836 C   0  0  0  0  0  0
  -18.9483  -30.1480   23.8865 C   0  0  0  0  0  0
  -17.6478  -30.6594   24.0556 C   0  0  0  0  0  0
  -25.9088  -34.9383   23.5037 C   0  0  0  0  0  0
  -16.5371  -29.9083   23.6336 C   0  0  0  0  0  0
  -16.7297  -28.6502   23.0357 C   0  0  0  0  0  0
  -26.4547  -31.6545   25.0705 C   0  0  0  0  0  0
  -25.3711  -31.3761   26.1386 C   0  0  0  0  0  0
  -27.0424  -30.2927   24.6346 C   0  0  0  0  0  0
  -27.6057  -32.4332   25.7508 C   0  0  0  0  0  0
  -27.5575  -37.1777   24.8465 C   0  0  0  0  0  0
  -21.4288  -29.3051   22.3581 N   0  0  0  0  0  0
  -26.4285  -37.3727   23.9408 N   0  0  0  0  0  0
  -24.7295  -31.0160   22.0879 N   0  0  0  0  0  0
  -23.4217  -28.8072   23.3011 O   0  0  0  0  0  0
  -28.2503  -26.0324   20.2293 O   0  0  0  0  0  0
  -26.5680  -34.8896   22.4622 O   0  0  0  0  0  0
  -23.5612  -32.1277   23.6995 O   0  0  0  0  0  0
  -30.3920  -19.1773   18.0027 C   0  0  0  0  0  0
  -29.8538  -20.3510   18.5651 C   0  0  0  0  0  0
  -30.3574  -17.9121   18.6260 C   0  0  0  0  0  0
  -29.3111  -20.3065   19.8704 C   0  0  0  0  0  0
  -29.8220  -17.7485   19.9348 C   0  0  0  0  0  0
  -28.5504  -22.2218   17.2269 C   0  0  0  0  0  0
  -29.3760  -21.4564   16.2282 C   0  0  0  0  0  0
  -29.8413  -21.5628   17.6686 C   0  0  0  0  0  0
  -30.8416  -16.7552   17.7590 C   0  0  0  0  0  0
  -29.0586  -23.1275   20.2934 C   0  0  0  0  0  0
  -27.9689  -24.4642   20.1782 C   0  0  0  0  0  0
  -29.3010  -18.9933   20.4858 N   0  0  0  0  0  0
  -29.7389  -16.2790   20.4865 N   0  0  0  0  0  0
  -28.7129  -21.5704   20.4378 N   0  0  0  0  0  0
  -31.4697  -12.8102   19.2059 H   0  0  0  0  0  0
  -30.4389  -11.7158   20.0770 H   0  0  0  0  0  0
  -29.8669  -11.7335   17.6227 H   0  0  0  0  0  0
  -29.6046  -13.4581   17.6798 H   0  0  0  0  0  0
  -27.9734  -11.2782   19.0096 H   0  0  0  0  0  0
  -27.4028  -12.4226   17.8233 H   0  0  0  0  0  0
  -27.5688  -14.2530   19.3810 H   0  0  0  0  0  0
  -28.7685  -12.3782   21.4752 H   0  0  0  0  0  0
  -28.3400  -14.0541   21.7315 H   0  0  0  0  0  0
  -25.2779   -9.5679   22.4753 H   0  0  0  0  0  0
  -24.0013   -7.4630   22.7467 H   0  0  0  0  0  0
  -21.0855   -8.8768   19.8951 H   0  0  0  0  0  0
  -22.3712  -10.9661   19.6155 H   0  0  0  0  0  0
  -21.2014   -7.6146   23.9724 H   0  0  0  0  0  0
  -21.1484   -6.0516   25.9081 H   0  0  0  0  0  0
  -22.0597   -2.7608   23.2844 H   0  0  0  0  0  0
  -22.4064  -11.9850   22.4854 H   0  0  0  0  0  0
  -21.1044  -13.1185   22.2650 H   0  0  0  0  0  0
  -24.6337  -15.8438   20.5276 H   0  0  0  0  0  0
  -26.2446  -15.6407   20.0648 H   0  0  0  0  0  0
  -26.7320  -32.5231   23.0955 H   0  0  0  0  0  0
  -25.0084  -33.9563   25.0269 H   0  0  0  0  0  0
  -22.7638  -31.2822   21.3680 H   0  0  0  0  0  0
  -23.3759  -35.9567   23.3284 H   0  0  0  0  0  0
  -24.3572  -36.8899   22.2061 H   0  0  0  0  0  0
  -23.7247  -37.6423   23.6704 H   0  0  0  0  0  0
  -26.1839  -31.4363   20.6157 H   0  0  0  0  0  0
  -26.8854  -30.7391   22.0382 H   0  0  0  0  0  0
  -28.1412  -28.7277   21.2438 H   0  0  0  0  0  0
  -25.8900  -25.7998   19.0121 H   0  0  0  0  0  0
  -23.9840  -27.2858   18.9757 H   0  0  0  0  0  0
  -23.8350  -30.5503   19.3937 H   0  0  0  0  0  0
  -22.8010  -29.2274   19.8361 H   0  0  0  0  0  0
  -25.1322  -36.1815   25.0796 H   0  0  0  0  0  0
  -21.0021  -28.3334   24.1339 H   0  0  0  0  0  0
  -20.5681  -26.2355   23.3633 H   0  0  0  0  0  0
  -21.6660  -26.7429   22.1204 H   0  0  0  0  0  0
  -19.6929  -25.6281   21.1265 H   0  0  0  0  0  0
  -19.6698  -27.3170   20.6728 H   0  0  0  0  0  0
  -17.4219  -26.6681   21.4027 H   0  0  0  0  0  0
  -18.0348  -26.0083   22.9023 H   0  0  0  0  0  0
  -19.7959  -30.7304   24.2219 H   0  0  0  0  0  0
  -17.5031  -31.6267   24.5169 H   0  0  0  0  0  0
  -15.5369  -30.2974   23.7676 H   0  0  0  0  0  0
  -15.8698  -28.0808   22.7091 H   0  0  0  0  0  0
  -24.5903  -30.7095   25.7706 H   0  0  0  0  0  0
  -24.8886  -32.2949   26.4728 H   0  0  0  0  0  0
  -25.7976  -30.8989   27.0218 H   0  0  0  0  0  0
  -26.3058  -29.6627   24.1343 H   0  0  0  0  0  0
  -27.3992  -29.7256   25.4955 H   0  0  0  0  0  0
  -27.8986  -30.4134   23.9705 H   0  0  0  0  0  0
  -27.2633  -33.3660   26.2001 H   0  0  0  0  0  0
  -28.3919  -32.6849   25.0378 H   0  0  0  0  0  0
  -28.0669  -31.8512   26.5496 H   0  0  0  0  0  0
  -28.2577  -38.0087   24.7510 H   0  0  0  0  0  0
  -28.1086  -36.2614   24.6293 H   0  0  0  0  0  0
  -27.2292  -37.1423   25.8867 H   0  0  0  0  0  0
  -20.9518  -29.8753   21.6735 H   0  0  0  0  0  0
  -26.0140  -38.2791   24.1408 H   0  0  0  0  0  0
  -30.7985  -19.2438   17.0035 H   0  0  0  0  0  0
  -27.6134  -21.7754   17.5554 H   0  0  0  0  0  0
  -28.5386  -23.3048   17.1208 H   0  0  0  0  0  0
  -29.9015  -22.0429   15.4768 H   0  0  0  0  0  0
  -28.9603  -20.5141   15.8751 H   0  0  0  0  0  0
  -30.7186  -22.1840   17.8416 H   0  0  0  0  0  0
  -30.8982  -17.0391   16.7075 H   0  0  0  0  0  0
  -30.1587  -15.9075   17.7997 H   0  0  0  0  0  0
  -31.8424  -16.4406   18.0516 H   0  0  0  0  0  0
  -29.6423  -23.3294   21.1919 H   0  0  0  0  0  0
  -29.7906  -23.2527   19.5018 H   0  0  0  0  0  0
  -27.2180  -24.3004   20.9515 H   0  0  0  0  0  0
  -27.4393  -24.2978   19.2417 H   0  0  0  0  0  0
  -28.8525  -16.1003   20.9303 H   0  0  0  0  0  0
  -28.1850  -21.3912   21.2855 H   0  0  0  0  0  0
  1 25  1  0  0  0
  1 30  2  0  0  0
  1 83  1  0  0  0
  2  3  1  0  0  0
  2 25  1  0  0  0
  2 85  1  0  0  0
  2 86  1  0  0  0
  3  4  1  0  0  0
  3 87  1  0  0  0
  3 88  1  0  0  0
  4  5  1  0  0  0
  4 89  1  0  0  0
  4 90  1  0  0  0
  5  6  1  0  0  0
  5 26  1  0  0  0
  5 91  1  0  0  0
  6 25  1  0  0  0
  6 92  1  0  0  0
  6 93  1  0  0  0
  7  8  2  0  0  0
  7 26  1  0  0  0
  7 29  1  0  0  0
  8  9  1  0  0  0
  8 22  1  0  0  0
  9 10  1  0  0  0
  9 27  2  0  0  0
 10 11  2  0  0  0
 10 15  1  0  0  0
 11 12  1  0  0  0
 11 94  1  0  0  0
 12 13  2  0  0  0
 12 95  1  0  0  0
 13 14  1  0  0  0
 13 31  1  0  0  0
 14 15  2  0  0  0
 14 96  1  0  0  0
 15 97  1  0  0  0
 16 17  2  0  0  0
 16 21  1  0  0  0
 16 31  1  0  0  0
 17 18  1  0  0  0
 17 98  1  0  0  0
 18 19  2  0  0  0
 18 99  1  0  0  0
 19 20  1  0  0  0
 19 24  1  0  0  0
 20 21  2  0  0  0
 20100  1  0  0  0
 21 23  1  0  0  0
 22 28  1  0  0  0
 22 32  2  0  0  0
 26 27  1  0  0  0
 28101  1  0  0  0
 28102  1  0  0  0
 29103  1  0  0  0
 29104  1  0  0  0
 33 34  1  0  0  0
 33 66  1  0  0  0
 33 70  2  0  0  0
 34 36  1  0  0  0
 34 59  1  0  0  0
 34105  1  0  0  0
 35 44  2  0  0  0
 35 45  1  0  0  0
 35 68  1  0  0  0
 36 56  1  0  0  0
 36106  1  0  0  0
 37 39  1  0  0  0
 37 47  1  0  0  0
 37 66  1  0  0  0
 37107  1  0  0  0
 38 43  2  0  0  0
 38 46  1  0  0  0
 38 47  1  0  0  0
 39 64  1  0  0  0
 39 67  2  0  0  0
 40 52  1  0  0  0
 40 53  2  0  0  0
 40 58  1  0  0  0
 41108  1  0  0  0
 41109  1  0  0  0
 41110  1  0  0  0
 41 48  1  0  0  0
 42 43  1  0  0  0
 42 66  1  0  0  0
 42111  1  0  0  0
 42112  1  0  0  0
 43 44  1  0  0  0
 44113  1  0  0  0
 45 46  2  0  0  0
 45114  1  0  0  0
 46115  1  0  0  0
 47116  1  0  0  0
 47117  1  0  0  0
 48 56  1  0  0  0
 48 65  1  0  0  0
 48118  1  0  0  0
 49 50  1  0  0  0
 49 53  1  0  0  0
 49 64  1  0  0  0
 49119  1  0  0  0
 50 51  1  0  0  0
 50120  1  0  0  0
 50121  1  0  0  0
 51 52  1  0  0  0
 51122  1  0  0  0
 51123  1  0  0  0
 52124  1  0  0  0
 52125  1  0  0  0
 53 54  1  0  0  0
 54 55  2  0  0  0
 54126  1  0  0  0
 55 57  1  0  0  0
 55127  1  0  0  0
 56 69  2  0  0  0
 57 58  2  0  0  0
 57128  1  0  0  0
 58129  1  0  0  0
 59 60  1  0  0  0
 59 61  1  0  0  0
 59 62  1  0  0  0
 60130  1  0  0  0
 60131  1  0  0  0
 60132  1  0  0  0
 61133  1  0  0  0
 61134  1  0  0  0
 61135  1  0  0  0
 62136  1  0  0  0
 62137  1  0  0  0
 62138  1  0  0  0
 63 65  1  0  0  0
 63139  1  0  0  0
 63140  1  0  0  0
 63141  1  0  0  0
 64142  1  0  0  0
 65143  1  0  0  0
 68 81  1  0  0  0
 71 72  2  0  0  0
 71 73  1  0  0  0
 71144  1  0  0  0
 72 74  1  0  0  0
 72 78  1  0  0  0
 73 75  2  0  0  0
 73 79  1  0  0  0
 74 82  2  0  0  0
 74 84  1  0  0  0
 75 82  1  0  0  0
 75 83  1  0  0  0
 76 77  1  0  0  0
 76 78  1  0  0  0
 76145  1  0  0  0
 76146  1  0  0  0
 77 78  1  0  0  0
 77147  1  0  0  0
 77148  1  0  0  0
 78149  1  0  0  0
 79150  1  0  0  0
 79151  1  0  0  0
 79152  1  0  0  0
 80 81  1  0  0  0
 80 84  1  0  0  0
 80153  1  0  0  0
 80154  1  0  0  0
 81155  1  0  0  0
 81156  1  0  0  0
 83157  1  0  0  0
 84158  1  0  0  0
M  ISO  4   1 100  68 101  81 101  83 100
M  END
> <chiral flag>
0

> <version>
0

> <s_m_source_file>
/data/baiqing/PycharmProjects/Reinvent-master-3.2/result/LINK_invent/BTK/process_docking_weight1_custom_sum_contain_oxygen_bond_distance_aromatic_linkinvent_7_9_3/rearranged_h_0133.sdf

> <i_m_source_file_index>
5

> <r_mmod_Potential_Energy-OPLS-2005>
554.944641113281

> <r_mmod_Stretch_Energy-OPLS-2005>
357.978607177734

> <r_mmod_Bend_Energy-OPLS-2005>
321.080902099609

> <r_mmod_Torsional_Energy-OPLS-2005>
263.913848876953

> <r_mmod_Improper_Torsional_Energy-OPLS-2005>
5.7711935043335

> <r_mmod_Van_der_Waal_Energy-OPLS-2005>
140.791915893555

> <r_mmod_Electrostatic_Energy-OPLS-2005>
-565.9892578125

> <r_mmod_Solvation_Energy-OPLS-2005>
-237.252258300781

> <b_mmod_Minimization_Converged-OPLS-2005>
0

> <r_mmod_RMS_Derivative-OPLS-2005>
0.741354465484619

$$$$
5
                    3D
 Structure written by MMmdl.
182191  0  0  1  0            999 V2000
  -30.7516  -14.4001   20.6606 C   0  0  0  0  0  0
  -30.4162  -12.3040   19.3981 C   0  0  0  0  0  0
  -29.4826  -12.5199   18.1925 C   0  0  0  0  0  0
  -28.0071  -12.3745   18.6111 C   0  0  0  0  0  0
  -27.6617  -13.2045   19.8757 C   0  0  2  0  0  0
  -28.7015  -12.9615   20.9907 C   0  0  0  0  0  0
  -25.2590  -13.8161   20.5682 C   0  0  0  0  0  0
  -24.1838  -13.0444   20.9176 C   0  0  0  0  0  0
  -24.6385  -11.6906   20.8729 C   0  0  0  0  0  0
  -23.9054  -10.4293   21.0402 C   0  0  0  0  0  0
  -24.3608   -9.4210   21.9182 C   0  0  0  0  0  0
  -23.6287   -8.2245   22.0753 C   0  0  0  0  0  0
  -22.4270   -8.0280   21.3545 C   0  0  0  0  0  0
  -21.9904   -9.0253   20.4647 C   0  0  0  0  0  0
  -22.7226  -10.2134   20.3054 C   0  0  0  0  0  0
  -21.6853   -6.0735   22.5280 C   0  0  0  0  0  0
  -21.4014   -6.5640   23.8213 C   0  0  0  0  0  0
  -21.3660   -5.6793   24.9177 C   0  0  0  0  0  0
  -21.6044   -4.3055   24.7227 C   0  0  0  0  0  0
  -21.8819   -3.8147   23.4347 C   0  0  0  0  0  0
  -21.9192   -4.6964   22.3402 C   0  0  0  0  0  0
  -22.7862  -13.5242   21.1845 C   0  0  0  0  0  0
  -22.1660   -4.2149   21.0980 F   0  0  0  0  0  0
  -21.5630   -3.4538   25.7740 F   0  0  0  0  0  0
  -30.0373  -13.2643   20.4449 N   0  0  0  0  0  0
  -26.3021  -12.9327   20.3369 N   0  0  0  0  0  0
  -25.9308  -11.6488   20.5755 N   0  0  0  0  0  0
  -22.0504  -12.8233   22.0402 N   0  0  0  0  0  0
  -25.4338  -15.1878   20.4100 N   0  0  0  0  0  0
  -31.8123  -14.6512   20.0815 O   0  0  0  0  0  0
  -21.6637   -6.8877   21.4240 O   0  0  0  0  0  0
  -22.3550  -14.5552   20.6700 O   0  0  0  0  0  0
  -24.6130  -31.8693   23.2116 C   0  0  0  0  0  0
  -25.9027  -32.4831   23.8408 C   0  0  1  0  0  0
  -27.2297  -27.4469   20.0936 C   0  0  0  0  0  0
  -25.5881  -33.8627   24.2330 N   0  0  0  0  0  0
  -23.4003  -30.4930   21.5524 C   0  0  2  0  0  0
  -24.8471  -28.9607   20.1147 C   0  0  0  0  0  0
  -22.7398  -29.4669   22.5003 C   0  0  0  0  0  0
  -18.0268  -28.1382   22.8499 C   0  0  0  0  0  0
  -24.1482  -36.7331   23.2638 C   0  0  0  0  0  0
  -25.9285  -30.8380   21.3631 C   0  0  0  0  0  0
  -26.0077  -29.4743   20.7088 C   0  0  0  0  0  0
  -27.2060  -28.7252   20.6940 C   0  0  0  0  0  0
  -26.0572  -26.9500   19.4854 C   0  0  0  0  0  0
  -24.8656  -27.6969   19.5001 C   0  0  0  0  0  0
  -23.6075  -29.8245   20.1675 C   0  0  0  0  0  0
  -25.4100  -36.3119   24.0336 C   0  0  1  0  0  0
  -20.5856  -28.3670   23.1329 C   0  0  2  0  0  0
  -20.6759  -26.9409   22.5423 C   0  0  0  0  0  0
  -19.5735  -26.6389   21.5221 C   0  0  0  0  0  0
  -18.1912  -26.7929   22.1630 C   0  0  0  0  0  0
  -19.1516  -28.8840   23.2912 C   0  0  0  0  0  0
  -18.9444  -30.1449   23.8915 C   0  0  0  0  0  0
  -17.6448  -30.6591   24.0570 C   0  0  0  0  0  0
  -25.9027  -34.9481   23.5134 C   0  0  0  0  0  0
  -16.5339  -29.9093   23.6332 C   0  0  0  0  0  0
  -16.7260  -28.6511   23.0351 C   0  0  0  0  0  0
  -26.4458  -31.6613   25.0737 C   0  0  0  0  0  0
  -25.3731  -31.3715   26.1492 C   0  0  0  0  0  0
  -27.0305  -30.3059   24.6120 C   0  0  0  0  0  0
  -27.6030  -32.4348   25.7490 C   0  0  0  0  0  0
  -27.5587  -37.1806   24.8459 C   0  0  0  0  0  0
  -21.4128  -29.3041   22.3740 N   0  0  0  0  0  0
  -26.4292  -37.3800   23.9416 N   0  0  0  0  0  0
  -24.6658  -31.0797   22.1015 N   0  0  0  0  0  0
  -23.4175  -28.8208   23.3038 O   0  0  0  0  0  0
  -28.3764  -26.6868   20.0935 O   0  0  0  0  0  0
  -26.5596  -34.8933   22.4699 O   0  0  0  0  0  0
  -23.5324  -32.1440   23.7515 O   0  0  0  0  0  0
  -30.4009  -22.1362   18.8965 C   0  0  0  0  0  0
  -29.9758  -24.5194   19.1554 C   0  0  0  0  0  0
  -30.6884  -23.4691   18.5495 C   0  0  0  0  0  0
  -29.3979  -21.8325   19.8418 C   0  0  0  0  0  0
  -28.9706  -24.2516   20.1072 C   0  0  0  0  0  0
  -28.6753  -22.8998   20.4556 C   0  0  0  0  0  0
  -30.5294  -16.3787   23.7351 C   0  0  0  0  0  0
  -29.1914  -17.1134   23.8912 C   0  0  0  0  0  0
  -30.9219  -17.6881   21.5582 C   0  0  0  0  0  0
  -30.9767  -16.3034   22.2650 C   0  0  2  0  0  0
  -29.6504  -18.5353   21.8417 C   0  0  1  0  0  0
  -29.3012  -18.5470   23.3437 C   0  0  1  0  0  0
  -31.7571  -23.7730   17.5198 C   0  0  0  0  0  0
  -27.5744  -22.6213   21.4758 C   0  0  0  0  0  0
  -27.6921  -21.1621   24.8466 C   0  0  0  0  0  0
  -26.3042  -19.0511   25.0664 C   0  0  0  0  0  0
  -29.1422  -20.3514   20.1552 C   0  0  0  0  0  0
  -28.2463  -25.4267   20.7743 C   0  0  0  0  0  0
  -27.6922  -19.6322   24.7773 C   0  0  0  0  0  0
  -30.2418  -15.2356   21.5795 N   0  0  0  0  0  0
  -29.8280  -19.9463   21.4001 N   0  3  0  0  0  0
  -28.0607  -19.2431   23.4567 O   0  0  0  0  0  0
  -31.4582  -12.4076   19.0910 H   0  0  0  0  0  0
  -30.3216  -11.2855   19.7780 H   0  0  0  0  0  0
  -29.7176  -11.8069   17.4011 H   0  0  0  0  0  0
  -29.6491  -13.5126   17.7708 H   0  0  0  0  0  0
  -27.8173  -11.3169   18.7991 H   0  0  0  0  0  0
  -27.3523  -12.6576   17.7862 H   0  0  0  0  0  0
  -27.7149  -14.2565   19.5938 H   0  0  0  0  0  0
  -28.6723  -11.9191   21.3118 H   0  0  0  0  0  0
  -28.4481  -13.5400   21.8794 H   0  0  0  0  0  0
  -25.2755   -9.5690   22.4754 H   0  0  0  0  0  0
  -24.0000   -7.4638   22.7472 H   0  0  0  0  0  0
  -21.0837   -8.8768   19.8950 H   0  0  0  0  0  0
  -22.3683  -10.9673   19.6162 H   0  0  0  0  0  0
  -21.2006   -7.6148   23.9717 H   0  0  0  0  0  0
  -21.1484   -6.0523   25.9079 H   0  0  0  0  0  0
  -22.0598   -2.7609   23.2847 H   0  0  0  0  0  0
  -22.4117  -11.9884   22.4773 H   0  0  0  0  0  0
  -21.1125  -13.1262   22.2614 H   0  0  0  0  0  0
  -24.6709  -15.8470   20.5197 H   0  0  0  0  0  0
  -26.2919  -15.6225   20.0953 H   0  0  0  0  0  0
  -26.7097  -32.5552   23.1176 H   0  0  0  0  0  0
  -25.0010  -33.9793   25.0458 H   0  0  0  0  0  0
  -22.6887  -31.3095   21.4137 H   0  0  0  0  0  0
  -23.3750  -35.9660   23.3287 H   0  0  0  0  0  0
  -24.3572  -36.8967   22.2058 H   0  0  0  0  0  0
  -23.7232  -37.6527   23.6667 H   0  0  0  0  0  0
  -26.0378  -31.6046   20.5948 H   0  0  0  0  0  0
  -26.8169  -30.8927   21.9802 H   0  0  0  0  0  0
  -28.1026  -29.1147   21.1561 H   0  0  0  0  0  0
  -26.0652  -25.9815   19.0045 H   0  0  0  0  0  0
  -23.9737  -27.2967   19.0375 H   0  0  0  0  0  0
  -23.7099  -30.5982   19.4063 H   0  0  0  0  0  0
  -22.7322  -29.2410   19.8770 H   0  0  0  0  0  0
  -25.1273  -36.1980   25.0829 H   0  0  0  0  0  0
  -20.9947  -28.3238   24.1453 H   0  0  0  0  0  0
  -20.5676  -26.2277   23.3608 H   0  0  0  0  0  0
  -21.6626  -26.7461   22.1207 H   0  0  0  0  0  0
  -19.6897  -25.6306   21.1239 H   0  0  0  0  0  0
  -19.6672  -27.3208   20.6758 H   0  0  0  0  0  0
  -17.4186  -26.6694   21.4029 H   0  0  0  0  0  0
  -18.0300  -26.0065   22.9019 H   0  0  0  0  0  0
  -19.7919  -30.7263   24.2285 H   0  0  0  0  0  0
  -17.5006  -31.6267   24.5179 H   0  0  0  0  0  0
  -15.5340  -30.3003   23.7648 H   0  0  0  0  0  0
  -15.8658  -28.0841   22.7051 H   0  0  0  0  0  0
  -24.5878  -30.7091   25.7829 H   0  0  0  0  0  0
  -24.8949  -32.2876   26.4976 H   0  0  0  0  0  0
  -25.8083  -30.8852   27.0233 H   0  0  0  0  0  0
  -26.2859  -29.6801   24.1184 H   0  0  0  0  0  0
  -27.4097  -29.7307   25.4578 H   0  0  0  0  0  0
  -27.8679  -30.4389   23.9263 H   0  0  0  0  0  0
  -27.2637  -33.3638   26.2088 H   0  0  0  0  0  0
  -28.3813  -32.6935   25.0299 H   0  0  0  0  0  0
  -28.0733  -31.8476   26.5388 H   0  0  0  0  0  0
  -28.2581  -38.0127   24.7540 H   0  0  0  0  0  0
  -28.1105  -36.2660   24.6235 H   0  0  0  0  0  0
  -27.2311  -37.1395   25.8862 H   0  0  0  0  0  0
  -20.9277  -29.8775   21.6980 H   0  0  0  0  0  0
  -26.0188  -38.2876   24.1432 H   0  0  0  0  0  0
  -30.9552  -21.3364   18.4229 H   0  0  0  0  0  0
  -30.2042  -25.5419   18.8874 H   0  0  0  0  0  0
  -30.4671  -15.3800   24.1701 H   0  0  0  0  0  0
  -31.2911  -16.9034   24.3141 H   0  0  0  0  0  0
  -28.9164  -17.1217   24.9452 H   0  0  0  0  0  0
  -28.3979  -16.5754   23.3719 H   0  0  0  0  0  0
  -31.0689  -17.5685   20.4837 H   0  0  0  0  0  0
  -31.7900  -18.2500   21.9083 H   0  0  0  0  0  0
  -32.0258  -15.9967   22.2816 H   0  0  0  0  0  0
  -28.8099  -18.0865   21.3094 H   0  0  0  0  0  0
  -30.0767  -19.0878   23.8918 H   0  0  0  0  0  0
  -32.5501  -23.0249   17.5445 H   0  0  0  0  0  0
  -32.2109  -24.7477   17.7008 H   0  0  0  0  0  0
  -31.3238  -23.7788   16.5193 H   0  0  0  0  0  0
  -27.5347  -21.5906   21.8183 H   0  0  0  0  0  0
  -26.5999  -22.8553   21.0453 H   0  0  0  0  0  0
  -27.7089  -23.2381   22.3646 H   0  0  0  0  0  0
  -27.4562  -21.5068   25.8537 H   0  0  0  0  0  0
  -26.9505  -21.5905   24.1728 H   0  0  0  0  0  0
  -28.6674  -21.5708   24.5819 H   0  0  0  0  0  0
  -25.9634  -19.3281   26.0644 H   0  0  0  0  0  0
  -26.3149  -17.9621   25.0131 H   0  0  0  0  0  0
  -25.5643  -19.4112   24.3505 H   0  0  0  0  0  0
  -29.5075  -19.7338   19.3332 H   0  0  0  0  0  0
  -28.0718  -20.1522   20.2182 H   0  0  0  0  0  0
  -28.6708  -25.5523   21.7712 H   0  0  0  0  0  0
  -27.2018  -25.1572   20.9331 H   0  0  0  0  0  0
  -28.3930  -19.2562   25.5245 H   0  0  0  0  0  0
  -29.3551  -14.9590   21.9728 H   0  0  0  0  0  0
  -30.8065  -20.1732   21.3267 H   0  0  0  0  0  0
  -29.4395  -20.5229   22.1302 H   0  0  0  0  0  0
  1 25  1  0  0  0
  1 30  2  0  0  0
  1 90  1  0  0  0
  2  3  1  0  0  0
  2 25  1  0  0  0
  2 93  1  0  0  0
  2 94  1  0  0  0
  3  4  1  0  0  0
  3 95  1  0  0  0
  3 96  1  0  0  0
  4  5  1  0  0  0
  4 97  1  0  0  0
  4 98  1  0  0  0
  5  6  1  0  0  0
  5 26  1  0  0  0
  5 99  1  0  0  0
  6 25  1  0  0  0
  6100  1  0  0  0
  6101  1  0  0  0
  7  8  2  0  0  0
  7 26  1  0  0  0
  7 29  1  0  0  0
  8  9  1  0  0  0
  8 22  1  0  0  0
  9 10  1  0  0  0
  9 27  2  0  0  0
 10 11  2  0  0  0
 10 15  1  0  0  0
 11 12  1  0  0  0
 11102  1  0  0  0
 12 13  2  0  0  0
 12103  1  0  0  0
 13 14  1  0  0  0
 13 31  1  0  0  0
 14 15  2  0  0  0
 14104  1  0  0  0
 15105  1  0  0  0
 16 17  2  0  0  0
 16 21  1  0  0  0
 16 31  1  0  0  0
 17 18  1  0  0  0
 17106  1  0  0  0
 18 19  2  0  0  0
 18107  1  0  0  0
 19 20  1  0  0  0
 19 24  1  0  0  0
 20 21  2  0  0  0
 20108  1  0  0  0
 21 23  1  0  0  0
 22 28  1  0  0  0
 22 32  2  0  0  0
 26 27  1  0  0  0
 28109  1  0  0  0
 28110  1  0  0  0
 29111  1  0  0  0
 29112  1  0  0  0
 33 34  1  0  0  0
 33 66  1  0  0  0
 33 70  2  0  0  0
 34 36  1  0  0  0
 34 59  1  0  0  0
 34113  1  0  0  0
 35 44  2  0  0  0
 35 45  1  0  0  0
 35 68  1  0  0  0
 36 56  1  0  0  0
 36114  1  0  0  0
 37 39  1  0  0  0
 37 47  1  0  0  0
 37 66  1  0  0  0
 37115  1  0  0  0
 38 43  2  0  0  0
 38 46  1  0  0  0
 38 47  1  0  0  0
 39 64  1  0  0  0
 39 67  2  0  0  0
 40 52  1  0  0  0
 40 53  2  0  0  0
 40 58  1  0  0  0
 41116  1  0  0  0
 41117  1  0  0  0
 41118  1  0  0  0
 41 48  1  0  0  0
 42 43  1  0  0  0
 42 66  1  0  0  0
 42119  1  0  0  0
 42120  1  0  0  0
 43 44  1  0  0  0
 44121  1  0  0  0
 45 46  2  0  0  0
 45122  1  0  0  0
 46123  1  0  0  0
 47124  1  0  0  0
 47125  1  0  0  0
 48 56  1  0  0  0
 48 65  1  0  0  0
 48126  1  0  0  0
 49 50  1  0  0  0
 49 53  1  0  0  0
 49 64  1  0  0  0
 49127  1  0  0  0
 50 51  1  0  0  0
 50128  1  0  0  0
 50129  1  0  0  0
 51 52  1  0  0  0
 51130  1  0  0  0
 51131  1  0  0  0
 52132  1  0  0  0
 52133  1  0  0  0
 53 54  1  0  0  0
 54 55  2  0  0  0
 54134  1  0  0  0
 55 57  1  0  0  0
 55135  1  0  0  0
 56 69  2  0  0  0
 57 58  2  0  0  0
 57136  1  0  0  0
 58137  1  0  0  0
 59 60  1  0  0  0
 59 61  1  0  0  0
 59 62  1  0  0  0
 60138  1  0  0  0
 60139  1  0  0  0
 60140  1  0  0  0
 61141  1  0  0  0
 61142  1  0  0  0
 61143  1  0  0  0
 62144  1  0  0  0
 62145  1  0  0  0
 62146  1  0  0  0
 63 65  1  0  0  0
 63147  1  0  0  0
 63148  1  0  0  0
 63149  1  0  0  0
 64150  1  0  0  0
 65151  1  0  0  0
 68 88  1  0  0  0
 71 73  2  0  0  0
 71 74  1  0  0  0
 71152  1  0  0  0
 72 73  1  0  0  0
 72 75  2  0  0  0
 72153  1  0  0  0
 73 83  1  0  0  0
 74 76  2  0  0  0
 74 87  1  0  0  0
 75 76  1  0  0  0
 75 88  1  0  0  0
 76 84  1  0  0  0
 77 78  1  0  0  0
 77 80  1  0  0  0
 77154  1  0  0  0
 77155  1  0  0  0
 78 82  1  0  0  0
 78156  1  0  0  0
 78157  1  0  0  0
 79 80  1  0  0  0
 79 81  1  0  0  0
 79158  1  0  0  0
 79159  1  0  0  0
 80 90  1  0  0  0
 80160  1  0  0  0
 81 82  1  0  0  0
 81 91  1  0  0  0
 81161  1  0  0  0
 82 92  1  0  0  0
 82162  1  0  0  0
 83163  1  0  0  0
 83164  1  0  0  0
 83165  1  0  0  0
 84166  1  0  0  0
 84167  1  0  0  0
 84168  1  0  0  0
 85169  1  0  0  0
 85170  1  0  0  0
 85171  1  0  0  0
 85 89  1  0  0  0
 86 89  1  0  0  0
 86172  1  0  0  0
 86173  1  0  0  0
 86174  1  0  0  0
 87 91  1  0  0  0
 87175  1  0  0  0
 87176  1  0  0  0
 88177  1  0  0  0
 88178  1  0  0  0
 89 92  1  0  0  0
 89179  1  0  0  0
 90180  1  0  0  0
 91181  1  0  0  0
 91182  1  0  0  0
M  CHG  1  91   1
M  ISO  4   1 100  68 101  88 101  90 100
M  END
> <chiral flag>
0

> <version>
0

> <s_m_source_file>
/data/baiqing/PycharmProjects/Reinvent-master-3.2/result/LINK_invent/BTK/process_docking_weight1_custom_sum_contain_oxygen_bond_distance_aromatic_linkinvent_7_9_3/rearranged_h_0133.sdf

> <i_m_source_file_index>
6

> <r_mmod_Potential_Energy-OPLS-2005>
-205.616485595703

> <r_mmod_Stretch_Energy-OPLS-2005>
39.0398063659668

> <r_mmod_Bend_Energy-OPLS-2005>
101.375122070312

> <r_mmod_Torsional_Energy-OPLS-2005>
256.384033203125

> <r_mmod_Improper_Torsional_Energy-OPLS-2005>
2.23093461990356

> <r_mmod_Van_der_Waal_Energy-OPLS-2005>
150.764938354492

> <r_mmod_Electrostatic_Energy-OPLS-2005>
-346.705871582031

> <r_mmod_Solvation_Energy-OPLS-2005>
-417.401214599609

> <b_mmod_Minimization_Converged-OPLS-2005>
0

> <r_mmod_RMS_Derivative-OPLS-2005>
0.768661201000214

$$$$
6
                    3D
 Structure written by MMmdl.
165173  0  0  1  0            999 V2000
  -30.6220  -14.7287   20.4592 C   0  0  0  0  0  0
  -30.4357  -12.4456   19.4749 C   0  0  0  0  0  0
  -29.5145  -12.4963   18.2344 C   0  0  0  0  0  0
  -28.0377  -12.3285   18.6443 C   0  0  0  0  0  0
  -27.6421  -13.2309   19.8446 C   0  0  2  0  0  0
  -28.6839  -13.1692   20.9825 C   0  0  0  0  0  0
  -25.2513  -13.8199   20.5660 C   0  0  0  0  0  0
  -24.1802  -13.0448   20.9176 C   0  0  0  0  0  0
  -24.6402  -11.6918   20.8734 C   0  0  0  0  0  0
  -23.9070  -10.4301   21.0423 C   0  0  0  0  0  0
  -24.3622   -9.4219   21.9202 C   0  0  0  0  0  0
  -23.6278   -8.2268   22.0766 C   0  0  0  0  0  0
  -22.4262   -8.0317   21.3566 C   0  0  0  0  0  0
  -21.9905   -9.0285   20.4668 C   0  0  0  0  0  0
  -22.7244  -10.2152   20.3074 C   0  0  0  0  0  0
  -21.6859   -6.0754   22.5290 C   0  0  0  0  0  0
  -21.4021   -6.5645   23.8216 C   0  0  0  0  0  0
  -21.3646   -5.6811   24.9185 C   0  0  0  0  0  0
  -21.6038   -4.3060   24.7231 C   0  0  0  0  0  0
  -21.8820   -3.8155   23.4349 C   0  0  0  0  0  0
  -21.9182   -4.6971   22.3405 C   0  0  0  0  0  0
  -22.7819  -13.5237   21.1826 C   0  0  0  0  0  0
  -22.1667   -4.2162   21.0989 F   0  0  0  0  0  0
  -21.5597   -3.4561   25.7740 F   0  0  0  0  0  0
  -29.9910  -13.5095   20.4044 N   0  0  0  0  0  0
  -26.2926  -12.9394   20.3212 N   0  0  0  0  0  0
  -25.9319  -11.6544   20.5704 N   0  0  0  0  0  0
  -22.0441  -12.8259   22.0398 N   0  0  0  0  0  0
  -25.4215  -15.1922   20.4089 N   0  0  0  0  0  0
  -31.8071  -14.8300   20.1265 O   0  0  0  0  0  0
  -21.6628   -6.8899   21.4257 O   0  0  0  0  0  0
  -22.3505  -14.5542   20.6641 O   0  0  0  0  0  0
  -24.6303  -31.8562   23.2006 C   0  0  0  0  0  0
  -25.9141  -32.4752   23.8339 C   0  0  1  0  0  0
  -27.2290  -27.2757   20.1484 C   0  0  0  0  0  0
  -25.5948  -33.8559   24.2254 N   0  0  0  0  0  0
  -23.4251  -30.4785   21.5434 C   0  0  2  0  0  0
  -24.8758  -28.9147   20.1300 C   0  0  0  0  0  0
  -22.7485  -29.4612   22.4945 C   0  0  0  0  0  0
  -18.0296  -28.1386   22.8497 C   0  0  0  0  0  0
  -24.1494  -36.7281   23.2639 C   0  0  0  0  0  0
  -25.9690  -30.7716   21.3817 C   0  0  0  0  0  0
  -26.0458  -29.3876   20.7423 C   0  0  0  0  0  0
  -27.2273  -28.5793   20.7465 C   0  0  0  0  0  0
  -26.0401  -26.8601   19.5179 C   0  0  0  0  0  0
  -24.8758  -27.6538   19.5129 C   0  0  0  0  0  0
  -23.6449  -29.8021   20.1650 C   0  0  0  0  0  0
  -25.4119  -36.3054   24.0325 C   0  0  1  0  0  0
  -20.5895  -28.3684   23.1285 C   0  0  2  0  0  0
  -20.6786  -26.9402   22.5413 C   0  0  0  0  0  0
  -19.5763  -26.6382   21.5219 C   0  0  0  0  0  0
  -18.1943  -26.7934   22.1619 C   0  0  0  0  0  0
  -19.1543  -28.8852   23.2891 C   0  0  0  0  0  0
  -18.9466  -30.1462   23.8912 C   0  0  0  0  0  0
  -17.6459  -30.6584   24.0564 C   0  0  0  0  0  0
  -25.9058  -34.9432   23.5080 C   0  0  0  0  0  0
  -16.5353  -29.9082   23.6335 C   0  0  0  0  0  0
  -16.7279  -28.6490   23.0372 C   0  0  0  0  0  0
  -26.4517  -31.6581   25.0720 C   0  0  0  0  0  0
  -25.3725  -31.3799   26.1431 C   0  0  0  0  0  0
  -27.0363  -30.2985   24.6231 C   0  0  0  0  0  0
  -27.6056  -32.4349   25.7491 C   0  0  0  0  0  0
  -27.5588  -37.1779   24.8450 C   0  0  0  0  0  0
  -21.4196  -29.3026   22.3658 N   0  0  0  0  0  0
  -26.4282  -37.3763   23.9411 N   0  0  0  0  0  0
  -24.6928  -31.0554   22.0977 N   0  0  0  0  0  0
  -23.4190  -28.8154   23.3036 O   0  0  0  0  0  0
  -28.3362  -26.4207   19.9969 O   0  0  0  0  0  0
  -26.5623  -34.8907   22.4644 O   0  0  0  0  0  0
  -23.5455  -32.1368   23.7328 O   0  0  0  0  0  0
  -30.9513  -22.7100   22.6024 C   0  0  0  0  0  0
  -30.0610  -23.7389   23.3199 C   0  0  0  0  0  0
  -30.8552  -22.8477   21.0703 C   0  0  0  0  0  0
  -28.4852  -23.9008   21.2714 C   0  0  2  0  0  0
  -28.5891  -23.7072   22.8360 C   0  0  1  0  0  0
  -29.3972  -22.7416   20.5517 C   0  0  2  0  0  0
  -28.8124  -25.5025   21.0539 C   0  0  0  0  0  0
  -29.2690  -18.5524   20.5994 C   0  0  0  0  0  0
  -30.3224  -17.3216   20.5843 C   0  0  0  0  0  0
  -29.8464  -20.0641   20.4955 C   0  0  0  0  0  0
  -29.8645  -15.8685   20.6871 N   0  0  0  0  0  0
  -27.8700  -22.5448   23.4099 N   0  3  0  0  0  0
  -28.8844  -21.2712   20.5368 N   0  3  0  0  0  0
  -31.4783  -12.5682   19.1728 H   0  0  0  0  0  0
  -30.3803  -11.4705   19.9630 H   0  0  0  0  0  0
  -29.7956  -11.7180   17.5219 H   0  0  0  0  0  0
  -29.6475  -13.4450   17.7146 H   0  0  0  0  0  0
  -27.8884  -11.2789   18.9034 H   0  0  0  0  0  0
  -27.3837  -12.5260   17.7946 H   0  0  0  0  0  0
  -27.6338  -14.2506   19.4594 H   0  0  0  0  0  0
  -28.7096  -12.1754   21.4323 H   0  0  0  0  0  0
  -28.4143  -13.8626   21.7806 H   0  0  0  0  0  0
  -25.2793   -9.5671   22.4743 H   0  0  0  0  0  0
  -24.0003   -7.4645   22.7446 H   0  0  0  0  0  0
  -21.0848   -8.8793   19.8965 H   0  0  0  0  0  0
  -22.3726  -10.9679   19.6146 H   0  0  0  0  0  0
  -21.2066   -7.6164   23.9737 H   0  0  0  0  0  0
  -21.1440   -6.0534   25.9082 H   0  0  0  0  0  0
  -22.0605   -2.7619   23.2850 H   0  0  0  0  0  0
  -22.4049  -11.9985   22.4919 H   0  0  0  0  0  0
  -21.1037  -13.1263   22.2497 H   0  0  0  0  0  0
  -24.6518  -15.8438   20.5158 H   0  0  0  0  0  0
  -26.2610  -15.6315   20.0526 H   0  0  0  0  0  0
  -26.7208  -32.5395   23.1086 H   0  0  0  0  0  0
  -25.0107  -33.9698   25.0406 H   0  0  0  0  0  0
  -22.7193  -31.2991   21.3968 H   0  0  0  0  0  0
  -23.3747  -35.9613   23.3266 H   0  0  0  0  0  0
  -24.3585  -36.8940   22.2052 H   0  0  0  0  0  0
  -23.7252  -37.6482   23.6683 H   0  0  0  0  0  0
  -26.1081  -31.5257   20.6056 H   0  0  0  0  0  0
  -26.8470  -30.8254   22.0142 H   0  0  0  0  0  0
  -28.1312  -28.9546   21.2068 H   0  0  0  0  0  0
  -26.0143  -25.9006   19.0210 H   0  0  0  0  0  0
  -23.9810  -27.2910   19.0252 H   0  0  0  0  0  0
  -23.7579  -30.5715   19.3996 H   0  0  0  0  0  0
  -22.7640  -29.2298   19.8695 H   0  0  0  0  0  0
  -25.1293  -36.1892   25.0817 H   0  0  0  0  0  0
  -21.0013  -28.3273   24.1396 H   0  0  0  0  0  0
  -20.5694  -26.2286   23.3609 H   0  0  0  0  0  0
  -21.6652  -26.7419   22.1202 H   0  0  0  0  0  0
  -19.6914  -25.6296   21.1257 H   0  0  0  0  0  0
  -19.6725  -27.3180   20.6746 H   0  0  0  0  0  0
  -17.4213  -26.6699   21.4023 H   0  0  0  0  0  0
  -18.0322  -26.0076   22.9005 H   0  0  0  0  0  0
  -19.7939  -30.7289   24.2282 H   0  0  0  0  0  0
  -17.5004  -31.6271   24.5146 H   0  0  0  0  0  0
  -15.5352  -30.2974   23.7670 H   0  0  0  0  0  0
  -15.8679  -28.0806   22.7104 H   0  0  0  0  0  0
  -24.5857  -30.7198   25.7771 H   0  0  0  0  0  0
  -24.8965  -32.3008   26.4811 H   0  0  0  0  0  0
  -25.7994  -30.8991   27.0235 H   0  0  0  0  0  0
  -26.2955  -29.6734   24.1235 H   0  0  0  0  0  0
  -27.4008  -29.7262   25.4771 H   0  0  0  0  0  0
  -27.8848  -30.4240   23.9502 H   0  0  0  0  0  0
  -27.2636  -33.3651   26.2056 H   0  0  0  0  0  0
  -28.3872  -32.6933   25.0327 H   0  0  0  0  0  0
  -28.0721  -31.8493   26.5427 H   0  0  0  0  0  0
  -28.2571  -38.0112   24.7527 H   0  0  0  0  0  0
  -28.1121  -36.2640   24.6214 H   0  0  0  0  0  0
  -27.2309  -37.1351   25.8855 H   0  0  0  0  0  0
  -20.9380  -29.8696   21.6823 H   0  0  0  0  0  0
  -26.0153  -38.2828   24.1437 H   0  0  0  0  0  0
  -30.6768  -21.7069   22.9218 H   0  0  0  0  0  0
  -31.9889  -22.8344   22.9170 H   0  0  0  0  0  0
  -30.4789  -24.7325   23.1511 H   0  0  0  0  0  0
  -30.1103  -23.5879   24.3994 H   0  0  0  0  0  0
  -31.5072  -22.1295   20.5732 H   0  0  0  0  0  0
  -31.2704  -23.8121   20.7763 H   0  0  0  0  0  0
  -27.4458  -23.7604   20.9743 H   0  0  0  0  0  0
  -28.0650  -24.5350   23.3175 H   0  0  0  0  0  0
  -29.4442  -22.9992   19.4932 H   0  0  0  0  0  0
  -29.8973  -25.5987   21.0042 H   0  0  0  0  0  0
  -28.5622  -26.0515   21.9621 H   0  0  0  0  0  0
  -28.6918  -18.4833   21.5226 H   0  0  0  0  0  0
  -28.5492  -18.3977   19.7936 H   0  0  0  0  0  0
  -31.0277  -17.4797   21.4006 H   0  0  0  0  0  0
  -30.9210  -17.4122   19.6775 H   0  0  0  0  0  0
  -30.4358  -20.1508   19.5815 H   0  0  0  0  0  0
  -30.5593  -20.1624   21.3122 H   0  0  0  0  0  0
  -28.8990  -15.7121   20.9379 H   0  0  0  0  0  0
  -28.3814  -21.6838   23.3610 H   0  0  0  0  0  0
  -26.9417  -22.4356   23.0379 H   0  0  0  0  0  0
  -27.7492  -22.7178   24.3935 H   0  0  0  0  0  0
  -28.3238  -21.1954   19.6995 H   0  0  0  0  0  0
  -28.2395  -21.1156   21.2884 H   0  0  0  0  0  0
  1 25  1  0  0  0
  1 30  2  0  0  0
  1 81  1  0  0  0
  2  3  1  0  0  0
  2 25  1  0  0  0
  2 84  1  0  0  0
  2 85  1  0  0  0
  3  4  1  0  0  0
  3 86  1  0  0  0
  3 87  1  0  0  0
  4  5  1  0  0  0
  4 88  1  0  0  0
  4 89  1  0  0  0
  5  6  1  0  0  0
  5 26  1  0  0  0
  5 90  1  0  0  0
  6 25  1  0  0  0
  6 91  1  0  0  0
  6 92  1  0  0  0
  7  8  2  0  0  0
  7 26  1  0  0  0
  7 29  1  0  0  0
  8  9  1  0  0  0
  8 22  1  0  0  0
  9 10  1  0  0  0
  9 27  2  0  0  0
 10 11  2  0  0  0
 10 15  1  0  0  0
 11 12  1  0  0  0
 11 93  1  0  0  0
 12 13  2  0  0  0
 12 94  1  0  0  0
 13 14  1  0  0  0
 13 31  1  0  0  0
 14 15  2  0  0  0
 14 95  1  0  0  0
 15 96  1  0  0  0
 16 17  2  0  0  0
 16 21  1  0  0  0
 16 31  1  0  0  0
 17 18  1  0  0  0
 17 97  1  0  0  0
 18 19  2  0  0  0
 18 98  1  0  0  0
 19 20  1  0  0  0
 19 24  1  0  0  0
 20 21  2  0  0  0
 20 99  1  0  0  0
 21 23  1  0  0  0
 22 28  1  0  0  0
 22 32  2  0  0  0
 26 27  1  0  0  0
 28100  1  0  0  0
 28101  1  0  0  0
 29102  1  0  0  0
 29103  1  0  0  0
 33 34  1  0  0  0
 33 66  1  0  0  0
 33 70  2  0  0  0
 34 36  1  0  0  0
 34 59  1  0  0  0
 34104  1  0  0  0
 35 44  2  0  0  0
 35 45  1  0  0  0
 35 68  1  0  0  0
 36 56  1  0  0  0
 36105  1  0  0  0
 37 39  1  0  0  0
 37 47  1  0  0  0
 37 66  1  0  0  0
 37106  1  0  0  0
 38 43  2  0  0  0
 38 46  1  0  0  0
 38 47  1  0  0  0
 39 64  1  0  0  0
 39 67  2  0  0  0
 40 52  1  0  0  0
 40 53  2  0  0  0
 40 58  1  0  0  0
 41107  1  0  0  0
 41108  1  0  0  0
 41109  1  0  0  0
 41 48  1  0  0  0
 42 43  1  0  0  0
 42 66  1  0  0  0
 42110  1  0  0  0
 42111  1  0  0  0
 43 44  1  0  0  0
 44112  1  0  0  0
 45 46  2  0  0  0
 45113  1  0  0  0
 46114  1  0  0  0
 47115  1  0  0  0
 47116  1  0  0  0
 48 56  1  0  0  0
 48 65  1  0  0  0
 48117  1  0  0  0
 49 50  1  0  0  0
 49 53  1  0  0  0
 49 64  1  0  0  0
 49118  1  0  0  0
 50 51  1  0  0  0
 50119  1  0  0  0
 50120  1  0  0  0
 51 52  1  0  0  0
 51121  1  0  0  0
 51122  1  0  0  0
 52123  1  0  0  0
 52124  1  0  0  0
 53 54  1  0  0  0
 54 55  2  0  0  0
 54125  1  0  0  0
 55 57  1  0  0  0
 55126  1  0  0  0
 56 69  2  0  0  0
 57 58  2  0  0  0
 57127  1  0  0  0
 58128  1  0  0  0
 59 60  1  0  0  0
 59 61  1  0  0  0
 59 62  1  0  0  0
 60129  1  0  0  0
 60130  1  0  0  0
 60131  1  0  0  0
 61132  1  0  0  0
 61133  1  0  0  0
 61134  1  0  0  0
 62135  1  0  0  0
 62136  1  0  0  0
 62137  1  0  0  0
 63 65  1  0  0  0
 63138  1  0  0  0
 63139  1  0  0  0
 63140  1  0  0  0
 64141  1  0  0  0
 65142  1  0  0  0
 68 77  1  0  0  0
 71 72  1  0  0  0
 71 73  1  0  0  0
 71143  1  0  0  0
 71144  1  0  0  0
 72 75  1  0  0  0
 72145  1  0  0  0
 72146  1  0  0  0
 73 76  1  0  0  0
 73147  1  0  0  0
 73148  1  0  0  0
 74 75  1  0  0  0
 74 76  1  0  0  0
 74 77  1  0  0  0
 74149  1  0  0  0
 75 82  1  0  0  0
 75150  1  0  0  0
 76 83  1  0  0  0
 76151  1  0  0  0
 77152  1  0  0  0
 77153  1  0  0  0
 78 79  1  0  0  0
 78 80  1  0  0  0
 78154  1  0  0  0
 78155  1  0  0  0
 79 81  1  0  0  0
 79156  1  0  0  0
 79157  1  0  0  0
 80 83  1  0  0  0
 80158  1  0  0  0
 80159  1  0  0  0
 81160  1  0  0  0
 82161  1  0  0  0
 82162  1  0  0  0
 82163  1  0  0  0
 83164  1  0  0  0
 83165  1  0  0  0
M  CHG  2  82   1  83   1
M  ISO  4   1 100  68 101  77 101  81 100
M  END
> <chiral flag>
0

> <version>
0

> <s_m_source_file>
/data/baiqing/PycharmProjects/Reinvent-master-3.2/result/LINK_invent/BTK/process_docking_weight1_custom_sum_contain_oxygen_bond_distance_aromatic_linkinvent_7_9_3/rearranged_h_0133.sdf

> <i_m_source_file_index>
7

> <r_mmod_Potential_Energy-OPLS-2005>
-83.1394119262695

> <r_mmod_Stretch_Energy-OPLS-2005>
134.218841552734

> <r_mmod_Bend_Energy-OPLS-2005>
215.720565795898

> <r_mmod_Torsional_Energy-OPLS-2005>
296.103179931641

> <r_mmod_Improper_Torsional_Energy-OPLS-2005>
5.02049779891968

> <r_mmod_Van_der_Waal_Energy-OPLS-2005>
122.561363220215

> <r_mmod_Electrostatic_Energy-OPLS-2005>
174.059555053711

> <r_mmod_Solvation_Energy-OPLS-2005>
-1105.34118652344

> <b_mmod_Minimization_Converged-OPLS-2005>
0

> <r_mmod_RMS_Derivative-OPLS-2005>
3.96243572235107

$$$$
7
                    3D
 Structure written by MMmdl.
155163  0  0  1  0            999 V2000
  -30.6322  -14.6684   20.4815 C   0  0  0  0  0  0
  -30.4289  -12.4072   19.4584 C   0  0  0  0  0  0
  -29.5019  -12.4996   18.2269 C   0  0  0  0  0  0
  -28.0266  -12.3336   18.6437 C   0  0  0  0  0  0
  -27.6442  -13.2226   19.8562 C   0  0  2  0  0  0
  -28.6907  -13.1168   20.9860 C   0  0  0  0  0  0
  -25.2511  -13.8177   20.5693 C   0  0  0  0  0  0
  -24.1792  -13.0433   20.9193 C   0  0  0  0  0  0
  -24.6375  -11.6903   20.8749 C   0  0  0  0  0  0
  -23.9053  -10.4281   21.0409 C   0  0  0  0  0  0
  -24.3608   -9.4205   21.9194 C   0  0  0  0  0  0
  -23.6282   -8.2235   22.0759 C   0  0  0  0  0  0
  -22.4268   -8.0269   21.3543 C   0  0  0  0  0  0
  -21.9908   -9.0242   20.4649 C   0  0  0  0  0  0
  -22.7226  -10.2121   20.3062 C   0  0  0  0  0  0
  -21.6850   -6.0727   22.5273 C   0  0  0  0  0  0
  -21.4011   -6.5630   23.8209 C   0  0  0  0  0  0
  -21.3663   -5.6787   24.9171 C   0  0  0  0  0  0
  -21.6048   -4.3053   24.7223 C   0  0  0  0  0  0
  -21.8815   -3.8142   23.4348 C   0  0  0  0  0  0
  -21.9187   -4.6954   22.3401 C   0  0  0  0  0  0
  -22.7819  -13.5219   21.1872 C   0  0  0  0  0  0
  -22.1657   -4.2139   21.0982 F   0  0  0  0  0  0
  -21.5635   -3.4544   25.7741 F   0  0  0  0  0  0
  -29.9977  -13.4547   20.4056 N   0  0  0  0  0  0
  -26.2939  -12.9372   20.3312 N   0  0  0  0  0  0
  -25.9308  -11.6521   20.5775 N   0  0  0  0  0  0
  -22.0472  -12.8195   22.0421 N   0  0  0  0  0  0
  -25.4192  -15.1903   20.4085 N   0  0  0  0  0  0
  -31.8186  -14.7836   20.1638 O   0  0  0  0  0  0
  -21.6634   -6.8870   21.4235 O   0  0  0  0  0  0
  -22.3502  -14.5525   20.6723 O   0  0  0  0  0  0
  -24.6277  -31.8563   23.2018 C   0  0  0  0  0  0
  -25.9117  -32.4756   23.8359 C   0  0  1  0  0  0
  -27.2253  -27.3070   20.0977 C   0  0  0  0  0  0
  -25.5923  -33.8557   24.2279 N   0  0  0  0  0  0
  -23.4220  -30.4817   21.5433 C   0  0  2  0  0  0
  -24.8680  -28.9366   20.1054 C   0  0  0  0  0  0
  -22.7491  -29.4596   22.4905 C   0  0  0  0  0  0
  -18.0283  -28.1387   22.8479 C   0  0  0  0  0  0
  -24.1480  -36.7290   23.2648 C   0  0  0  0  0  0
  -25.9647  -30.7801   21.3764 C   0  0  0  0  0  0
  -26.0359  -29.4078   20.7170 C   0  0  0  0  0  0
  -27.2136  -28.6007   20.7100 C   0  0  0  0  0  0
  -26.0237  -26.8800   19.4888 C   0  0  0  0  0  0
  -24.8644  -27.6793   19.4851 C   0  0  0  0  0  0
  -23.6380  -29.8215   20.1565 C   0  0  0  0  0  0
  -25.4106  -36.3073   24.0334 C   0  0  1  0  0  0
  -20.5888  -28.3676   23.1277 C   0  0  2  0  0  0
  -20.6762  -26.9388   22.5401 C   0  0  0  0  0  0
  -19.5739  -26.6375   21.5205 C   0  0  0  0  0  0
  -18.1916  -26.7929   22.1615 C   0  0  0  0  0  0
  -19.1543  -28.8849   23.2871 C   0  0  0  0  0  0
  -18.9468  -30.1461   23.8892 C   0  0  0  0  0  0
  -17.6471  -30.6588   24.0564 C   0  0  0  0  0  0
  -25.9036  -34.9436   23.5111 C   0  0  0  0  0  0
  -16.5355  -29.9083   23.6340 C   0  0  0  0  0  0
  -16.7272  -28.6508   23.0350 C   0  0  0  0  0  0
  -26.4511  -31.6590   25.0745 C   0  0  0  0  0  0
  -25.3736  -31.3690   26.1471 C   0  0  0  0  0  0
  -27.0375  -30.3025   24.6191 C   0  0  0  0  0  0
  -27.6093  -32.4329   25.7491 C   0  0  0  0  0  0
  -27.5575  -37.1798   24.8468 C   0  0  0  0  0  0
  -21.4193  -29.3038   22.3680 N   0  0  0  0  0  0
  -26.4281  -37.3771   23.9420 N   0  0  0  0  0  0
  -24.6907  -31.0563   22.0981 N   0  0  0  0  0  0
  -23.4212  -28.8116   23.2968 O   0  0  0  0  0  0
  -28.3529  -26.4683   20.1627 O   0  0  0  0  0  0
  -26.5604  -34.8904   22.4677 O   0  0  0  0  0  0
  -23.5433  -32.1361   23.7331 O   0  0  0  0  0  0
  -29.5023  -22.9174   18.9941 C   0  0  0  0  0  0
  -29.6736  -21.5458   19.3552 C   0  0  0  0  0  0
  -28.1219  -23.2841   20.9147 C   0  0  0  0  0  0
  -28.7422  -23.8392   19.7683 C   0  0  0  0  0  0
  -28.2752  -21.9054   21.2814 C   0  0  0  0  0  0
  -29.0855  -20.9957   20.5233 C   0  0  0  0  0  0
  -28.5341  -25.3178   19.2499 C   0  0  0  0  0  0
  -29.5926  -18.4064   20.1644 C   0  0  0  0  0  0
  -30.2853  -17.2074   20.9752 C   0  0  0  0  0  0
  -27.4945  -21.4350   22.5027 C   0  0  0  0  0  0
  -29.3202  -19.6428   20.9663 N   0  0  0  0  0  0
  -29.8607  -15.7763   20.7381 N   0  0  0  0  0  0
  -26.1858  -21.5840   22.2873 F   0  0  0  0  0  0
  -27.8448  -22.1397   23.5781 F   0  0  0  0  0  0
  -31.4720  -12.5224   19.1592 H   0  0  0  0  0  0
  -30.3568  -11.4228   19.9241 H   0  0  0  0  0  0
  -29.7705  -11.7391   17.4926 H   0  0  0  0  0  0
  -29.6372  -13.4637   17.7342 H   0  0  0  0  0  0
  -27.8744  -11.2839   18.8978 H   0  0  0  0  0  0
  -27.3678  -12.5404   17.7998 H   0  0  0  0  0  0
  -27.6500  -14.2504   19.4932 H   0  0  0  0  0  0
  -28.7089  -12.1068   21.3990 H   0  0  0  0  0  0
  -28.4387  -13.7771   21.8178 H   0  0  0  0  0  0
  -25.2751   -9.5669   22.4776 H   0  0  0  0  0  0
  -23.9986   -7.4626   22.7492 H   0  0  0  0  0  0
  -21.0839   -8.8759   19.8958 H   0  0  0  0  0  0
  -22.3690  -10.9661   19.6172 H   0  0  0  0  0  0
  -21.2004   -7.6141   23.9705 H   0  0  0  0  0  0
  -21.1497   -6.0527   25.9073 H   0  0  0  0  0  0
  -22.0594   -2.7602   23.2855 H   0  0  0  0  0  0
  -22.4090  -11.9836   22.4762 H   0  0  0  0  0  0
  -21.1110  -13.1237   22.2681 H   0  0  0  0  0  0
  -24.6479  -15.8421   20.5077 H   0  0  0  0  0  0
  -26.2636  -15.6303   20.0642 H   0  0  0  0  0  0
  -26.7182  -32.5413   23.1091 H   0  0  0  0  0  0
  -25.0113  -33.9721   25.0455 H   0  0  0  0  0  0
  -22.7172  -31.3037   21.4019 H   0  0  0  0  0  0
  -23.3743  -35.9624   23.3308 H   0  0  0  0  0  0
  -24.3566  -36.8905   22.2061 H   0  0  0  0  0  0
  -23.7225  -37.6487   23.6671 H   0  0  0  0  0  0
  -26.0969  -31.5406   20.6059 H   0  0  0  0  0  0
  -26.8475  -30.8307   22.0025 H   0  0  0  0  0  0
  -28.1092  -28.9555   21.1989 H   0  0  0  0  0  0
  -25.9332  -25.9037   19.0397 H   0  0  0  0  0  0
  -23.9661  -27.3118   19.0095 H   0  0  0  0  0  0
  -23.7593  -30.6030   19.4056 H   0  0  0  0  0  0
  -22.7568  -29.2556   19.8495 H   0  0  0  0  0  0
  -25.1268  -36.1927   25.0817 H   0  0  0  0  0  0
  -20.9987  -28.3237   24.1395 H   0  0  0  0  0  0
  -20.5641  -26.2267   23.3594 H   0  0  0  0  0  0
  -21.6628  -26.7394   22.1199 H   0  0  0  0  0  0
  -19.6885  -25.6280   21.1235 H   0  0  0  0  0  0
  -19.6694  -27.3187   20.6729 H   0  0  0  0  0  0
  -17.4174  -26.6691   21.4022 H   0  0  0  0  0  0
  -18.0327  -26.0063   22.9011 H   0  0  0  0  0  0
  -19.7944  -30.7289   24.2250 H   0  0  0  0  0  0
  -17.5009  -31.6273   24.5167 H   0  0  0  0  0  0
  -15.5356  -30.2984   23.7664 H   0  0  0  0  0  0
  -15.8667  -28.0837   22.7061 H   0  0  0  0  0  0
  -24.5977  -30.6941   25.7807 H   0  0  0  0  0  0
  -24.8841  -32.2829   26.4873 H   0  0  0  0  0  0
  -25.8082  -30.8923   27.0267 H   0  0  0  0  0  0
  -26.2952  -29.6743   24.1251 H   0  0  0  0  0  0
  -27.4134  -29.7312   25.4686 H   0  0  0  0  0  0
  -27.8772  -30.4352   23.9364 H   0  0  0  0  0  0
  -27.2783  -33.3705   26.1972 H   0  0  0  0  0  0
  -28.3943  -32.6758   25.0318 H   0  0  0  0  0  0
  -28.0689  -31.8484   26.5466 H   0  0  0  0  0  0
  -28.2576  -38.0108   24.7539 H   0  0  0  0  0  0
  -28.1086  -36.2648   24.6268 H   0  0  0  0  0  0
  -27.2299  -37.1397   25.8868 H   0  0  0  0  0  0
  -20.9357  -29.8810   21.6941 H   0  0  0  0  0  0
  -26.0158  -38.2832   24.1463 H   0  0  0  0  0  0
  -29.9725  -23.2640   18.0838 H   0  0  0  0  0  0
  -30.2918  -20.9240   18.7232 H   0  0  0  0  0  0
  -27.4926  -23.9213   21.5205 H   0  0  0  0  0  0
  -27.8011  -25.2911   18.4463 H   0  0  0  0  0  0
  -29.4568  -25.5631   18.7219 H   0  0  0  0  0  0
  -28.6419  -18.0644   19.7530 H   0  0  0  0  0  0
  -30.2126  -18.6580   19.3023 H   0  0  0  0  0  0
  -30.1101  -17.3722   22.0395 H   0  0  0  0  0  0
  -31.3679  -17.2900   20.8599 H   0  0  0  0  0  0
  -27.6487  -20.3843   22.7434 H   0  0  0  0  0  0
  -29.1137  -19.4486   21.9404 H   0  0  0  0  0  0
  -28.8871  -15.5805   20.9137 H   0  0  0  0  0  0
  1 25  1  0  0  0
  1 30  2  0  0  0
  1 82  1  0  0  0
  2  3  1  0  0  0
  2 25  1  0  0  0
  2 85  1  0  0  0
  2 86  1  0  0  0
  3  4  1  0  0  0
  3 87  1  0  0  0
  3 88  1  0  0  0
  4  5  1  0  0  0
  4 89  1  0  0  0
  4 90  1  0  0  0
  5  6  1  0  0  0
  5 26  1  0  0  0
  5 91  1  0  0  0
  6 25  1  0  0  0
  6 92  1  0  0  0
  6 93  1  0  0  0
  7  8  2  0  0  0
  7 26  1  0  0  0
  7 29  1  0  0  0
  8  9  1  0  0  0
  8 22  1  0  0  0
  9 10  1  0  0  0
  9 27  2  0  0  0
 10 11  2  0  0  0
 10 15  1  0  0  0
 11 12  1  0  0  0
 11 94  1  0  0  0
 12 13  2  0  0  0
 12 95  1  0  0  0
 13 14  1  0  0  0
 13 31  1  0  0  0
 14 15  2  0  0  0
 14 96  1  0  0  0
 15 97  1  0  0  0
 16 17  2  0  0  0
 16 21  1  0  0  0
 16 31  1  0  0  0
 17 18  1  0  0  0
 17 98  1  0  0  0
 18 19  2  0  0  0
 18 99  1  0  0  0
 19 20  1  0  0  0
 19 24  1  0  0  0
 20 21  2  0  0  0
 20100  1  0  0  0
 21 23  1  0  0  0
 22 28  1  0  0  0
 22 32  2  0  0  0
 26 27  1  0  0  0
 28101  1  0  0  0
 28102  1  0  0  0
 29103  1  0  0  0
 29104  1  0  0  0
 33 34  1  0  0  0
 33 66  1  0  0  0
 33 70  2  0  0  0
 34 36  1  0  0  0
 34 59  1  0  0  0
 34105  1  0  0  0
 35 44  2  0  0  0
 35 45  1  0  0  0
 35 68  1  0  0  0
 36 56  1  0  0  0
 36106  1  0  0  0
 37 39  1  0  0  0
 37 47  1  0  0  0
 37 66  1  0  0  0
 37107  1  0  0  0
 38 43  2  0  0  0
 38 46  1  0  0  0
 38 47  1  0  0  0
 39 64  1  0  0  0
 39 67  2  0  0  0
 40 52  1  0  0  0
 40 53  2  0  0  0
 40 58  1  0  0  0
 41108  1  0  0  0
 41109  1  0  0  0
 41110  1  0  0  0
 41 48  1  0  0  0
 42 43  1  0  0  0
 42 66  1  0  0  0
 42111  1  0  0  0
 42112  1  0  0  0
 43 44  1  0  0  0
 44113  1  0  0  0
 45 46  2  0  0  0
 45114  1  0  0  0
 46115  1  0  0  0
 47116  1  0  0  0
 47117  1  0  0  0
 48 56  1  0  0  0
 48 65  1  0  0  0
 48118  1  0  0  0
 49 50  1  0  0  0
 49 53  1  0  0  0
 49 64  1  0  0  0
 49119  1  0  0  0
 50 51  1  0  0  0
 50120  1  0  0  0
 50121  1  0  0  0
 51 52  1  0  0  0
 51122  1  0  0  0
 51123  1  0  0  0
 52124  1  0  0  0
 52125  1  0  0  0
 53 54  1  0  0  0
 54 55  2  0  0  0
 54126  1  0  0  0
 55 57  1  0  0  0
 55127  1  0  0  0
 56 69  2  0  0  0
 57 58  2  0  0  0
 57128  1  0  0  0
 58129  1  0  0  0
 59 60  1  0  0  0
 59 61  1  0  0  0
 59 62  1  0  0  0
 60130  1  0  0  0
 60131  1  0  0  0
 60132  1  0  0  0
 61133  1  0  0  0
 61134  1  0  0  0
 61135  1  0  0  0
 62136  1  0  0  0
 62137  1  0  0  0
 62138  1  0  0  0
 63 65  1  0  0  0
 63139  1  0  0  0
 63140  1  0  0  0
 63141  1  0  0  0
 64142  1  0  0  0
 65143  1  0  0  0
 68 77  1  0  0  0
 71 72  2  0  0  0
 71 74  1  0  0  0
 71144  1  0  0  0
 72 76  1  0  0  0
 72145  1  0  0  0
 73 74  2  0  0  0
 73 75  1  0  0  0
 73146  1  0  0  0
 74 77  1  0  0  0
 75 76  2  0  0  0
 75 80  1  0  0  0
 76 81  1  0  0  0
 77147  1  0  0  0
 77148  1  0  0  0
 78 79  1  0  0  0
 78 81  1  0  0  0
 78149  1  0  0  0
 78150  1  0  0  0
 79 82  1  0  0  0
 79151  1  0  0  0
 79152  1  0  0  0
 80 83  1  0  0  0
 80 84  1  0  0  0
 80153  1  0  0  0
 81154  1  0  0  0
 82155  1  0  0  0
M  ISO  4   1 100  68 101  77 101  82 100
M  END
> <chiral flag>
0

> <version>
0

> <s_m_source_file>
/data/baiqing/PycharmProjects/Reinvent-master-3.2/result/LINK_invent/BTK/process_docking_weight1_custom_sum_contain_oxygen_bond_distance_aromatic_linkinvent_7_9_3/rearranged_h_0133.sdf

> <i_m_source_file_index>
8

> <r_mmod_Potential_Energy-OPLS-2005>
41.6672172546387

> <r_mmod_Stretch_Energy-OPLS-2005>
84.7056503295898

> <r_mmod_Bend_Energy-OPLS-2005>
167.206146240234

> <r_mmod_Torsional_Energy-OPLS-2005>
214.010360717773

> <r_mmod_Improper_Torsional_Energy-OPLS-2005>
5.1281099319458

> <r_mmod_Van_der_Waal_Energy-OPLS-2005>
142.884948730469

> <r_mmod_Electrostatic_Energy-OPLS-2005>
-406.310180664062

> <r_mmod_Solvation_Energy-OPLS-2005>
-223.403793334961

> <b_mmod_Minimization_Converged-OPLS-2005>
0

> <r_mmod_RMS_Derivative-OPLS-2005>
2.22814965248108

$$$$
8
                    3D
 Structure written by MMmdl.
164172  0  0  1  0            999 V2000
  -30.7503  -14.4123   20.6344 C   0  0  0  0  0  0
  -30.4177  -12.2960   19.4127 C   0  0  0  0  0  0
  -29.4891  -12.5078   18.2013 C   0  0  0  0  0  0
  -28.0117  -12.3696   18.6165 C   0  0  0  0  0  0
  -27.6635  -13.2053   19.8773 C   0  0  2  0  0  0
  -28.7048  -12.9744   20.9967 C   0  0  0  0  0  0
  -25.2583  -13.8155   20.5676 C   0  0  0  0  0  0
  -24.1835  -13.0432   20.9175 C   0  0  0  0  0  0
  -24.6395  -11.6901   20.8741 C   0  0  0  0  0  0
  -23.9067  -10.4285   21.0404 C   0  0  0  0  0  0
  -24.3621   -9.4200   21.9178 C   0  0  0  0  0  0
  -23.6289   -8.2236   22.0749 C   0  0  0  0  0  0
  -22.4272   -8.0274   21.3542 C   0  0  0  0  0  0
  -21.9913   -9.0246   20.4642 C   0  0  0  0  0  0
  -22.7241  -10.2126   20.3051 C   0  0  0  0  0  0
  -21.6857   -6.0732   22.5280 C   0  0  0  0  0  0
  -21.4018   -6.5638   23.8212 C   0  0  0  0  0  0
  -21.3653   -5.6788   24.9173 C   0  0  0  0  0  0
  -21.6040   -4.3052   24.7226 C   0  0  0  0  0  0
  -21.8817   -3.8145   23.4349 C   0  0  0  0  0  0
  -21.9195   -4.6959   22.3405 C   0  0  0  0  0  0
  -22.7860  -13.5226   21.1837 C   0  0  0  0  0  0
  -22.1665   -4.2151   21.0983 F   0  0  0  0  0  0
  -21.5620   -3.4532   25.7738 F   0  0  0  0  0  0
  -30.0416  -13.2681   20.4493 N   0  0  0  0  0  0
  -26.3030  -12.9326   20.3377 N   0  0  0  0  0  0
  -25.9326  -11.6487   20.5787 N   0  0  0  0  0  0
  -22.0502  -12.8212   22.0390 N   0  0  0  0  0  0
  -25.4285  -15.1876   20.4064 N   0  0  0  0  0  0
  -31.8158  -14.6483   20.0593 O   0  0  0  0  0  0
  -21.6638   -6.8872   21.4241 O   0  0  0  0  0  0
  -22.3546  -14.5537   20.6689 O   0  0  0  0  0  0
  -24.6134  -31.8695   23.2113 C   0  0  0  0  0  0
  -25.9034  -32.4828   23.8405 C   0  0  1  0  0  0
  -27.2311  -27.4494   20.0894 C   0  0  0  0  0  0
  -25.5902  -33.8627   24.2349 N   0  0  0  0  0  0
  -23.4003  -30.4928   21.5519 C   0  0  2  0  0  0
  -24.8458  -28.9609   20.1159 C   0  0  0  0  0  0
  -22.7400  -29.4667   22.5002 C   0  0  0  0  0  0
  -18.0266  -28.1379   22.8487 C   0  0  0  0  0  0
  -24.1488  -36.7312   23.2639 C   0  0  0  0  0  0
  -25.9272  -30.8420   21.3586 C   0  0  0  0  0  0
  -26.0065  -29.4776   20.7049 C   0  0  0  0  0  0
  -27.2057  -28.7306   20.6837 C   0  0  0  0  0  0
  -26.0534  -26.9428   19.5001 C   0  0  0  0  0  0
  -24.8631  -27.6926   19.5103 C   0  0  0  0  0  0
  -23.6069  -29.8249   20.1665 C   0  0  0  0  0  0
  -25.4109  -36.3119   24.0343 C   0  0  1  0  0  0
  -20.5856  -28.3664   23.1321 C   0  0  2  0  0  0
  -20.6763  -26.9404   22.5417 C   0  0  0  0  0  0
  -19.5743  -26.6390   21.5209 C   0  0  0  0  0  0
  -18.1919  -26.7926   22.1618 C   0  0  0  0  0  0
  -19.1516  -28.8836   23.2901 C   0  0  0  0  0  0
  -18.9446  -30.1441   23.8915 C   0  0  0  0  0  0
  -17.6451  -30.6586   24.0560 C   0  0  0  0  0  0
  -25.9032  -34.9479   23.5141 C   0  0  0  0  0  0
  -16.5341  -29.9089   23.6325 C   0  0  0  0  0  0
  -16.7255  -28.6503   23.0350 C   0  0  0  0  0  0
  -26.4474  -31.6589   25.0714 C   0  0  0  0  0  0
  -25.3751  -31.3652   26.1461 C   0  0  0  0  0  0
  -27.0312  -30.3050   24.6051 C   0  0  0  0  0  0
  -27.6068  -32.4293   25.7468 C   0  0  0  0  0  0
  -27.5582  -37.1812   24.8467 C   0  0  0  0  0  0
  -21.4130  -29.3033   22.3735 N   0  0  0  0  0  0
  -26.4296  -37.3801   23.9415 N   0  0  0  0  0  0
  -24.6658  -31.0810   22.1001 N   0  0  0  0  0  0
  -23.4177  -28.8205   23.3037 O   0  0  0  0  0  0
  -28.3941  -26.7135   20.0814 O   0  0  0  0  0  0
  -26.5582  -34.8919   22.4695 O   0  0  0  0  0  0
  -23.5333  -32.1439   23.7518 O   0  0  0  0  0  0
  -26.7527  -19.7746   20.0611 C   0  0  0  0  0  0
  -26.6710  -21.7467   18.7855 C   0  0  0  0  0  0
  -28.0834  -20.4940   20.3704 C   0  0  2  0  0  0
  -28.0262  -21.8090   19.5290 C   0  0  2  0  0  0
  -29.3405  -19.6171   20.0985 C   0  0  0  0  0  0
  -30.8769  -16.5469   21.9105 C   0  0  0  0  0  0
  -28.3212  -24.2506   19.7006 C   0  0  0  0  0  0
  -30.7617  -17.7269   20.9114 C   0  0  0  0  0  0
  -28.3057  -25.4263   20.7046 C   0  0  0  0  0  0
  -30.2114  -15.3120   21.4715 N   0  0  0  0  0  0
  -28.1100  -22.9830   20.4110 N   0  0  0  0  0  0
  -25.8421  -20.8037   19.5444 N   0  3  0  0  0  0
  -29.4725  -18.4518   21.0171 N   0  3  0  0  0  0
  -31.4626  -12.3871   19.1111 H   0  0  0  0  0  0
  -30.3123  -11.2825   19.8033 H   0  0  0  0  0  0
  -29.7244  -11.7849   17.4195 H   0  0  0  0  0  0
  -29.6623  -13.4950   17.7696 H   0  0  0  0  0  0
  -27.8197  -11.3133   18.8082 H   0  0  0  0  0  0
  -27.3606  -12.6484   17.7876 H   0  0  0  0  0  0
  -27.7116  -14.2555   19.5879 H   0  0  0  0  0  0
  -28.6765  -11.9360   21.3304 H   0  0  0  0  0  0
  -28.4580  -13.5655   21.8786 H   0  0  0  0  0  0
  -25.2771   -9.5670   22.4745 H   0  0  0  0  0  0
  -24.0000   -7.4628   22.7462 H   0  0  0  0  0  0
  -21.0848   -8.8759   19.8943 H   0  0  0  0  0  0
  -22.3701  -10.9657   19.6153 H   0  0  0  0  0  0
  -21.2018   -7.6148   23.9720 H   0  0  0  0  0  0
  -21.1478   -6.0521   25.9077 H   0  0  0  0  0  0
  -22.0609   -2.7608   23.2857 H   0  0  0  0  0  0
  -22.4127  -11.9880   22.4781 H   0  0  0  0  0  0
  -21.1113  -13.1217   22.2587 H   0  0  0  0  0  0
  -24.6545  -15.8362   20.5013 H   0  0  0  0  0  0
  -26.2704  -15.6194   20.0500 H   0  0  0  0  0  0
  -26.7102  -32.5553   23.1171 H   0  0  0  0  0  0
  -25.0089  -33.9797   25.0519 H   0  0  0  0  0  0
  -22.6884  -31.3090   21.4134 H   0  0  0  0  0  0
  -23.3755  -35.9640   23.3314 H   0  0  0  0  0  0
  -24.3583  -36.8918   22.2052 H   0  0  0  0  0  0
  -23.7233  -37.6517   23.6641 H   0  0  0  0  0  0
  -26.0317  -31.6101   20.5909 H   0  0  0  0  0  0
  -26.8180  -30.8995   21.9722 H   0  0  0  0  0  0
  -28.1058  -29.1266   21.1330 H   0  0  0  0  0  0
  -26.0476  -25.9735   19.0262 H   0  0  0  0  0  0
  -23.9696  -27.2905   19.0531 H   0  0  0  0  0  0
  -23.7119  -30.5999   19.4064 H   0  0  0  0  0  0
  -22.7319  -29.2427   19.8718 H   0  0  0  0  0  0
  -25.1286  -36.1988   25.0836 H   0  0  0  0  0  0
  -20.9938  -28.3226   24.1444 H   0  0  0  0  0  0
  -20.5678  -26.2268   23.3599 H   0  0  0  0  0  0
  -21.6635  -26.7460   22.1206 H   0  0  0  0  0  0
  -19.6918  -25.6307   21.1229 H   0  0  0  0  0  0
  -19.6689  -27.3209   20.6745 H   0  0  0  0  0  0
  -17.4195  -26.6671   21.4016 H   0  0  0  0  0  0
  -18.0321  -26.0060   22.9005 H   0  0  0  0  0  0
  -19.7922  -30.7247   24.2302 H   0  0  0  0  0  0
  -17.5005  -31.6266   24.5160 H   0  0  0  0  0  0
  -15.5347  -30.2999   23.7637 H   0  0  0  0  0  0
  -15.8651  -28.0824   22.7071 H   0  0  0  0  0  0
  -24.5945  -30.6980   25.7780 H   0  0  0  0  0  0
  -24.8907  -32.2784   26.4931 H   0  0  0  0  0  0
  -25.8115  -30.8806   27.0203 H   0  0  0  0  0  0
  -26.2844  -29.6790   24.1151 H   0  0  0  0  0  0
  -27.4171  -29.7287   25.4470 H   0  0  0  0  0  0
  -27.8632  -30.4405   23.9136 H   0  0  0  0  0  0
  -27.2726  -33.3599   26.2060 H   0  0  0  0  0  0
  -28.3867  -32.6836   25.0279 H   0  0  0  0  0  0
  -28.0742  -31.8398   26.5366 H   0  0  0  0  0  0
  -28.2601  -38.0108   24.7525 H   0  0  0  0  0  0
  -28.1081  -36.2643   24.6291 H   0  0  0  0  0  0
  -27.2292  -37.1452   25.8865 H   0  0  0  0  0  0
  -20.9292  -29.8753   21.6952 H   0  0  0  0  0  0
  -26.0191  -38.2882   24.1417 H   0  0  0  0  0  0
  -26.3319  -19.2773   20.9366 H   0  0  0  0  0  0
  -26.8873  -19.0202   19.2843 H   0  0  0  0  0  0
  -26.8241  -21.3411   17.7839 H   0  0  0  0  0  0
  -26.1688  -22.7062   18.6631 H   0  0  0  0  0  0
  -28.0797  -20.7539   21.4305 H   0  0  0  0  0  0
  -28.8446  -21.8422   18.8067 H   0  0  0  0  0  0
  -30.2249  -20.2464   20.2118 H   0  0  0  0  0  0
  -29.3455  -19.2693   19.0639 H   0  0  0  0  0  0
  -30.4961  -16.8332   22.8915 H   0  0  0  0  0  0
  -31.9351  -16.3301   22.0714 H   0  0  0  0  0  0
  -29.2732  -24.2297   19.1672 H   0  0  0  0  0  0
  -27.5487  -24.4018   18.9485 H   0  0  0  0  0  0
  -30.9272  -17.3882   19.8876 H   0  0  0  0  0  0
  -31.5621  -18.4370   21.1269 H   0  0  0  0  0  0
  -29.1622  -25.3320   21.3728 H   0  0  0  0  0  0
  -27.4253  -25.3642   21.3488 H   0  0  0  0  0  0
  -29.3470  -15.0490   21.9227 H   0  0  0  0  0  0
  -27.2873  -23.0611   21.0020 H   0  0  0  0  0  0
  -25.4128  -21.2857   20.3173 H   0  0  0  0  0  0
  -25.1123  -20.4081   18.9737 H   0  0  0  0  0  0
  -28.7312  -17.7921   20.8488 H   0  0  0  0  0  0
  -29.3869  -18.7806   21.9660 H   0  0  0  0  0  0
  1 25  1  0  0  0
  1 30  2  0  0  0
  1 80  1  0  0  0
  2  3  1  0  0  0
  2 25  1  0  0  0
  2 84  1  0  0  0
  2 85  1  0  0  0
  3  4  1  0  0  0
  3 86  1  0  0  0
  3 87  1  0  0  0
  4  5  1  0  0  0
  4 88  1  0  0  0
  4 89  1  0  0  0
  5  6  1  0  0  0
  5 26  1  0  0  0
  5 90  1  0  0  0
  6 25  1  0  0  0
  6 91  1  0  0  0
  6 92  1  0  0  0
  7  8  2  0  0  0
  7 26  1  0  0  0
  7 29  1  0  0  0
  8  9  1  0  0  0
  8 22  1  0  0  0
  9 10  1  0  0  0
  9 27  2  0  0  0
 10 11  2  0  0  0
 10 15  1  0  0  0
 11 12  1  0  0  0
 11 93  1  0  0  0
 12 13  2  0  0  0
 12 94  1  0  0  0
 13 14  1  0  0  0
 13 31  1  0  0  0
 14 15  2  0  0  0
 14 95  1  0  0  0
 15 96  1  0  0  0
 16 17  2  0  0  0
 16 21  1  0  0  0
 16 31  1  0  0  0
 17 18  1  0  0  0
 17 97  1  0  0  0
 18 19  2  0  0  0
 18 98  1  0  0  0
 19 20  1  0  0  0
 19 24  1  0  0  0
 20 21  2  0  0  0
 20 99  1  0  0  0
 21 23  1  0  0  0
 22 28  1  0  0  0
 22 32  2  0  0  0
 26 27  1  0  0  0
 28100  1  0  0  0
 28101  1  0  0  0
 29102  1  0  0  0
 29103  1  0  0  0
 33 34  1  0  0  0
 33 66  1  0  0  0
 33 70  2  0  0  0
 34 36  1  0  0  0
 34 59  1  0  0  0
 34104  1  0  0  0
 35 44  2  0  0  0
 35 45  1  0  0  0
 35 68  1  0  0  0
 36 56  1  0  0  0
 36105  1  0  0  0
 37 39  1  0  0  0
 37 47  1  0  0  0
 37 66  1  0  0  0
 37106  1  0  0  0
 38 43  2  0  0  0
 38 46  1  0  0  0
 38 47  1  0  0  0
 39 64  1  0  0  0
 39 67  2  0  0  0
 40 52  1  0  0  0
 40 53  2  0  0  0
 40 58  1  0  0  0
 41107  1  0  0  0
 41108  1  0  0  0
 41109  1  0  0  0
 41 48  1  0  0  0
 42 43  1  0  0  0
 42 66  1  0  0  0
 42110  1  0  0  0
 42111  1  0  0  0
 43 44  1  0  0  0
 44112  1  0  0  0
 45 46  2  0  0  0
 45113  1  0  0  0
 46114  1  0  0  0
 47115  1  0  0  0
 47116  1  0  0  0
 48 56  1  0  0  0
 48 65  1  0  0  0
 48117  1  0  0  0
 49 50  1  0  0  0
 49 53  1  0  0  0
 49 64  1  0  0  0
 49118  1  0  0  0
 50 51  1  0  0  0
 50119  1  0  0  0
 50120  1  0  0  0
 51 52  1  0  0  0
 51121  1  0  0  0
 51122  1  0  0  0
 52123  1  0  0  0
 52124  1  0  0  0
 53 54  1  0  0  0
 54 55  2  0  0  0
 54125  1  0  0  0
 55 57  1  0  0  0
 55126  1  0  0  0
 56 69  2  0  0  0
 57 58  2  0  0  0
 57127  1  0  0  0
 58128  1  0  0  0
 59 60  1  0  0  0
 59 61  1  0  0  0
 59 62  1  0  0  0
 60129  1  0  0  0
 60130  1  0  0  0
 60131  1  0  0  0
 61132  1  0  0  0
 61133  1  0  0  0
 61134  1  0  0  0
 62135  1  0  0  0
 62136  1  0  0  0
 62137  1  0  0  0
 63 65  1  0  0  0
 63138  1  0  0  0
 63139  1  0  0  0
 63140  1  0  0  0
 64141  1  0  0  0
 65142  1  0  0  0
 68 79  1  0  0  0
 71 73  1  0  0  0
 71 82  1  0  0  0
 71143  1  0  0  0
 71144  1  0  0  0
 72 74  1  0  0  0
 72 82  1  0  0  0
 72145  1  0  0  0
 72146  1  0  0  0
 73 74  1  0  0  0
 73 75  1  0  0  0
 73147  1  0  0  0
 74 81  1  0  0  0
 74148  1  0  0  0
 75 83  1  0  0  0
 75149  1  0  0  0
 75150  1  0  0  0
 76 78  1  0  0  0
 76 80  1  0  0  0
 76151  1  0  0  0
 76152  1  0  0  0
 77 79  1  0  0  0
 77 81  1  0  0  0
 77153  1  0  0  0
 77154  1  0  0  0
 78 83  1  0  0  0
 78155  1  0  0  0
 78156  1  0  0  0
 79157  1  0  0  0
 79158  1  0  0  0
 80159  1  0  0  0
 81160  1  0  0  0
 82161  1  0  0  0
 82162  1  0  0  0
 83163  1  0  0  0
 83164  1  0  0  0
M  CHG  2  82   1  83   1
M  ISO  4   1 100  68 101  79 101  80 100
M  END
> <chiral flag>
0

> <version>
0

> <s_m_source_file>
/data/baiqing/PycharmProjects/Reinvent-master-3.2/result/LINK_invent/BTK/process_docking_weight1_custom_sum_contain_oxygen_bond_distance_aromatic_linkinvent_7_9_3/rearranged_h_0133.sdf

> <i_m_source_file_index>
9

> <r_mmod_Potential_Energy-OPLS-2005>
-349.202178955078

> <r_mmod_Stretch_Energy-OPLS-2005>
36.2696762084961

> <r_mmod_Bend_Energy-OPLS-2005>
111.990051269531

> <r_mmod_Torsional_Energy-OPLS-2005>
309.826324462891

> <r_mmod_Improper_Torsional_Energy-OPLS-2005>
2.08185839653015

> <r_mmod_Van_der_Waal_Energy-OPLS-2005>
130.806518554688

> <r_mmod_Electrostatic_Energy-OPLS-2005>
103.754318237305

> <r_mmod_Solvation_Energy-OPLS-2005>
-1052.33178710938

> <b_mmod_Minimization_Converged-OPLS-2005>
0

> <r_mmod_RMS_Derivative-OPLS-2005>
1.19463407993317

$$$$
9
                    3D
 Structure written by MMmdl.
162171  0  0  1  0            999 V2000
  -30.6929  -14.5127   20.5666 C   0  0  0  0  0  0
  -30.4313  -12.3285   19.4302 C   0  0  0  0  0  0
  -29.4998  -12.5069   18.2122 C   0  0  0  0  0  0
  -28.0215  -12.3609   18.6246 C   0  0  0  0  0  0
  -27.6625  -13.2083   19.8741 C   0  0  2  0  0  0
  -28.7066  -13.0045   20.9966 C   0  0  0  0  0  0
  -25.2593  -13.8161   20.5677 C   0  0  0  0  0  0
  -24.1848  -13.0439   20.9187 C   0  0  0  0  0  0
  -24.6402  -11.6906   20.8742 C   0  0  0  0  0  0
  -23.9065  -10.4293   21.0408 C   0  0  0  0  0  0
  -24.3616   -9.4207   21.9185 C   0  0  0  0  0  0
  -23.6291   -8.2243   22.0754 C   0  0  0  0  0  0
  -22.4273   -8.0283   21.3544 C   0  0  0  0  0  0
  -21.9909   -9.0257   20.4647 C   0  0  0  0  0  0
  -22.7238  -10.2137   20.3057 C   0  0  0  0  0  0
  -21.6852   -6.0737   22.5278 C   0  0  0  0  0  0
  -21.4013   -6.5641   23.8212 C   0  0  0  0  0  0
  -21.3659   -5.6794   24.9175 C   0  0  0  0  0  0
  -21.6045   -4.3056   24.7225 C   0  0  0  0  0  0
  -21.8819   -3.8148   23.4345 C   0  0  0  0  0  0
  -21.9192   -4.6965   22.3401 C   0  0  0  0  0  0
  -22.7869  -13.5238   21.1847 C   0  0  0  0  0  0
  -22.1661   -4.2151   21.0979 F   0  0  0  0  0  0
  -21.5630   -3.4539   25.7737 F   0  0  0  0  0  0
  -30.0371  -13.3206   20.4450 N   0  0  0  0  0  0
  -26.3033  -12.9333   20.3361 N   0  0  0  0  0  0
  -25.9331  -11.6493   20.5771 N   0  0  0  0  0  0
  -22.0505  -12.8233   22.0403 N   0  0  0  0  0  0
  -25.4309  -15.1877   20.4053 N   0  0  0  0  0  0
  -31.8298  -14.6800   20.1126 O   0  0  0  0  0  0
  -21.6637   -6.8880   21.4240 O   0  0  0  0  0  0
  -22.3556  -14.5544   20.6694 O   0  0  0  0  0  0
  -24.6216  -31.8679   23.2135 C   0  0  0  0  0  0
  -25.9094  -32.4823   23.8425 C   0  0  1  0  0  0
  -27.2142  -27.3796   20.0872 C   0  0  0  0  0  0
  -25.5936  -33.8622   24.2345 N   0  0  0  0  0  0
  -23.4103  -30.4999   21.5563 C   0  0  2  0  0  0
  -24.8524  -28.9806   20.1089 C   0  0  0  0  0  0
  -22.7450  -29.4671   22.4968 C   0  0  0  0  0  0
  -18.0283  -28.1381   22.8491 C   0  0  0  0  0  0
  -24.1489  -36.7310   23.2634 C   0  0  0  0  0  0
  -25.9515  -30.8145   21.3819 C   0  0  0  0  0  0
  -26.0231  -29.4515   20.7174 C   0  0  0  0  0  0
  -27.2061  -28.6596   20.7088 C   0  0  0  0  0  0
  -26.0187  -26.9763   19.4314 C   0  0  0  0  0  0
  -24.8488  -27.7430   19.4616 C   0  0  0  0  0  0
  -23.6198  -29.8523   20.1661 C   0  0  0  0  0  0
  -25.4110  -36.3110   24.0336 C   0  0  1  0  0  0
  -20.5881  -28.3681   23.1294 C   0  0  2  0  0  0
  -20.6775  -26.9411   22.5407 C   0  0  0  0  0  0
  -19.5749  -26.6387   21.5210 C   0  0  0  0  0  0
  -18.1929  -26.7927   22.1624 C   0  0  0  0  0  0
  -19.1534  -28.8846   23.2891 C   0  0  0  0  0  0
  -18.9458  -30.1450   23.8905 C   0  0  0  0  0  0
  -17.6458  -30.6585   24.0564 C   0  0  0  0  0  0
  -25.9045  -34.9474   23.5131 C   0  0  0  0  0  0
  -16.5349  -29.9086   23.6328 C   0  0  0  0  0  0
  -16.7270  -28.6501   23.0352 C   0  0  0  0  0  0
  -26.4494  -31.6603   25.0763 C   0  0  0  0  0  0
  -25.3741  -31.3721   26.1496 C   0  0  0  0  0  0
  -27.0326  -30.3033   24.6180 C   0  0  0  0  0  0
  -27.6068  -32.4322   25.7523 C   0  0  0  0  0  0
  -27.5583  -37.1811   24.8463 C   0  0  0  0  0  0
  -21.4171  -29.3050   22.3700 N   0  0  0  0  0  0
  -26.4295  -37.3796   23.9410 N   0  0  0  0  0  0
  -24.6797  -31.0746   22.1072 N   0  0  0  0  0  0
  -23.4203  -28.8185   23.3004 O   0  0  0  0  0  0
  -28.3235  -26.5231   20.1506 O   0  0  0  0  0  0
  -26.5594  -34.8921   22.4685 O   0  0  0  0  0  0
  -23.5393  -32.1457   23.7492 O   0  0  0  0  0  0
  -28.9868  -19.1067   20.9947 C   0  0  0  0  0  0
  -28.9370  -17.6982   21.0384 C   0  0  0  0  0  0
  -30.2321  -19.7742   20.9858 C   0  0  0  0  0  0
  -31.3805  -18.9391   20.9952 C   0  0  0  0  0  0
  -30.1235  -16.9381   21.0364 C   0  0  0  0  0  0
  -29.3189  -22.0316   21.9233 C   0  0  0  0  0  0
  -30.1479  -21.8528   19.4794 C   0  0  0  0  0  0
  -29.1575  -23.5641   21.7151 C   0  0  0  0  0  0
  -29.9769  -23.3935   19.3550 C   0  0  0  0  0  0
  -30.3058  -21.3289   20.9353 C   0  0  2  0  0  0
  -28.8111  -23.8477   20.2456 C   0  0  2  0  0  0
  -32.7849  -19.5129   20.9688 C   0  0  0  0  0  0
  -27.9990  -25.1279   19.8676 C   0  0  0  0  0  0
  -31.3194  -17.5798   21.0202 N   0  0  0  0  0  0
  -29.9484  -15.5162   21.0865 N   0  0  0  0  0  0
  -31.4743  -12.4335   19.1260 H   0  0  0  0  0  0
  -30.3421  -11.3202   19.8376 H   0  0  0  0  0  0
  -29.7452  -11.7759   17.4407 H   0  0  0  0  0  0
  -29.6609  -13.4891   17.7650 H   0  0  0  0  0  0
  -27.8389  -11.3054   18.8296 H   0  0  0  0  0  0
  -27.3695  -12.6242   17.7910 H   0  0  0  0  0  0
  -27.7009  -14.2534   19.5661 H   0  0  0  0  0  0
  -28.6914  -11.9701   21.3434 H   0  0  0  0  0  0
  -28.4614  -13.6052   21.8736 H   0  0  0  0  0  0
  -25.2763   -9.5683   22.4757 H   0  0  0  0  0  0
  -24.0001   -7.4634   22.7473 H   0  0  0  0  0  0
  -21.0842   -8.8777   19.8951 H   0  0  0  0  0  0
  -22.3698  -10.9677   19.6166 H   0  0  0  0  0  0
  -21.2003   -7.6149   23.9716 H   0  0  0  0  0  0
  -21.1483   -6.0524   25.9078 H   0  0  0  0  0  0
  -22.0598   -2.7610   23.2844 H   0  0  0  0  0  0
  -22.4116  -11.9891   22.4789 H   0  0  0  0  0  0
  -21.1123  -13.1263   22.2606 H   0  0  0  0  0  0
  -24.6581  -15.8380   20.4982 H   0  0  0  0  0  0
  -26.2665  -15.6188   20.0318 H   0  0  0  0  0  0
  -26.7162  -32.5513   23.1181 H   0  0  0  0  0  0
  -25.0105  -33.9785   25.0503 H   0  0  0  0  0  0
  -22.7011  -31.3199   21.4251 H   0  0  0  0  0  0
  -23.3752  -35.9641   23.3300 H   0  0  0  0  0  0
  -24.3585  -36.8921   22.2048 H   0  0  0  0  0  0
  -23.7237  -37.6515   23.6645 H   0  0  0  0  0  0
  -26.0815  -31.5842   20.6198 H   0  0  0  0  0  0
  -26.8334  -30.8551   22.0093 H   0  0  0  0  0  0
  -28.0988  -29.0121   21.2066 H   0  0  0  0  0  0
  -25.9300  -26.0487   18.8876 H   0  0  0  0  0  0
  -23.9558  -27.3809   18.9705 H   0  0  0  0  0  0
  -23.7349  -30.6371   19.4175 H   0  0  0  0  0  0
  -22.7404  -29.2822   19.8609 H   0  0  0  0  0  0
  -25.1283  -36.1978   25.0829 H   0  0  0  0  0  0
  -20.9974  -28.3248   24.1414 H   0  0  0  0  0  0
  -20.5686  -26.2287   23.3598 H   0  0  0  0  0  0
  -21.6644  -26.7453   22.1194 H   0  0  0  0  0  0
  -19.6911  -25.6300   21.1234 H   0  0  0  0  0  0
  -19.6685  -27.3201   20.6743 H   0  0  0  0  0  0
  -17.4199  -26.6677   21.4026 H   0  0  0  0  0  0
  -18.0330  -26.0066   22.9018 H   0  0  0  0  0  0
  -19.7933  -30.7265   24.2279 H   0  0  0  0  0  0
  -17.5013  -31.6266   24.5165 H   0  0  0  0  0  0
  -15.5350  -30.2989   23.7648 H   0  0  0  0  0  0
  -15.8670  -28.0821   22.7065 H   0  0  0  0  0  0
  -24.5927  -30.7053   25.7833 H   0  0  0  0  0  0
  -24.8917  -32.2877   26.4926 H   0  0  0  0  0  0
  -25.8082  -30.8908   27.0268 H   0  0  0  0  0  0
  -26.2889  -29.6798   24.1201 H   0  0  0  0  0  0
  -27.4034  -29.7269   25.4666 H   0  0  0  0  0  0
  -27.8759  -30.4330   23.9393 H   0  0  0  0  0  0
  -27.2693  -33.3620   26.2115 H   0  0  0  0  0  0
  -28.3869  -32.6883   25.0342 H   0  0  0  0  0  0
  -28.0744  -31.8435   26.5425 H   0  0  0  0  0  0
  -28.2601  -38.0108   24.7519 H   0  0  0  0  0  0
  -28.1080  -36.2642   24.6280 H   0  0  0  0  0  0
  -27.2303  -37.1451   25.8867 H   0  0  0  0  0  0
  -20.9330  -29.8798   21.6946 H   0  0  0  0  0  0
  -26.0184  -38.2874   24.1413 H   0  0  0  0  0  0
  -28.0586  -19.6567   20.9631 H   0  0  0  0  0  0
  -27.9704  -17.2138   21.0560 H   0  0  0  0  0  0
  -28.3219  -21.6048   21.8293 H   0  0  0  0  0  0
  -29.6250  -21.8302   22.9507 H   0  0  0  0  0  0
  -30.9992  -21.5306   18.8785 H   0  0  0  0  0  0
  -29.2755  -21.3784   19.0274 H   0  0  0  0  0  0
  -30.0691  -24.0918   21.9981 H   0  0  0  0  0  0
  -28.3673  -23.9378   22.3675 H   0  0  0  0  0  0
  -29.7800  -23.6501   18.3134 H   0  0  0  0  0  0
  -30.8953  -23.9109   19.6351 H   0  0  0  0  0  0
  -31.2979  -21.6370   21.2646 H   0  0  0  0  0  0
  -28.0424  -23.1046   20.0196 H   0  0  0  0  0  0
  -32.9049  -20.1989   20.1305 H   0  0  0  0  0  0
  -33.5379  -18.7309   20.8655 H   0  0  0  0  0  0
  -32.9917  -20.0541   21.8920 H   0  0  0  0  0  0
  -27.0507  -24.9231   20.3697 H   0  0  0  0  0  0
  -27.8174  -25.0553   18.7939 H   0  0  0  0  0  0
  -29.0356  -15.2147   21.3836 H   0  0  0  0  0  0
  1 25  1  0  0  0
  1 30  2  0  0  0
  1 85  1  0  0  0
  2  3  1  0  0  0
  2 25  1  0  0  0
  2 86  1  0  0  0
  2 87  1  0  0  0
  3  4  1  0  0  0
  3 88  1  0  0  0
  3 89  1  0  0  0
  4  5  1  0  0  0
  4 90  1  0  0  0
  4 91  1  0  0  0
  5  6  1  0  0  0
  5 26  1  0  0  0
  5 92  1  0  0  0
  6 25  1  0  0  0
  6 93  1  0  0  0
  6 94  1  0  0  0
  7  8  2  0  0  0
  7 26  1  0  0  0
  7 29  1  0  0  0
  8  9  1  0  0  0
  8 22  1  0  0  0
  9 10  1  0  0  0
  9 27  2  0  0  0
 10 11  2  0  0  0
 10 15  1  0  0  0
 11 12  1  0  0  0
 11 95  1  0  0  0
 12 13  2  0  0  0
 12 96  1  0  0  0
 13 14  1  0  0  0
 13 31  1  0  0  0
 14 15  2  0  0  0
 14 97  1  0  0  0
 15 98  1  0  0  0
 16 17  2  0  0  0
 16 21  1  0  0  0
 16 31  1  0  0  0
 17 18  1  0  0  0
 17 99  1  0  0  0
 18 19  2  0  0  0
 18100  1  0  0  0
 19 20  1  0  0  0
 19 24  1  0  0  0
 20 21  2  0  0  0
 20101  1  0  0  0
 21 23  1  0  0  0
 22 28  1  0  0  0
 22 32  2  0  0  0
 26 27  1  0  0  0
 28102  1  0  0  0
 28103  1  0  0  0
 29104  1  0  0  0
 29105  1  0  0  0
 33 34  1  0  0  0
 33 66  1  0  0  0
 33 70  2  0  0  0
 34 36  1  0  0  0
 34 59  1  0  0  0
 34106  1  0  0  0
 35 44  2  0  0  0
 35 45  1  0  0  0
 35 68  1  0  0  0
 36 56  1  0  0  0
 36107  1  0  0  0
 37 39  1  0  0  0
 37 47  1  0  0  0
 37 66  1  0  0  0
 37108  1  0  0  0
 38 43  2  0  0  0
 38 46  1  0  0  0
 38 47  1  0  0  0
 39 64  1  0  0  0
 39 67  2  0  0  0
 40 52  1  0  0  0
 40 53  2  0  0  0
 40 58  1  0  0  0
 41109  1  0  0  0
 41110  1  0  0  0
 41111  1  0  0  0
 41 48  1  0  0  0
 42 43  1  0  0  0
 42 66  1  0  0  0
 42112  1  0  0  0
 42113  1  0  0  0
 43 44  1  0  0  0
 44114  1  0  0  0
 45 46  2  0  0  0
 45115  1  0  0  0
 46116  1  0  0  0
 47117  1  0  0  0
 47118  1  0  0  0
 48 56  1  0  0  0
 48 65  1  0  0  0
 48119  1  0  0  0
 49 50  1  0  0  0
 49 53  1  0  0  0
 49 64  1  0  0  0
 49120  1  0  0  0
 50 51  1  0  0  0
 50121  1  0  0  0
 50122  1  0  0  0
 51 52  1  0  0  0
 51123  1  0  0  0
 51124  1  0  0  0
 52125  1  0  0  0
 52126  1  0  0  0
 53 54  1  0  0  0
 54 55  2  0  0  0
 54127  1  0  0  0
 55 57  1  0  0  0
 55128  1  0  0  0
 56 69  2  0  0  0
 57 58  2  0  0  0
 57129  1  0  0  0
 58130  1  0  0  0
 59 60  1  0  0  0
 59 61  1  0  0  0
 59 62  1  0  0  0
 60131  1  0  0  0
 60132  1  0  0  0
 60133  1  0  0  0
 61134  1  0  0  0
 61135  1  0  0  0
 61136  1  0  0  0
 62137  1  0  0  0
 62138  1  0  0  0
 62139  1  0  0  0
 63 65  1  0  0  0
 63140  1  0  0  0
 63141  1  0  0  0
 63142  1  0  0  0
 64143  1  0  0  0
 65144  1  0  0  0
 68 83  1  0  0  0
 71 72  2  0  0  0
 71 73  1  0  0  0
 71145  1  0  0  0
 72 75  1  0  0  0
 72146  1  0  0  0
 73 74  2  0  0  0
 73 80  1  0  0  0
 74 82  1  0  0  0
 74 84  1  0  0  0
 75 84  2  0  0  0
 75 85  1  0  0  0
 76 78  1  0  0  0
 76 80  1  0  0  0
 76147  1  0  0  0
 76148  1  0  0  0
 77 79  1  0  0  0
 77 80  1  0  0  0
 77149  1  0  0  0
 77150  1  0  0  0
 78 81  1  0  0  0
 78151  1  0  0  0
 78152  1  0  0  0
 79 81  1  0  0  0
 79153  1  0  0  0
 79154  1  0  0  0
 80155  1  0  0  0
 81 83  1  0  0  0
 81156  1  0  0  0
 82157  1  0  0  0
 82158  1  0  0  0
 82159  1  0  0  0
 83160  1  0  0  0
 83161  1  0  0  0
 85162  1  0  0  0
M  ISO  4   1 100  68 101  83 101  85 100
M  END
> <chiral flag>
0

> <version>
0

> <s_m_source_file>
/data/baiqing/PycharmProjects/Reinvent-master-3.2/result/LINK_invent/BTK/process_docking_weight1_custom_sum_contain_oxygen_bond_distance_aromatic_linkinvent_7_9_3/rearranged_h_0133.sdf

> <i_m_source_file_index>
10

> <r_mmod_Potential_Energy-OPLS-2005>
-78.2985229492188

> <r_mmod_Stretch_Energy-OPLS-2005>
51.4833297729492

> <r_mmod_Bend_Energy-OPLS-2005>
155.966003417969

> <r_mmod_Torsional_Energy-OPLS-2005>
233.319427490234

> <r_mmod_Improper_Torsional_Energy-OPLS-2005>
4.02231216430664

> <r_mmod_Van_der_Waal_Energy-OPLS-2005>
173.871505737305

> <r_mmod_Electrostatic_Energy-OPLS-2005>
-494.692840576172

> <r_mmod_Solvation_Energy-OPLS-2005>
-228.299667358398

> <b_mmod_Minimization_Converged-OPLS-2005>
0

> <r_mmod_RMS_Derivative-OPLS-2005>
0.184580326080322

$$$$
10
                    3D
 Structure written by MMmdl.
161170  0  0  1  0            999 V2000
  -30.6790  -14.6354   20.4541 C   0  0  0  0  0  0
  -30.4235  -12.3724   19.4811 C   0  0  0  0  0  0
  -29.5235  -12.4989   18.2347 C   0  0  0  0  0  0
  -28.0373  -12.3612   18.6288 C   0  0  0  0  0  0
  -27.6531  -13.2373   19.8531 C   0  0  2  0  0  0
  -28.6940  -13.1344   20.9910 C   0  0  0  0  0  0
  -25.2531  -13.8211   20.5631 C   0  0  0  0  0  0
  -24.1809  -13.0459   20.9152 C   0  0  0  0  0  0
  -24.6409  -11.6936   20.8702 C   0  0  0  0  0  0
  -23.9074  -10.4304   21.0385 C   0  0  0  0  0  0
  -24.3620   -9.4223   21.9171 C   0  0  0  0  0  0
  -23.6302   -8.2254   22.0751 C   0  0  0  0  0  0
  -22.4285   -8.0287   21.3543 C   0  0  0  0  0  0
  -21.9912   -9.0254   20.4649 C   0  0  0  0  0  0
  -22.7237  -10.2137   20.3033 C   0  0  0  0  0  0
  -21.6853   -6.0728   22.5263 C   0  0  0  0  0  0
  -21.4005   -6.5620   23.8209 C   0  0  0  0  0  0
  -21.3656   -5.6778   24.9171 C   0  0  0  0  0  0
  -21.6062   -4.3034   24.7225 C   0  0  0  0  0  0
  -21.8813   -3.8124   23.4342 C   0  0  0  0  0  0
  -21.9188   -4.6949   22.3392 C   0  0  0  0  0  0
  -22.7820  -13.5239   21.1827 C   0  0  0  0  0  0
  -22.1656   -4.2127   21.0972 F   0  0  0  0  0  0
  -21.5656   -3.4518   25.7740 F   0  0  0  0  0  0
  -30.0134  -13.4374   20.4219 N   0  0  0  0  0  0
  -26.2984  -12.9440   20.3230 N   0  0  0  0  0  0
  -25.9339  -11.6570   20.5670 N   0  0  0  0  0  0
  -22.0432  -12.8247   22.0384 N   0  0  0  0  0  0
  -25.4264  -15.1948   20.4061 N   0  0  0  0  0  0
  -31.8679  -14.6988   20.1309 O   0  0  0  0  0  0
  -21.6640   -6.8880   21.4247 O   0  0  0  0  0  0
  -22.3495  -14.5528   20.6654 O   0  0  0  0  0  0
  -24.6269  -31.8565   23.2013 C   0  0  0  0  0  0
  -25.9102  -32.4739   23.8350 C   0  0  1  0  0  0
  -27.2261  -27.3106   20.1155 C   0  0  0  0  0  0
  -25.5896  -33.8550   24.2270 N   0  0  0  0  0  0
  -23.4212  -30.4813   21.5433 C   0  0  2  0  0  0
  -24.8699  -28.9436   20.1023 C   0  0  0  0  0  0
  -22.7469  -29.4584   22.4896 C   0  0  0  0  0  0
  -18.0270  -28.1387   22.8467 C   0  0  0  0  0  0
  -24.1487  -36.7291   23.2656 C   0  0  0  0  0  0
  -25.9650  -30.7839   21.3781 C   0  0  0  0  0  0
  -26.0373  -29.4138   20.7170 C   0  0  0  0  0  0
  -27.2170  -28.6082   20.7177 C   0  0  0  0  0  0
  -26.0374  -26.9079   19.4609 C   0  0  0  0  0  0
  -24.8748  -27.6982   19.4602 C   0  0  0  0  0  0
  -23.6362  -29.8216   20.1558 C   0  0  0  0  0  0
  -25.4100  -36.3062   24.0348 C   0  0  1  0  0  0
  -20.5877  -28.3679   23.1260 C   0  0  2  0  0  0
  -20.6744  -26.9390   22.5417 C   0  0  0  0  0  0
  -19.5729  -26.6373   21.5211 C   0  0  0  0  0  0
  -18.1900  -26.7923   22.1608 C   0  0  0  0  0  0
  -19.1532  -28.8851   23.2852 C   0  0  0  0  0  0
  -18.9461  -30.1451   23.8879 C   0  0  0  0  0  0
  -17.6465  -30.6586   24.0553 C   0  0  0  0  0  0
  -25.9040  -34.9422   23.5108 C   0  0  0  0  0  0
  -16.5348  -29.9096   23.6319 C   0  0  0  0  0  0
  -16.7260  -28.6516   23.0339 C   0  0  0  0  0  0
  -26.4507  -31.6549   25.0725 C   0  0  0  0  0  0
  -25.3771  -31.3672   26.1467 C   0  0  0  0  0  0
  -27.0347  -30.2957   24.6210 C   0  0  0  0  0  0
  -27.6052  -32.4302   25.7494 C   0  0  0  0  0  0
  -27.5567  -37.1785   24.8456 C   0  0  0  0  0  0
  -21.4184  -29.3028   22.3652 N   0  0  0  0  0  0
  -26.4273  -37.3759   23.9419 N   0  0  0  0  0  0
  -24.6887  -31.0569   22.0963 N   0  0  0  0  0  0
  -23.4176  -28.8109   23.2964 O   0  0  0  0  0  0
  -28.3308  -26.4395   20.1820 O   0  0  0  0  0  0
  -26.5615  -34.8918   22.4684 O   0  0  0  0  0  0
  -23.5418  -32.1376   23.7327 O   0  0  0  0  0  0
  -28.6959  -18.8098   20.8495 C   0  0  0  0  0  0
  -28.2648  -20.1562   21.0344 C   0  0  0  0  0  0
  -30.2602  -20.9718   19.9873 C   0  0  0  0  0  0
  -30.7051  -19.6242   19.7781 C   0  0  0  0  0  0
  -29.9110  -18.4995   20.1916 C   0  0  0  0  0  0
  -29.0136  -21.2791   20.5894 C   0  0  0  0  0  0
  -33.2497  -18.9228   19.6802 C   0  0  0  0  0  0
  -33.1854  -20.3459   19.1890 C   0  0  0  0  0  0
  -31.9916  -19.4317   19.0116 C   0  0  0  0  0  0
  -29.6055  -16.8193   18.3502 C   0  0  0  0  0  0
  -28.0648  -24.9848   20.0174 C   0  0  0  0  0  0
  -29.0980  -23.8411   20.4239 C   0  0  0  0  0  0
  -30.2607  -17.0283   19.7251 C   0  0  2  0  0  0
  -29.9388  -15.7929   20.5343 N   0  0  0  0  0  0
  -28.4420  -22.5635   20.7340 O   0  0  0  0  0  0
  -31.4766  -12.4473   19.1994 H   0  0  0  0  0  0
  -30.3063  -11.3895   19.9383 H   0  0  0  0  0  0
  -29.7906  -11.7440   17.4939 H   0  0  0  0  0  0
  -29.6936  -13.4662   17.7616 H   0  0  0  0  0  0
  -27.8487  -11.3107   18.8513 H   0  0  0  0  0  0
  -27.3999  -12.6109   17.7797 H   0  0  0  0  0  0
  -27.6665  -14.2675   19.4943 H   0  0  0  0  0  0
  -28.6952  -12.1332   21.4243 H   0  0  0  0  0  0
  -28.4508  -13.8220   21.8019 H   0  0  0  0  0  0
  -25.2764   -9.5724   22.4743 H   0  0  0  0  0  0
  -24.0008   -7.4650   22.7457 H   0  0  0  0  0  0
  -21.0841   -8.8790   19.8958 H   0  0  0  0  0  0
  -22.3698  -10.9675   19.6132 H   0  0  0  0  0  0
  -21.1971   -7.6127   23.9695 H   0  0  0  0  0  0
  -21.1500   -6.0506   25.9082 H   0  0  0  0  0  0
  -22.0596   -2.7583   23.2832 H   0  0  0  0  0  0
  -22.4005  -11.9943   22.4859 H   0  0  0  0  0  0
  -21.1047  -13.1321   22.2511 H   0  0  0  0  0  0
  -24.6703  -15.8603   20.5159 H   0  0  0  0  0  0
  -26.2757  -15.6220   20.0612 H   0  0  0  0  0  0
  -26.7157  -32.5412   23.1088 H   0  0  0  0  0  0
  -24.9988  -33.9677   25.0377 H   0  0  0  0  0  0
  -22.7163  -31.3021   21.4021 H   0  0  0  0  0  0
  -23.3748  -35.9631   23.3323 H   0  0  0  0  0  0
  -24.3568  -36.8914   22.2071 H   0  0  0  0  0  0
  -23.7268  -37.6510   23.6673 H   0  0  0  0  0  0
  -26.1081  -31.5520   20.6161 H   0  0  0  0  0  0
  -26.8385  -30.8194   22.0151 H   0  0  0  0  0  0
  -28.1085  -28.9587   21.2188 H   0  0  0  0  0  0
  -25.9767  -25.9638   18.9406 H   0  0  0  0  0  0
  -23.9882  -27.3400   18.9538 H   0  0  0  0  0  0
  -23.7504  -30.6037   19.4047 H   0  0  0  0  0  0
  -22.7581  -29.2491   19.8489 H   0  0  0  0  0  0
  -25.1290  -36.1899   25.0841 H   0  0  0  0  0  0
  -20.9983  -28.3283   24.1374 H   0  0  0  0  0  0
  -20.5595  -26.2310   23.3640 H   0  0  0  0  0  0
  -21.6611  -26.7365   22.1237 H   0  0  0  0  0  0
  -19.6876  -25.6283   21.1246 H   0  0  0  0  0  0
  -19.6686  -27.3193   20.6749 H   0  0  0  0  0  0
  -17.4171  -26.6677   21.4005 H   0  0  0  0  0  0
  -18.0274  -26.0073   22.9011 H   0  0  0  0  0  0
  -19.7953  -30.7243   24.2241 H   0  0  0  0  0  0
  -17.5043  -31.6260   24.5168 H   0  0  0  0  0  0
  -15.5354  -30.3001   23.7665 H   0  0  0  0  0  0
  -15.8652  -28.0846   22.7052 H   0  0  0  0  0  0
  -24.5951  -30.6999   25.7829 H   0  0  0  0  0  0
  -24.8968  -32.2825   26.4926 H   0  0  0  0  0  0
  -25.8150  -30.8852   27.0216 H   0  0  0  0  0  0
  -26.2902  -29.6684   24.1285 H   0  0  0  0  0  0
  -27.4060  -29.7241   25.4729 H   0  0  0  0  0  0
  -27.8790  -30.4220   23.9429 H   0  0  0  0  0  0
  -27.2623  -33.3588   26.2076 H   0  0  0  0  0  0
  -28.3853  -32.6868   25.0315 H   0  0  0  0  0  0
  -28.0730  -31.8427   26.5409 H   0  0  0  0  0  0
  -28.2571  -38.0090   24.7466 H   0  0  0  0  0  0
  -28.1053  -36.2600   24.6288 H   0  0  0  0  0  0
  -27.2267  -37.1466   25.8856 H   0  0  0  0  0  0
  -20.9341  -29.8809   21.6932 H   0  0  0  0  0  0
  -26.0148  -38.2837   24.1421 H   0  0  0  0  0  0
  -28.0445  -18.0043   21.1592 H   0  0  0  0  0  0
  -27.3025  -20.3215   21.4997 H   0  0  0  0  0  0
  -30.8774  -21.7787   19.6221 H   0  0  0  0  0  0
  -33.2305  -18.7644   20.7585 H   0  0  0  0  0  0
  -33.9084  -18.2636   19.1175 H   0  0  0  0  0  0
  -33.7762  -20.5760   18.3025 H   0  0  0  0  0  0
  -33.1499  -21.1286   19.9441 H   0  0  0  0  0  0
  -31.7845  -19.0946   17.9972 H   0  0  0  0  0  0
  -29.9248  -17.5781   17.6352 H   0  0  0  0  0  0
  -28.5178  -16.8730   18.4261 H   0  0  0  0  0  0
  -29.8572  -15.8490   17.9207 H   0  0  0  0  0  0
  -27.1661  -24.7673   20.5944 H   0  0  0  0  0  0
  -27.8116  -24.8003   18.9734 H   0  0  0  0  0  0
  -29.6278  -24.1506   21.3245 H   0  0  0  0  0  0
  -29.8438  -23.7302   19.6375 H   0  0  0  0  0  0
  -31.3375  -17.0102   19.5644 H   0  0  0  0  0  0
  -28.9820  -15.6953   20.8361 H   0  0  0  0  0  0
  1 25  1  0  0  0
  1 30  2  0  0  0
  1 84  1  0  0  0
  2  3  1  0  0  0
  2 25  1  0  0  0
  2 86  1  0  0  0
  2 87  1  0  0  0
  3  4  1  0  0  0
  3 88  1  0  0  0
  3 89  1  0  0  0
  4  5  1  0  0  0
  4 90  1  0  0  0
  4 91  1  0  0  0
  5  6  1  0  0  0
  5 26  1  0  0  0
  5 92  1  0  0  0
  6 25  1  0  0  0
  6 93  1  0  0  0
  6 94  1  0  0  0
  7  8  2  0  0  0
  7 26  1  0  0  0
  7 29  1  0  0  0
  8  9  1  0  0  0
  8 22  1  0  0  0
  9 10  1  0  0  0
  9 27  2  0  0  0
 10 11  2  0  0  0
 10 15  1  0  0  0
 11 12  1  0  0  0
 11 95  1  0  0  0
 12 13  2  0  0  0
 12 96  1  0  0  0
 13 14  1  0  0  0
 13 31  1  0  0  0
 14 15  2  0  0  0
 14 97  1  0  0  0
 15 98  1  0  0  0
 16 17  2  0  0  0
 16 21  1  0  0  0
 16 31  1  0  0  0
 17 18  1  0  0  0
 17 99  1  0  0  0
 18 19  2  0  0  0
 18100  1  0  0  0
 19 20  1  0  0  0
 19 24  1  0  0  0
 20 21  2  0  0  0
 20101  1  0  0  0
 21 23  1  0  0  0
 22 28  1  0  0  0
 22 32  2  0  0  0
 26 27  1  0  0  0
 28102  1  0  0  0
 28103  1  0  0  0
 29104  1  0  0  0
 29105  1  0  0  0
 33 34  1  0  0  0
 33 66  1  0  0  0
 33 70  2  0  0  0
 34 36  1  0  0  0
 34 59  1  0  0  0
 34106  1  0  0  0
 35 44  2  0  0  0
 35 45  1  0  0  0
 35 68  1  0  0  0
 36 56  1  0  0  0
 36107  1  0  0  0
 37 39  1  0  0  0
 37 47  1  0  0  0
 37 66  1  0  0  0
 37108  1  0  0  0
 38 43  2  0  0  0
 38 46  1  0  0  0
 38 47  1  0  0  0
 39 64  1  0  0  0
 39 67  2  0  0  0
 40 52  1  0  0  0
 40 53  2  0  0  0
 40 58  1  0  0  0
 41109  1  0  0  0
 41110  1  0  0  0
 41111  1  0  0  0
 41 48  1  0  0  0
 42 43  1  0  0  0
 42 66  1  0  0  0
 42112  1  0  0  0
 42113  1  0  0  0
 43 44  1  0  0  0
 44114  1  0  0  0
 45 46  2  0  0  0
 45115  1  0  0  0
 46116  1  0  0  0
 47117  1  0  0  0
 47118  1  0  0  0
 48 56  1  0  0  0
 48 65  1  0  0  0
 48119  1  0  0  0
 49 50  1  0  0  0
 49 53  1  0  0  0
 49 64  1  0  0  0
 49120  1  0  0  0
 50 51  1  0  0  0
 50121  1  0  0  0
 50122  1  0  0  0
 51 52  1  0  0  0
 51123  1  0  0  0
 51124  1  0  0  0
 52125  1  0  0  0
 52126  1  0  0  0
 53 54  1  0  0  0
 54 55  2  0  0  0
 54127  1  0  0  0
 55 57  1  0  0  0
 55128  1  0  0  0
 56 69  2  0  0  0
 57 58  2  0  0  0
 57129  1  0  0  0
 58130  1  0  0  0
 59 60  1  0  0  0
 59 61  1  0  0  0
 59 62  1  0  0  0
 60131  1  0  0  0
 60132  1  0  0  0
 60133  1  0  0  0
 61134  1  0  0  0
 61135  1  0  0  0
 61136  1  0  0  0
 62137  1  0  0  0
 62138  1  0  0  0
 62139  1  0  0  0
 63 65  1  0  0  0
 63140  1  0  0  0
 63141  1  0  0  0
 63142  1  0  0  0
 64143  1  0  0  0
 65144  1  0  0  0
 68 81  1  0  0  0
 71 72  2  0  0  0
 71 75  1  0  0  0
 71145  1  0  0  0
 72 76  1  0  0  0
 72146  1  0  0  0
 73 74  1  0  0  0
 73 76  2  0  0  0
 73147  1  0  0  0
 74 75  2  0  0  0
 74 79  1  0  0  0
 75 83  1  0  0  0
 76 85  1  0  0  0
 77 78  1  0  0  0
 77 79  1  0  0  0
 77148  1  0  0  0
 77149  1  0  0  0
 78 79  1  0  0  0
 78150  1  0  0  0
 78151  1  0  0  0
 79152  1  0  0  0
 80153  1  0  0  0
 80154  1  0  0  0
 80155  1  0  0  0
 80 83  1  0  0  0
 81 82  1  0  0  0
 81156  1  0  0  0
 81157  1  0  0  0
 82 85  1  0  0  0
 82158  1  0  0  0
 82159  1  0  0  0
 83 84  1  0  0  0
 83160  1  0  0  0
 84161  1  0  0  0
M  ISO  4   1 100  68 101  81 101  84 100
M  END
> <chiral flag>
0

> <version>
0

> <s_m_source_file>
/data/baiqing/PycharmProjects/Reinvent-master-3.2/result/LINK_invent/BTK/process_docking_weight1_custom_sum_contain_oxygen_bond_distance_aromatic_linkinvent_7_9_3/rearranged_h_0133.sdf

> <i_m_source_file_index>
11

> <r_mmod_Potential_Energy-OPLS-2005>
88.1631927490234

> <r_mmod_Stretch_Energy-OPLS-2005>
86.3544692993164

> <r_mmod_Bend_Energy-OPLS-2005>
163.201080322266

> <r_mmod_Torsional_Energy-OPLS-2005>
248.450576782227

> <r_mmod_Improper_Torsional_Energy-OPLS-2005>
10.9343633651733

> <r_mmod_Van_der_Waal_Energy-OPLS-2005>
144.070755004883

> <r_mmod_Electrostatic_Energy-OPLS-2005>
-408.734497070312

> <r_mmod_Solvation_Energy-OPLS-2005>
-211.074844360352

> <b_mmod_Minimization_Converged-OPLS-2005>
0

> <r_mmod_RMS_Derivative-OPLS-2005>
4.0356764793396

$$$$
11
                    3D
 Structure written by MMmdl.
156165  0  0  1  0            999 V2000
  -30.6315  -14.7451   20.4866 C   0  0  0  0  0  0
  -30.4249  -12.4582   19.4800 C   0  0  0  0  0  0
  -29.5058  -12.5155   18.2404 C   0  0  0  0  0  0
  -28.0349  -12.3267   18.6564 C   0  0  0  0  0  0
  -27.6397  -13.2244   19.8594 C   0  0  2  0  0  0
  -28.6861  -13.1696   20.9943 C   0  0  0  0  0  0
  -25.2512  -13.8192   20.5717 C   0  0  0  0  0  0
  -24.1790  -13.0429   20.9213 C   0  0  0  0  0  0
  -24.6379  -11.6905   20.8777 C   0  0  0  0  0  0
  -23.9066  -10.4283   21.0411 C   0  0  0  0  0  0
  -24.3623   -9.4200   21.9182 C   0  0  0  0  0  0
  -23.6287   -8.2245   22.0760 C   0  0  0  0  0  0
  -22.4269   -8.0279   21.3559 C   0  0  0  0  0  0
  -21.9910   -9.0250   20.4662 C   0  0  0  0  0  0
  -22.7242  -10.2122   20.3062 C   0  0  0  0  0  0
  -21.6848   -6.0734   22.5277 C   0  0  0  0  0  0
  -21.4008   -6.5643   23.8208 C   0  0  0  0  0  0
  -21.3659   -5.6802   24.9173 C   0  0  0  0  0  0
  -21.6041   -4.3065   24.7231 C   0  0  0  0  0  0
  -21.8819   -3.8153   23.4354 C   0  0  0  0  0  0
  -21.9186   -4.6963   22.3404 C   0  0  0  0  0  0
  -22.7820  -13.5211   21.1862 C   0  0  0  0  0  0
  -22.1648   -4.2143   21.0982 F   0  0  0  0  0  0
  -21.5633   -3.4546   25.7747 F   0  0  0  0  0  0
  -29.9872  -13.5253   20.4137 N   0  0  0  0  0  0
  -26.2927  -12.9365   20.3349 N   0  0  0  0  0  0
  -25.9313  -11.6522   20.5824 N   0  0  0  0  0  0
  -22.0466  -12.8195   22.0429 N   0  0  0  0  0  0
  -25.4248  -15.1917   20.4160 N   0  0  0  0  0  0
  -31.7955  -14.8331   20.0803 O   0  0  0  0  0  0
  -21.6640   -6.8874   21.4239 O   0  0  0  0  0  0
  -22.3506  -14.5496   20.6676 O   0  0  0  0  0  0
  -24.6332  -31.8566   23.1984 C   0  0  0  0  0  0
  -25.9150  -32.4757   23.8330 C   0  0  1  0  0  0
  -27.2113  -27.2466   20.1215 C   0  0  0  0  0  0
  -25.5928  -33.8555   24.2256 N   0  0  0  0  0  0
  -23.4286  -30.4812   21.5444 C   0  0  2  0  0  0
  -24.8727  -28.9296   20.1076 C   0  0  0  0  0  0
  -22.7520  -29.4622   22.4937 C   0  0  0  0  0  0
  -18.0328  -28.1360   22.8512 C   0  0  0  0  0  0
  -24.1490  -36.7286   23.2646 C   0  0  0  0  0  0
  -25.9774  -30.7607   21.3846 C   0  0  0  0  0  0
  -26.0444  -29.3830   20.7256 C   0  0  0  0  0  0
  -27.2123  -28.5522   20.7271 C   0  0  0  0  0  0
  -26.0208  -26.8819   19.4488 C   0  0  0  0  0  0
  -24.8675  -27.6889   19.4565 C   0  0  0  0  0  0
  -23.6469  -29.8187   20.1590 C   0  0  0  0  0  0
  -25.4113  -36.3077   24.0342 C   0  0  1  0  0  0
  -20.5920  -28.3714   23.1311 C   0  0  2  0  0  0
  -20.6837  -26.9415   22.5483 C   0  0  0  0  0  0
  -19.5833  -26.6326   21.5286 C   0  0  0  0  0  0
  -18.1999  -26.7883   22.1685 C   0  0  0  0  0  0
  -19.1560  -28.8858   23.2897 C   0  0  0  0  0  0
  -18.9457  -30.1465   23.8871 C   0  0  0  0  0  0
  -17.6442  -30.6583   24.0503 C   0  0  0  0  0  0
  -25.9054  -34.9442   23.5106 C   0  0  0  0  0  0
  -16.5343  -29.9061   23.6285 C   0  0  0  0  0  0
  -16.7300  -28.6472   23.0337 C   0  0  0  0  0  0
  -26.4489  -31.6583   25.0736 C   0  0  0  0  0  0
  -25.3712  -31.3731   26.1461 C   0  0  0  0  0  0
  -27.0354  -30.3006   24.6227 C   0  0  0  0  0  0
  -27.6049  -32.4325   25.7500 C   0  0  0  0  0  0
  -27.5581  -37.1805   24.8470 C   0  0  0  0  0  0
  -21.4223  -29.3086   22.3715 N   0  0  0  0  0  0
  -26.4289  -37.3774   23.9419 N   0  0  0  0  0  0
  -24.6994  -31.0511   22.0981 N   0  0  0  0  0  0
  -23.4233  -28.8144   23.3016 O   0  0  0  0  0  0
  -28.2926  -26.3311   20.2056 O   0  0  0  0  0  0
  -26.5636  -34.8914   22.4677 O   0  0  0  0  0  0
  -23.5473  -32.1375   23.7263 O   0  0  0  0  0  0
  -28.0569  -18.0934   18.6398 C   0  0  0  0  0  0
  -28.7131  -16.9814   19.2031 C   0  0  0  0  0  0
  -28.2401  -19.3798   19.1844 C   0  0  0  0  0  0
  -29.1204  -19.5406   20.2712 C   0  0  0  0  0  0
  -29.5279  -17.1169   20.3449 C   0  0  0  0  0  0
  -27.5009  -20.5780   18.5867 C   0  0  0  0  0  0
  -29.3516  -21.0207   20.8207 C   0  0  0  0  0  0
  -27.4262  -21.8184   19.5113 C   0  0  0  0  0  0
  -28.9325  -23.6467   20.5323 C   0  0  0  0  0  0
  -28.0727  -24.8681   19.8849 C   0  0  0  0  0  0
  -29.7132  -18.4109   20.8451 N   0  0  0  0  0  0
  -29.9856  -15.8641   20.9940 N   0  0  0  0  0  0
  -28.7779  -22.1913   19.9961 N   0  3  1  0  0  0
  -31.4668  -12.5727   19.1798 H   0  0  0  0  0  0
  -30.3655  -11.4824   19.9633 H   0  0  0  0  0  0
  -29.7867  -11.7506   17.5164 H   0  0  0  0  0  0
  -29.6260  -13.4773   17.7380 H   0  0  0  0  0  0
  -27.9024  -11.2770   18.9212 H   0  0  0  0  0  0
  -27.3719  -12.5137   17.8103 H   0  0  0  0  0  0
  -27.6246  -14.2416   19.4806 H   0  0  0  0  0  0
  -28.7275  -12.1742   21.4374 H   0  0  0  0  0  0
  -28.4167  -13.8516   21.8023 H   0  0  0  0  0  0
  -25.2759   -9.5675   22.4774 H   0  0  0  0  0  0
  -23.9986   -7.4636   22.7479 H   0  0  0  0  0  0
  -21.0844   -8.8764   19.8974 H   0  0  0  0  0  0
  -22.3682  -10.9663   19.6188 H   0  0  0  0  0  0
  -21.1994   -7.6149   23.9706 H   0  0  0  0  0  0
  -21.1489   -6.0534   25.9073 H   0  0  0  0  0  0
  -22.0601   -2.7614   23.2848 H   0  0  0  0  0  0
  -22.4051  -11.9814   22.4785 H   0  0  0  0  0  0
  -21.1103  -13.1258   22.2670 H   0  0  0  0  0  0
  -24.6642  -15.8529   20.5261 H   0  0  0  0  0  0
  -26.2882  -15.6300   20.1207 H   0  0  0  0  0  0
  -26.7232  -32.5376   23.1072 H   0  0  0  0  0  0
  -25.0047  -33.9662   25.0383 H   0  0  0  0  0  0
  -22.7293  -31.3076   21.4012 H   0  0  0  0  0  0
  -23.3751  -35.9621   23.3302 H   0  0  0  0  0  0
  -24.3591  -36.8896   22.2061 H   0  0  0  0  0  0
  -23.7223  -37.6482   23.6667 H   0  0  0  0  0  0
  -26.1214  -31.5207   20.6160 H   0  0  0  0  0  0
  -26.8523  -30.8052   22.0198 H   0  0  0  0  0  0
  -28.1023  -28.8888   21.2410 H   0  0  0  0  0  0
  -25.9407  -25.9508   18.9112 H   0  0  0  0  0  0
  -23.9764  -27.3456   18.9491 H   0  0  0  0  0  0
  -23.7721  -30.5995   19.4084 H   0  0  0  0  0  0
  -22.7638  -29.2590   19.8485 H   0  0  0  0  0  0
  -25.1294  -36.1929   25.0840 H   0  0  0  0  0  0
  -21.0049  -28.3308   24.1430 H   0  0  0  0  0  0
  -20.5774  -26.2307   23.3694 H   0  0  0  0  0  0
  -21.6710  -26.7487   22.1262 H   0  0  0  0  0  0
  -19.7038  -25.6196   21.1438 H   0  0  0  0  0  0
  -19.6802  -27.3095   20.6781 H   0  0  0  0  0  0
  -17.4271  -26.6597   21.4084 H   0  0  0  0  0  0
  -18.0410  -26.0043   22.9125 H   0  0  0  0  0  0
  -19.7930  -30.7303   24.2233 H   0  0  0  0  0  0
  -17.4978  -31.6287   24.5064 H   0  0  0  0  0  0
  -15.5329  -30.2946   23.7583 H   0  0  0  0  0  0
  -15.8710  -28.0774   22.7063 H   0  0  0  0  0  0
  -24.5893  -30.7071   25.7783 H   0  0  0  0  0  0
  -24.8893  -32.2903   26.4874 H   0  0  0  0  0  0
  -25.8024  -30.8914   27.0245 H   0  0  0  0  0  0
  -26.2951  -29.6741   24.1246 H   0  0  0  0  0  0
  -27.4038  -29.7276   25.4742 H   0  0  0  0  0  0
  -27.8823  -30.4294   23.9486 H   0  0  0  0  0  0
  -27.2673  -33.3636   26.2054 H   0  0  0  0  0  0
  -28.3859  -32.6848   25.0322 H   0  0  0  0  0  0
  -28.0720  -31.8458   26.5414 H   0  0  0  0  0  0
  -28.2604  -38.0098   24.7518 H   0  0  0  0  0  0
  -28.1067  -36.2628   24.6302 H   0  0  0  0  0  0
  -27.2313  -37.1471   25.8876 H   0  0  0  0  0  0
  -20.9389  -29.8901   21.7009 H   0  0  0  0  0  0
  -26.0167  -38.2854   24.1393 H   0  0  0  0  0  0
  -27.4035  -17.9518   17.7889 H   0  0  0  0  0  0
  -28.5447  -16.0151   18.7568 H   0  0  0  0  0  0
  -26.4846  -20.2760   18.3266 H   0  0  0  0  0  0
  -27.9869  -20.8447   17.6479 H   0  0  0  0  0  0
  -30.4204  -21.1807   20.9613 H   0  0  0  0  0  0
  -28.9037  -21.0589   21.8157 H   0  0  0  0  0  0
  -26.7695  -21.6266   20.3626 H   0  0  0  0  0  0
  -26.9730  -22.6299   18.9421 H   0  0  0  0  0  0
  -28.7301  -23.6392   21.6031 H   0  0  0  0  0  0
  -29.9888  -23.8982   20.4351 H   0  0  0  0  0  0
  -27.0452  -24.6219   20.1486 H   0  0  0  0  0  0
  -28.1390  -24.7868   18.7998 H   0  0  0  0  0  0
  -30.2883  -16.0244   21.9417 H   0  0  0  0  0  0
  -29.3332  -22.1680   19.1529 H   0  0  0  0  0  0
  1 25  1  0  0  0
  1 30  2  0  0  0
  1 82  1  0  0  0
  2  3  1  0  0  0
  2 25  1  0  0  0
  2 84  1  0  0  0
  2 85  1  0  0  0
  3  4  1  0  0  0
  3 86  1  0  0  0
  3 87  1  0  0  0
  4  5  1  0  0  0
  4 88  1  0  0  0
  4 89  1  0  0  0
  5  6  1  0  0  0
  5 26  1  0  0  0
  5 90  1  0  0  0
  6 25  1  0  0  0
  6 91  1  0  0  0
  6 92  1  0  0  0
  7  8  2  0  0  0
  7 26  1  0  0  0
  7 29  1  0  0  0
  8  9  1  0  0  0
  8 22  1  0  0  0
  9 10  1  0  0  0
  9 27  2  0  0  0
 10 11  2  0  0  0
 10 15  1  0  0  0
 11 12  1  0  0  0
 11 93  1  0  0  0
 12 13  2  0  0  0
 12 94  1  0  0  0
 13 14  1  0  0  0
 13 31  1  0  0  0
 14 15  2  0  0  0
 14 95  1  0  0  0
 15 96  1  0  0  0
 16 17  2  0  0  0
 16 21  1  0  0  0
 16 31  1  0  0  0
 17 18  1  0  0  0
 17 97  1  0  0  0
 18 19  2  0  0  0
 18 98  1  0  0  0
 19 20  1  0  0  0
 19 24  1  0  0  0
 20 21  2  0  0  0
 20 99  1  0  0  0
 21 23  1  0  0  0
 22 28  1  0  0  0
 22 32  2  0  0  0
 26 27  1  0  0  0
 28100  1  0  0  0
 28101  1  0  0  0
 29102  1  0  0  0
 29103  1  0  0  0
 33 34  1  0  0  0
 33 66  1  0  0  0
 33 70  2  0  0  0
 34 36  1  0  0  0
 34 59  1  0  0  0
 34104  1  0  0  0
 35 44  2  0  0  0
 35 45  1  0  0  0
 35 68  1  0  0  0
 36 56  1  0  0  0
 36105  1  0  0  0
 37 39  1  0  0  0
 37 47  1  0  0  0
 37 66  1  0  0  0
 37106  1  0  0  0
 38 43  2  0  0  0
 38 46  1  0  0  0
 38 47  1  0  0  0
 39 64  1  0  0  0
 39 67  2  0  0  0
 40 52  1  0  0  0
 40 53  2  0  0  0
 40 58  1  0  0  0
 41107  1  0  0  0
 41108  1  0  0  0
 41109  1  0  0  0
 41 48  1  0  0  0
 42 43  1  0  0  0
 42 66  1  0  0  0
 42110  1  0  0  0
 42111  1  0  0  0
 43 44  1  0  0  0
 44112  1  0  0  0
 45 46  2  0  0  0
 45113  1  0  0  0
 46114  1  0  0  0
 47115  1  0  0  0
 47116  1  0  0  0
 48 56  1  0  0  0
 48 65  1  0  0  0
 48117  1  0  0  0
 49 50  1  0  0  0
 49 53  1  0  0  0
 49 64  1  0  0  0
 49118  1  0  0  0
 50 51  1  0  0  0
 50119  1  0  0  0
 50120  1  0  0  0
 51 52  1  0  0  0
 51121  1  0  0  0
 51122  1  0  0  0
 52123  1  0  0  0
 52124  1  0  0  0
 53 54  1  0  0  0
 54 55  2  0  0  0
 54125  1  0  0  0
 55 57  1  0  0  0
 55126  1  0  0  0
 56 69  2  0  0  0
 57 58  2  0  0  0
 57127  1  0  0  0
 58128  1  0  0  0
 59 60  1  0  0  0
 59 61  1  0  0  0
 59 62  1  0  0  0
 60129  1  0  0  0
 60130  1  0  0  0
 60131  1  0  0  0
 61132  1  0  0  0
 61133  1  0  0  0
 61134  1  0  0  0
 62135  1  0  0  0
 62136  1  0  0  0
 62137  1  0  0  0
 63 65  1  0  0  0
 63138  1  0  0  0
 63139  1  0  0  0
 63140  1  0  0  0
 64141  1  0  0  0
 65142  1  0  0  0
 68 80  1  0  0  0
 71 72  2  0  0  0
 71 73  1  0  0  0
 71143  1  0  0  0
 72 75  1  0  0  0
 72144  1  0  0  0
 73 74  2  0  0  0
 73 76  1  0  0  0
 74 77  1  0  0  0
 74 81  1  0  0  0
 75 81  2  0  0  0
 75 82  1  0  0  0
 76 78  1  0  0  0
 76145  1  0  0  0
 76146  1  0  0  0
 77 83  1  0  0  0
 77147  1  0  0  0
 77148  1  0  0  0
 78 83  1  0  0  0
 78149  1  0  0  0
 78150  1  0  0  0
 79 80  1  0  0  0
 79151  1  0  0  0
 79152  1  0  0  0
 79 83  1  0  0  0
 80153  1  0  0  0
 80154  1  0  0  0
 82155  1  0  0  0
 83156  1  0  0  0
M  CHG  1  83   1
M  ISO  4   1 100  68 101  80 101  82 100
M  END
> <chiral flag>
0

> <version>
0

> <s_m_source_file>
/data/baiqing/PycharmProjects/Reinvent-master-3.2/result/LINK_invent/BTK/process_docking_weight1_custom_sum_contain_oxygen_bond_distance_aromatic_linkinvent_7_9_3/rearranged_h_0133.sdf

> <i_m_source_file_index>
12

> <r_mmod_Potential_Energy-OPLS-2005>
-41.0662384033203

> <r_mmod_Stretch_Energy-OPLS-2005>
131.498458862305

> <r_mmod_Bend_Energy-OPLS-2005>
179.926834106445

> <r_mmod_Torsional_Energy-OPLS-2005>
289.760833740234

> <r_mmod_Improper_Torsional_Energy-OPLS-2005>
4.67782068252563

> <r_mmod_Van_der_Waal_Energy-OPLS-2005>
144.08219909668

> <r_mmod_Electrostatic_Energy-OPLS-2005>
-417.559661865234

> <r_mmod_Solvation_Energy-OPLS-2005>
-463.439636230469

> <b_mmod_Minimization_Converged-OPLS-2005>
0

> <r_mmod_RMS_Derivative-OPLS-2005>
2.98548746109009

$$$$
12
                    3D
 Structure written by MMmdl.
150158  0  0  1  0            999 V2000
  -30.4204  -15.1809   20.3748 C   0  0  0  0  0  0
  -30.4500  -12.7441   19.5206 C   0  0  0  0  0  0
  -29.5353  -12.5585   18.2825 C   0  0  0  0  0  0
  -28.0825  -12.2845   18.7131 C   0  0  0  0  0  0
  -27.6187  -13.2560   19.8267 C   0  0  2  0  0  0
  -28.6532  -13.3776   20.9656 C   0  0  0  0  0  0
  -25.2428  -13.8214   20.5700 C   0  0  0  0  0  0
  -24.1762  -13.0436   20.9230 C   0  0  0  0  0  0
  -24.6385  -11.6922   20.8755 C   0  0  0  0  0  0
  -23.9074  -10.4290   21.0410 C   0  0  0  0  0  0
  -24.3615   -9.4206   21.9194 C   0  0  0  0  0  0
  -23.6282   -8.2245   22.0769 C   0  0  0  0  0  0
  -22.4269   -8.0273   21.3549 C   0  0  0  0  0  0
  -21.9900   -9.0252   20.4655 C   0  0  0  0  0  0
  -22.7241  -10.2129   20.3063 C   0  0  0  0  0  0
  -21.6845   -6.0723   22.5279 C   0  0  0  0  0  0
  -21.4016   -6.5634   23.8209 C   0  0  0  0  0  0
  -21.3663   -5.6792   24.9175 C   0  0  0  0  0  0
  -21.6039   -4.3051   24.7229 C   0  0  0  0  0  0
  -21.8821   -3.8137   23.4351 C   0  0  0  0  0  0
  -21.9192   -4.6951   22.3405 C   0  0  0  0  0  0
  -22.7784  -13.5205   21.1869 C   0  0  0  0  0  0
  -22.1655   -4.2137   21.0983 F   0  0  0  0  0  0
  -21.5628   -3.4538   25.7744 F   0  0  0  0  0  0
  -29.8998  -13.8655   20.3561 N   0  0  0  0  0  0
  -26.2836  -12.9450   20.3188 N   0  0  0  0  0  0
  -25.9314  -11.6577   20.5715 N   0  0  0  0  0  0
  -22.0423  -12.8210   22.0427 N   0  0  0  0  0  0
  -25.4092  -15.1940   20.4102 N   0  0  0  0  0  0
  -31.6310  -15.2522   20.1185 O   0  0  0  0  0  0
  -21.6636   -6.8867   21.4239 O   0  0  0  0  0  0
  -22.3479  -14.5517   20.6707 O   0  0  0  0  0  0
  -24.6604  -31.8271   23.1705 C   0  0  0  0  0  0
  -25.9308  -32.4600   23.8163 C   0  0  1  0  0  0
  -27.2240  -26.9795   20.1720 C   0  0  0  0  0  0
  -25.5994  -33.8412   24.2079 N   0  0  0  0  0  0
  -23.4722  -30.4389   21.5189 C   0  0  2  0  0  0
  -24.9247  -28.8325   20.1082 C   0  0  0  0  0  0
  -22.7651  -29.4453   22.4775 C   0  0  0  0  0  0
  -18.0322  -28.1395   22.8435 C   0  0  0  0  0  0
  -24.1510  -36.7219   23.2643 C   0  0  0  0  0  0
  -26.0368  -30.6503   21.3917 C   0  0  0  0  0  0
  -26.1073  -29.2449   20.7349 C   0  0  0  0  0  0
  -27.2532  -28.3383   20.7423 C   0  0  0  0  0  0
  -26.0140  -26.7041   19.4984 C   0  0  0  0  0  0
  -24.8994  -27.5806   19.4713 C   0  0  0  0  0  0
  -23.7099  -29.7570   20.1437 C   0  0  0  0  0  0
  -25.4135  -36.2964   24.0305 C   0  0  1  0  0  0
  -20.5943  -28.3736   23.1170 C   0  0  2  0  0  0
  -20.6805  -26.9422   22.5381 C   0  0  0  0  0  0
  -19.5790  -26.6371   21.5179 C   0  0  0  0  0  0
  -18.1965  -26.7919   22.1588 C   0  0  0  0  0  0
  -19.1589  -28.8880   23.2790 C   0  0  0  0  0  0
  -18.9504  -30.1463   23.8835 C   0  0  0  0  0  0
  -17.6505  -30.6581   24.0542 C   0  0  0  0  0  0
  -25.9099  -34.9354   23.5007 C   0  0  0  0  0  0
  -16.5389  -29.9078   23.6328 C   0  0  0  0  0  0
  -16.7312  -28.6497   23.0341 C   0  0  0  0  0  0
  -26.4576  -31.6519   25.0668 C   0  0  0  0  0  0
  -25.3724  -31.3754   26.1344 C   0  0  0  0  0  0
  -27.0460  -30.2888   24.6361 C   0  0  0  0  0  0
  -27.6078  -32.4315   25.7470 C   0  0  0  0  0  0
  -27.5573  -37.1757   24.8464 C   0  0  0  0  0  0
  -21.4324  -29.3042   22.3540 N   0  0  0  0  0  0
  -26.4281  -37.3703   23.9420 N   0  0  0  0  0  0
  -24.7437  -30.9994   22.0804 N   0  0  0  0  0  0
  -23.4218  -28.8016   23.2998 O   0  0  0  0  0  0
  -28.2461  -25.9126   20.2545 O   0  0  0  0  0  0
  -26.5699  -34.8886   22.4598 O   0  0  0  0  0  0
  -23.5687  -32.1225   23.6833 O   0  0  0  0  0  0
  -30.2460  -20.4138   19.9061 C   0  0  0  0  0  0
  -30.4408  -18.9415   19.9437 C   0  0  0  0  0  0
  -28.3275  -18.7415   20.8378 C   0  0  0  0  0  0
  -29.0887  -21.1998   20.3337 C   0  0  0  0  0  0
  -28.1303  -20.2170   20.8139 C   0  0  0  0  0  0
  -29.4936  -17.9573   20.4300 C   0  0  0  0  0  0
  -26.8256  -20.7605   21.3670 C   0  0  0  0  0  0
  -29.0842  -22.9350   20.4691 C   0  0  0  0  0  0
  -28.0330  -24.3050   20.0698 C   0  0  0  0  0  0
  -29.5538  -16.3549   20.5178 N   0  0  0  0  0  0
  -31.4702  -12.9529   19.1942 H   0  0  0  0  0  0
  -30.5093  -11.8223   20.1022 H   0  0  0  0  0  0
  -29.9029  -11.7444   17.6555 H   0  0  0  0  0  0
  -29.5676  -13.4595   17.6690 H   0  0  0  0  0  0
  -28.0389  -11.2591   19.0836 H   0  0  0  0  0  0
  -27.4117  -12.3257   17.8549 H   0  0  0  0  0  0
  -27.5511  -14.2315   19.3439 H   0  0  0  0  0  0
  -28.7982  -12.4238   21.4746 H   0  0  0  0  0  0
  -28.3066  -14.0815   21.7234 H   0  0  0  0  0  0
  -25.2755   -9.5676   22.4773 H   0  0  0  0  0  0
  -23.9975   -7.4644   22.7502 H   0  0  0  0  0  0
  -21.0826   -8.8780   19.8967 H   0  0  0  0  0  0
  -22.3700  -10.9666   19.6169 H   0  0  0  0  0  0
  -21.2015   -7.6143   23.9703 H   0  0  0  0  0  0
  -21.1478   -6.0527   25.9075 H   0  0  0  0  0  0
  -22.0596   -2.7597   23.2861 H   0  0  0  0  0  0
  -22.4014  -11.9874   22.4829 H   0  0  0  0  0  0
  -21.1051  -13.1263   22.2629 H   0  0  0  0  0  0
  -24.6322  -15.8387   20.5051 H   0  0  0  0  0  0
  -26.2389  -15.6294   20.0305 H   0  0  0  0  0  0
  -26.7375  -32.5153   23.0876 H   0  0  0  0  0  0
  -25.0113  -33.9481   25.0212 H   0  0  0  0  0  0
  -22.7830  -31.2685   21.3501 H   0  0  0  0  0  0
  -23.3771  -35.9547   23.3272 H   0  0  0  0  0  0
  -24.3592  -36.8901   22.2066 H   0  0  0  0  0  0
  -23.7276  -37.6401   23.6720 H   0  0  0  0  0  0
  -26.2120  -31.3951   20.6137 H   0  0  0  0  0  0
  -26.8992  -30.7047   22.0439 H   0  0  0  0  0  0
  -28.1517  -28.6533   21.2546 H   0  0  0  0  0  0
  -25.8992  -25.7458   19.0117 H   0  0  0  0  0  0
  -23.9998  -27.2563   18.9663 H   0  0  0  0  0  0
  -23.8652  -30.5277   19.3873 H   0  0  0  0  0  0
  -22.8205  -29.2110   19.8236 H   0  0  0  0  0  0
  -25.1331  -36.1757   25.0792 H   0  0  0  0  0  0
  -21.0016  -28.3351   24.1298 H   0  0  0  0  0  0
  -20.5672  -26.2360   23.3621 H   0  0  0  0  0  0
  -21.6674  -26.7401   22.1202 H   0  0  0  0  0  0
  -19.6962  -25.6268   21.1249 H   0  0  0  0  0  0
  -19.6743  -27.3147   20.6673 H   0  0  0  0  0  0
  -17.4235  -26.6637   21.4000 H   0  0  0  0  0  0
  -18.0377  -26.0073   22.9003 H   0  0  0  0  0  0
  -19.7996  -30.7261   24.2213 H   0  0  0  0  0  0
  -17.5074  -31.6265   24.5149 H   0  0  0  0  0  0
  -15.5389  -30.2965   23.7689 H   0  0  0  0  0  0
  -15.8703  -28.0803   22.7076 H   0  0  0  0  0  0
  -24.5929  -30.7072   25.7667 H   0  0  0  0  0  0
  -24.8887  -32.2942   26.4651 H   0  0  0  0  0  0
  -25.7979  -30.9013   27.0193 H   0  0  0  0  0  0
  -26.3090  -29.6565   24.1389 H   0  0  0  0  0  0
  -27.4039  -29.7254   25.4986 H   0  0  0  0  0  0
  -27.9025  -30.4082   23.9720 H   0  0  0  0  0  0
  -27.2667  -33.3689   26.1876 H   0  0  0  0  0  0
  -28.3973  -32.6752   25.0348 H   0  0  0  0  0  0
  -28.0640  -31.8544   26.5523 H   0  0  0  0  0  0
  -28.2547  -38.0088   24.7504 H   0  0  0  0  0  0
  -28.1108  -36.2611   24.6288 H   0  0  0  0  0  0
  -27.2289  -37.1389   25.8862 H   0  0  0  0  0  0
  -20.9575  -29.8773   21.6708 H   0  0  0  0  0  0
  -26.0130  -38.2762   24.1423 H   0  0  0  0  0  0
  -31.0918  -20.9790   19.5421 H   0  0  0  0  0  0
  -31.3863  -18.5671   19.5773 H   0  0  0  0  0  0
  -27.5003  -18.1633   21.2252 H   0  0  0  0  0  0
  -26.2041  -19.9743   21.7964 H   0  0  0  0  0  0
  -26.2528  -21.2511   20.5788 H   0  0  0  0  0  0
  -27.0199  -21.4935   22.1511 H   0  0  0  0  0  0
  -30.0294  -23.2018   19.9960 H   0  0  0  0  0  0
  -29.2862  -23.0776   21.5304 H   0  0  0  0  0  0
  -27.0850  -24.0956   20.5664 H   0  0  0  0  0  0
  -27.8139  -24.1916   19.0074 H   0  0  0  0  0  0
  -28.6409  -15.9938   20.7489 H   0  0  0  0  0  0
  1 25  1  0  0  0
  1 30  2  0  0  0
  1 80  1  0  0  0
  2  3  1  0  0  0
  2 25  1  0  0  0
  2 81  1  0  0  0
  2 82  1  0  0  0
  3  4  1  0  0  0
  3 83  1  0  0  0
  3 84  1  0  0  0
  4  5  1  0  0  0
  4 85  1  0  0  0
  4 86  1  0  0  0
  5  6  1  0  0  0
  5 26  1  0  0  0
  5 87  1  0  0  0
  6 25  1  0  0  0
  6 88  1  0  0  0
  6 89  1  0  0  0
  7  8  2  0  0  0
  7 26  1  0  0  0
  7 29  1  0  0  0
  8  9  1  0  0  0
  8 22  1  0  0  0
  9 10  1  0  0  0
  9 27  2  0  0  0
 10 11  2  0  0  0
 10 15  1  0  0  0
 11 12  1  0  0  0
 11 90  1  0  0  0
 12 13  2  0  0  0
 12 91  1  0  0  0
 13 14  1  0  0  0
 13 31  1  0  0  0
 14 15  2  0  0  0
 14 92  1  0  0  0
 15 93  1  0  0  0
 16 17  2  0  0  0
 16 21  1  0  0  0
 16 31  1  0  0  0
 17 18  1  0  0  0
 17 94  1  0  0  0
 18 19  2  0  0  0
 18 95  1  0  0  0
 19 20  1  0  0  0
 19 24  1  0  0  0
 20 21  2  0  0  0
 20 96  1  0  0  0
 21 23  1  0  0  0
 22 28  1  0  0  0
 22 32  2  0  0  0
 26 27  1  0  0  0
 28 97  1  0  0  0
 28 98  1  0  0  0
 29 99  1  0  0  0
 29100  1  0  0  0
 33 34  1  0  0  0
 33 66  1  0  0  0
 33 70  2  0  0  0
 34 36  1  0  0  0
 34 59  1  0  0  0
 34101  1  0  0  0
 35 44  2  0  0  0
 35 45  1  0  0  0
 35 68  1  0  0  0
 36 56  1  0  0  0
 36102  1  0  0  0
 37 39  1  0  0  0
 37 47  1  0  0  0
 37 66  1  0  0  0
 37103  1  0  0  0
 38 43  2  0  0  0
 38 46  1  0  0  0
 38 47  1  0  0  0
 39 64  1  0  0  0
 39 67  2  0  0  0
 40 52  1  0  0  0
 40 53  2  0  0  0
 40 58  1  0  0  0
 41104  1  0  0  0
 41105  1  0  0  0
 41106  1  0  0  0
 41 48  1  0  0  0
 42 43  1  0  0  0
 42 66  1  0  0  0
 42107  1  0  0  0
 42108  1  0  0  0
 43 44  1  0  0  0
 44109  1  0  0  0
 45 46  2  0  0  0
 45110  1  0  0  0
 46111  1  0  0  0
 47112  1  0  0  0
 47113  1  0  0  0
 48 56  1  0  0  0
 48 65  1  0  0  0
 48114  1  0  0  0
 49 50  1  0  0  0
 49 53  1  0  0  0
 49 64  1  0  0  0
 49115  1  0  0  0
 50 51  1  0  0  0
 50116  1  0  0  0
 50117  1  0  0  0
 51 52  1  0  0  0
 51118  1  0  0  0
 51119  1  0  0  0
 52120  1  0  0  0
 52121  1  0  0  0
 53 54  1  0  0  0
 54 55  2  0  0  0
 54122  1  0  0  0
 55 57  1  0  0  0
 55123  1  0  0  0
 56 69  2  0  0  0
 57 58  2  0  0  0
 57124  1  0  0  0
 58125  1  0  0  0
 59 60  1  0  0  0
 59 61  1  0  0  0
 59 62  1  0  0  0
 60126  1  0  0  0
 60127  1  0  0  0
 60128  1  0  0  0
 61129  1  0  0  0
 61130  1  0  0  0
 61131  1  0  0  0
 62132  1  0  0  0
 62133  1  0  0  0
 62134  1  0  0  0
 63 65  1  0  0  0
 63135  1  0  0  0
 63136  1  0  0  0
 63137  1  0  0  0
 64138  1  0  0  0
 65139  1  0  0  0
 68 79  1  0  0  0
 71 72  2  0  0  0
 71 74  1  0  0  0
 71140  1  0  0  0
 72 76  1  0  0  0
 72141  1  0  0  0
 73 75  1  0  0  0
 73 76  2  0  0  0
 73142  1  0  0  0
 74 75  2  0  0  0
 74 78  1  0  0  0
 75 77  1  0  0  0
 76 80  1  0  0  0
 77143  1  0  0  0
 77144  1  0  0  0
 77145  1  0  0  0
 78 79  1  0  0  0
 78146  1  0  0  0
 78147  1  0  0  0
 79148  1  0  0  0
 79149  1  0  0  0
 80150  1  0  0  0
M  ISO  4   1 100  68 101  79 101  80 100
M  END
> <chiral flag>
0

> <version>
0

> <s_m_source_file>
/data/baiqing/PycharmProjects/Reinvent-master-3.2/result/LINK_invent/BTK/process_docking_weight1_custom_sum_contain_oxygen_bond_distance_aromatic_linkinvent_7_9_3/rearranged_h_0133.sdf

> <i_m_source_file_index>
13

> <r_mmod_Potential_Energy-OPLS-2005>
1016.50677490234

> <r_mmod_Stretch_Energy-OPLS-2005>
451.268981933594

> <r_mmod_Bend_Energy-OPLS-2005>
408.523010253906

> <r_mmod_Torsional_Energy-OPLS-2005>
213.23371887207

> <r_mmod_Improper_Torsional_Energy-OPLS-2005>
5.16562223434448

> <r_mmod_Van_der_Waal_Energy-OPLS-2005>
124.813041687012

> <r_mmod_Electrostatic_Energy-OPLS-2005>
-359.148742675781

> <r_mmod_Solvation_Energy-OPLS-2005>
-209.681030273438

> <b_mmod_Minimization_Converged-OPLS-2005>
0

> <r_mmod_RMS_Derivative-OPLS-2005>
1.93947839736938

$$$$
13
                    3D
 Structure written by MMmdl.
165174  0  0  1  0            999 V2000
  -30.6649  -14.6257   20.4827 C   0  0  0  0  0  0
  -30.4189  -12.3832   19.4537 C   0  0  0  0  0  0
  -29.4982  -12.4939   18.2211 C   0  0  0  0  0  0
  -28.0223  -12.3408   18.6364 C   0  0  0  0  0  0
  -27.6441  -13.2248   19.8558 C   0  0  2  0  0  0
  -28.6897  -13.1215   20.9869 C   0  0  0  0  0  0
  -25.2519  -13.8180   20.5707 C   0  0  0  0  0  0
  -24.1799  -13.0435   20.9208 C   0  0  0  0  0  0
  -24.6383  -11.6911   20.8750 C   0  0  0  0  0  0
  -23.9060  -10.4291   21.0409 C   0  0  0  0  0  0
  -24.3614   -9.4207   21.9184 C   0  0  0  0  0  0
  -23.6293   -8.2240   22.0753 C   0  0  0  0  0  0
  -22.4275   -8.0278   21.3543 C   0  0  0  0  0  0
  -21.9908   -9.0248   20.4645 C   0  0  0  0  0  0
  -22.7233  -10.2129   20.3057 C   0  0  0  0  0  0
  -21.6851   -6.0733   22.5280 C   0  0  0  0  0  0
  -21.4012   -6.5639   23.8212 C   0  0  0  0  0  0
  -21.3659   -5.6792   24.9175 C   0  0  0  0  0  0
  -21.6044   -4.3055   24.7224 C   0  0  0  0  0  0
  -21.8819   -3.8145   23.4346 C   0  0  0  0  0  0
  -21.9192   -4.6962   22.3402 C   0  0  0  0  0  0
  -22.7823  -13.5224   21.1868 C   0  0  0  0  0  0
  -22.1661   -4.2148   21.0980 F   0  0  0  0  0  0
  -21.5630   -3.4538   25.7735 F   0  0  0  0  0  0
  -30.0001  -13.4316   20.4045 N   0  0  0  0  0  0
  -26.2948  -12.9381   20.3318 N   0  0  0  0  0  0
  -25.9315  -11.6528   20.5769 N   0  0  0  0  0  0
  -22.0469  -12.8212   22.0421 N   0  0  0  0  0  0
  -25.4225  -15.1895   20.4117 N   0  0  0  0  0  0
  -31.8546  -14.7087   20.1612 O   0  0  0  0  0  0
  -21.6639   -6.8874   21.4241 O   0  0  0  0  0  0
  -22.3507  -14.5529   20.6712 O   0  0  0  0  0  0
  -24.6245  -31.8609   23.2037 C   0  0  0  0  0  0
  -25.9106  -32.4781   23.8354 C   0  0  1  0  0  0
  -27.2199  -27.3219   20.1046 C   0  0  0  0  0  0
  -25.5940  -33.8583   24.2282 N   0  0  0  0  0  0
  -23.4160  -30.4855   21.5466 C   0  0  2  0  0  0
  -24.8576  -28.9394   20.1125 C   0  0  0  0  0  0
  -22.7458  -29.4632   22.4948 C   0  0  0  0  0  0
  -18.0285  -28.1380   22.8490 C   0  0  0  0  0  0
  -24.1492  -36.7283   23.2640 C   0  0  0  0  0  0
  -25.9563  -30.7899   21.3746 C   0  0  0  0  0  0
  -26.0256  -29.4174   20.7176 C   0  0  0  0  0  0
  -27.2040  -28.6174   20.7082 C   0  0  0  0  0  0
  -26.0231  -26.8925   19.4934 C   0  0  0  0  0  0
  -24.8574  -27.6802   19.4954 C   0  0  0  0  0  0
  -23.6281  -29.8212   20.1610 C   0  0  0  0  0  0
  -25.4120  -36.3080   24.0329 C   0  0  1  0  0  0
  -20.5882  -28.3683   23.1288 C   0  0  2  0  0  0
  -20.6775  -26.9411   22.5408 C   0  0  0  0  0  0
  -19.5752  -26.6382   21.5211 C   0  0  0  0  0  0
  -18.1932  -26.7926   22.1622 C   0  0  0  0  0  0
  -19.1535  -28.8848   23.2887 C   0  0  0  0  0  0
  -18.9461  -30.1451   23.8898 C   0  0  0  0  0  0
  -17.6462  -30.6587   24.0563 C   0  0  0  0  0  0
  -25.9056  -34.9453   23.5101 C   0  0  0  0  0  0
  -16.5354  -29.9084   23.6333 C   0  0  0  0  0  0
  -16.7271  -28.6502   23.0354 C   0  0  0  0  0  0
  -26.4499  -31.6592   25.0723 C   0  0  0  0  0  0
  -25.3740  -31.3716   26.1456 C   0  0  0  0  0  0
  -27.0347  -30.3023   24.6166 C   0  0  0  0  0  0
  -27.6063  -32.4330   25.7488 C   0  0  0  0  0  0
  -27.5577  -37.1800   24.8470 C   0  0  0  0  0  0
  -21.4177  -29.3042   22.3687 N   0  0  0  0  0  0
  -26.4294  -37.3777   23.9409 N   0  0  0  0  0  0
  -24.6844  -31.0627   22.0981 N   0  0  0  0  0  0
  -23.4190  -28.8173   23.3022 O   0  0  0  0  0  0
  -28.3811  -26.5348   20.1522 O   0  0  0  0  0  0
  -26.5618  -34.8921   22.4664 O   0  0  0  0  0  0
  -23.5417  -32.1404   23.7381 O   0  0  0  0  0  0
  -29.1446  -22.5837   20.1920 C   0  0  0  0  0  0
  -27.2082  -23.9091   17.9559 C   0  0  0  0  0  0
  -26.8839  -23.4519   19.3884 C   0  0  0  0  0  0
  -28.2109  -25.0735   18.0687 C   0  0  0  0  0  0
  -29.4288  -17.8861   22.0588 C   0  0  0  0  0  0
  -28.4953  -17.6865   19.7463 C   0  0  0  0  0  0
  -30.4542  -16.7719   21.6638 C   0  0  0  0  0  0
  -29.5727  -16.5785   19.4945 C   0  0  0  0  0  0
  -28.1239  -23.8068   20.2275 C   0  0  2  0  0  0
  -28.5937  -25.1864   19.5587 C   0  0  2  0  0  0
  -28.7906  -18.7078   20.8910 C   0  0  0  0  0  0
  -29.5548  -20.0468   20.4675 C   0  0  0  0  0  0
  -29.9332  -15.7789   20.6932 N   0  0  0  0  0  0
  -28.7430  -21.3121   20.4968 N   0  0  0  0  0  0
  -30.3196  -22.7845   19.8818 O   0  0  0  0  0  0
  -27.5250  -19.1564   21.3621 O   0  0  0  0  0  0
  -31.4638  -12.4812   19.1534 H   0  0  0  0  0  0
  -30.3314  -11.3977   19.9143 H   0  0  0  0  0  0
  -29.7599  -11.7329   17.4846 H   0  0  0  0  0  0
  -29.6465  -13.4575   17.7312 H   0  0  0  0  0  0
  -27.8587  -11.2898   18.8778 H   0  0  0  0  0  0
  -27.3675  -12.5622   17.7930 H   0  0  0  0  0  0
  -27.6486  -14.2538   19.4989 H   0  0  0  0  0  0
  -28.6963  -12.1211   21.4218 H   0  0  0  0  0  0
  -28.4474  -13.8096   21.7988 H   0  0  0  0  0  0
  -25.2760   -9.5680   22.4760 H   0  0  0  0  0  0
  -24.0002   -7.4627   22.7470 H   0  0  0  0  0  0
  -21.0842   -8.8763   19.8948 H   0  0  0  0  0  0
  -22.3693  -10.9666   19.6166 H   0  0  0  0  0  0
  -21.2004   -7.6146   23.9715 H   0  0  0  0  0  0
  -21.1483   -6.0522   25.9077 H   0  0  0  0  0  0
  -22.0600   -2.7607   23.2845 H   0  0  0  0  0  0
  -22.4092  -11.9875   22.4810 H   0  0  0  0  0  0
  -21.1083  -13.1228   22.2626 H   0  0  0  0  0  0
  -24.6545  -15.8446   20.5100 H   0  0  0  0  0  0
  -26.2761  -15.6193   20.0819 H   0  0  0  0  0  0
  -26.7167  -32.5441   23.1094 H   0  0  0  0  0  0
  -25.0124  -33.9737   25.0450 H   0  0  0  0  0  0
  -22.7092  -31.3061   21.4054 H   0  0  0  0  0  0
  -23.3759  -35.9611   23.3312 H   0  0  0  0  0  0
  -24.3577  -36.8889   22.2051 H   0  0  0  0  0  0
  -23.7241  -37.6484   23.6659 H   0  0  0  0  0  0
  -26.0901  -31.5533   20.6067 H   0  0  0  0  0  0
  -26.8367  -30.8356   22.0039 H   0  0  0  0  0  0
  -28.1016  -28.9837   21.1864 H   0  0  0  0  0  0
  -25.9510  -25.9405   19.0065 H   0  0  0  0  0  0
  -23.9613  -27.3056   19.0203 H   0  0  0  0  0  0
  -23.7487  -30.5980   19.4050 H   0  0  0  0  0  0
  -22.7470  -29.2525   19.8574 H   0  0  0  0  0  0
  -25.1302  -36.1928   25.0822 H   0  0  0  0  0  0
  -20.9973  -28.3255   24.1408 H   0  0  0  0  0  0
  -20.5683  -26.2294   23.3604 H   0  0  0  0  0  0
  -21.6644  -26.7450   22.1194 H   0  0  0  0  0  0
  -19.6918  -25.6294   21.1238 H   0  0  0  0  0  0
  -19.6690  -27.3195   20.6744 H   0  0  0  0  0  0
  -17.4202  -26.6680   21.4023 H   0  0  0  0  0  0
  -18.0332  -26.0062   22.9012 H   0  0  0  0  0  0
  -19.7940  -30.7266   24.2265 H   0  0  0  0  0  0
  -17.5023  -31.6268   24.5162 H   0  0  0  0  0  0
  -15.5356  -30.2991   23.7655 H   0  0  0  0  0  0
  -15.8672  -28.0821   22.7070 H   0  0  0  0  0  0
  -24.5929  -30.7048   25.7783 H   0  0  0  0  0  0
  -24.8920  -32.2876   26.4887 H   0  0  0  0  0  0
  -25.8080  -30.8895   27.0226 H   0  0  0  0  0  0
  -26.2907  -29.6769   24.1215 H   0  0  0  0  0  0
  -27.4082  -29.7286   25.4658 H   0  0  0  0  0  0
  -27.8768  -30.4320   23.9361 H   0  0  0  0  0  0
  -27.2675  -33.3638   26.2053 H   0  0  0  0  0  0
  -28.3876  -32.6875   25.0312 H   0  0  0  0  0  0
  -28.0734  -31.8464   26.5409 H   0  0  0  0  0  0
  -28.2603  -38.0089   24.7510 H   0  0  0  0  0  0
  -28.1061  -36.2618   24.6307 H   0  0  0  0  0  0
  -27.2291  -37.1456   25.8873 H   0  0  0  0  0  0
  -20.9351  -29.8758   21.6895 H   0  0  0  0  0  0
  -26.0171  -38.2851   24.1412 H   0  0  0  0  0  0
  -26.3083  -24.1900   17.4069 H   0  0  0  0  0  0
  -27.6697  -23.0875   17.4057 H   0  0  0  0  0  0
  -26.6178  -22.3946   19.4108 H   0  0  0  0  0  0
  -26.0160  -23.9745   19.7872 H   0  0  0  0  0  0
  -27.8075  -26.0025   17.6671 H   0  0  0  0  0  0
  -29.0959  -24.8510   17.4708 H   0  0  0  0  0  0
  -29.8858  -18.5650   22.7804 H   0  0  0  0  0  0
  -28.6366  -17.3800   22.6128 H   0  0  0  0  0  0
  -27.5681  -17.1596   19.9714 H   0  0  0  0  0  0
  -28.2952  -18.2235   18.8179 H   0  0  0  0  0  0
  -30.7671  -16.2498   22.5698 H   0  0  0  0  0  0
  -31.3586  -17.2361   21.2646 H   0  0  0  0  0  0
  -30.4732  -17.0376   19.0813 H   0  0  0  0  0  0
  -29.2052  -15.9107   18.7135 H   0  0  0  0  0  0
  -27.8532  -23.9677   21.2712 H   0  0  0  0  0  0
  -29.6831  -25.1679   19.5762 H   0  0  0  0  0  0
  -29.9766  -19.9266   19.4685 H   0  0  0  0  0  0
  -30.4136  -20.1942   21.1235 H   0  0  0  0  0  0
  -27.7822  -21.1534   20.7799 H   0  0  0  0  0  0
  -27.0355  -18.3978   21.6605 H   0  0  0  0  0  0
  1 25  1  0  0  0
  1 30  2  0  0  0
  1 83  1  0  0  0
  2  3  1  0  0  0
  2 25  1  0  0  0
  2 87  1  0  0  0
  2 88  1  0  0  0
  3  4  1  0  0  0
  3 89  1  0  0  0
  3 90  1  0  0  0
  4  5  1  0  0  0
  4 91  1  0  0  0
  4 92  1  0  0  0
  5  6  1  0  0  0
  5 26  1  0  0  0
  5 93  1  0  0  0
  6 25  1  0  0  0
  6 94  1  0  0  0
  6 95  1  0  0  0
  7  8  2  0  0  0
  7 26  1  0  0  0
  7 29  1  0  0  0
  8  9  1  0  0  0
  8 22  1  0  0  0
  9 10  1  0  0  0
  9 27  2  0  0  0
 10 11  2  0  0  0
 10 15  1  0  0  0
 11 12  1  0  0  0
 11 96  1  0  0  0
 12 13  2  0  0  0
 12 97  1  0  0  0
 13 14  1  0  0  0
 13 31  1  0  0  0
 14 15  2  0  0  0
 14 98  1  0  0  0
 15 99  1  0  0  0
 16 17  2  0  0  0
 16 21  1  0  0  0
 16 31  1  0  0  0
 17 18  1  0  0  0
 17100  1  0  0  0
 18 19  2  0  0  0
 18101  1  0  0  0
 19 20  1  0  0  0
 19 24  1  0  0  0
 20 21  2  0  0  0
 20102  1  0  0  0
 21 23  1  0  0  0
 22 28  1  0  0  0
 22 32  2  0  0  0
 26 27  1  0  0  0
 28103  1  0  0  0
 28104  1  0  0  0
 29105  1  0  0  0
 29106  1  0  0  0
 33 34  1  0  0  0
 33 66  1  0  0  0
 33 70  2  0  0  0
 34 36  1  0  0  0
 34 59  1  0  0  0
 34107  1  0  0  0
 35 44  2  0  0  0
 35 45  1  0  0  0
 35 68  1  0  0  0
 36 56  1  0  0  0
 36108  1  0  0  0
 37 39  1  0  0  0
 37 47  1  0  0  0
 37 66  1  0  0  0
 37109  1  0  0  0
 38 43  2  0  0  0
 38 46  1  0  0  0
 38 47  1  0  0  0
 39 64  1  0  0  0
 39 67  2  0  0  0
 40 52  1  0  0  0
 40 53  2  0  0  0
 40 58  1  0  0  0
 41110  1  0  0  0
 41111  1  0  0  0
 41112  1  0  0  0
 41 48  1  0  0  0
 42 43  1  0  0  0
 42 66  1  0  0  0
 42113  1  0  0  0
 42114  1  0  0  0
 43 44  1  0  0  0
 44115  1  0  0  0
 45 46  2  0  0  0
 45116  1  0  0  0
 46117  1  0  0  0
 47118  1  0  0  0
 47119  1  0  0  0
 48 56  1  0  0  0
 48 65  1  0  0  0
 48120  1  0  0  0
 49 50  1  0  0  0
 49 53  1  0  0  0
 49 64  1  0  0  0
 49121  1  0  0  0
 50 51  1  0  0  0
 50122  1  0  0  0
 50123  1  0  0  0
 51 52  1  0  0  0
 51124  1  0  0  0
 51125  1  0  0  0
 52126  1  0  0  0
 52127  1  0  0  0
 53 54  1  0  0  0
 54 55  2  0  0  0
 54128  1  0  0  0
 55 57  1  0  0  0
 55129  1  0  0  0
 56 69  2  0  0  0
 57 58  2  0  0  0
 57130  1  0  0  0
 58131  1  0  0  0
 59 60  1  0  0  0
 59 61  1  0  0  0
 59 62  1  0  0  0
 60132  1  0  0  0
 60133  1  0  0  0
 60134  1  0  0  0
 61135  1  0  0  0
 61136  1  0  0  0
 61137  1  0  0  0
 62138  1  0  0  0
 62139  1  0  0  0
 62140  1  0  0  0
 63 65  1  0  0  0
 63141  1  0  0  0
 63142  1  0  0  0
 63143  1  0  0  0
 64144  1  0  0  0
 65145  1  0  0  0
 68 80  1  0  0  0
 71 84  1  0  0  0
 71 85  2  0  0  0
 71 79  1  0  0  0
 72 73  1  0  0  0
 72 74  1  0  0  0
 72146  1  0  0  0
 72147  1  0  0  0
 73 79  1  0  0  0
 73148  1  0  0  0
 73149  1  0  0  0
 74 80  1  0  0  0
 74150  1  0  0  0
 74151  1  0  0  0
 75 77  1  0  0  0
 75 81  1  0  0  0
 75152  1  0  0  0
 75153  1  0  0  0
 76 78  1  0  0  0
 76 81  1  0  0  0
 76154  1  0  0  0
 76155  1  0  0  0
 77 83  1  0  0  0
 77156  1  0  0  0
 77157  1  0  0  0
 78 83  1  0  0  0
 78158  1  0  0  0
 78159  1  0  0  0
 79 80  1  0  0  0
 79160  1  0  0  0
 80161  1  0  0  0
 81 82  1  0  0  0
 81 86  1  0  0  0
 82 84  1  0  0  0
 82162  1  0  0  0
 82163  1  0  0  0
 84164  1  0  0  0
 86165  1  0  0  0
M  ISO  4   1 100  68 101  80 101  83 100
M  END
> <chiral flag>
0

> <version>
0

> <s_m_source_file>
/data/baiqing/PycharmProjects/Reinvent-master-3.2/result/LINK_invent/BTK/process_docking_weight1_custom_sum_contain_oxygen_bond_distance_aromatic_linkinvent_7_9_3/rearranged_h_0133.sdf

> <i_m_source_file_index>
14

> <r_mmod_Potential_Energy-OPLS-2005>
274.447265625

> <r_mmod_Stretch_Energy-OPLS-2005>
83.7069320678711

> <r_mmod_Bend_Energy-OPLS-2005>
205.309982299805

> <r_mmod_Torsional_Energy-OPLS-2005>
408.098388671875

> <r_mmod_Improper_Torsional_Energy-OPLS-2005>
10.5014114379883

> <r_mmod_Van_der_Waal_Energy-OPLS-2005>
137.543807983398

> <r_mmod_Electrostatic_Energy-OPLS-2005>
-391.682281494141

> <r_mmod_Solvation_Energy-OPLS-2005>
-224.610290527344

> <b_mmod_Minimization_Converged-OPLS-2005>
0

> <r_mmod_RMS_Derivative-OPLS-2005>
0.638392627239227

$$$$
14
                    3D
 Structure written by MMmdl.
171179  0  0  1  0            999 V2000
  -30.8743  -14.2137   20.8000 C   0  0  0  0  0  0
  -30.4036  -12.2878   19.3499 C   0  0  0  0  0  0
  -29.4604  -12.5454   18.1684 C   0  0  0  0  0  0
  -27.9963  -12.3822   18.6056 C   0  0  0  0  0  0
  -27.6651  -13.2060   19.8753 C   0  0  2  0  0  0
  -28.7064  -12.9646   20.9903 C   0  0  0  0  0  0
  -25.2599  -13.8167   20.5680 C   0  0  0  0  0  0
  -24.1843  -13.0444   20.9164 C   0  0  0  0  0  0
  -24.6396  -11.6910   20.8722 C   0  0  0  0  0  0
  -23.9057  -10.4295   21.0392 C   0  0  0  0  0  0
  -24.3610   -9.4213   21.9171 C   0  0  0  0  0  0
  -23.6285   -8.2250   22.0748 C   0  0  0  0  0  0
  -22.4265   -8.0286   21.3542 C   0  0  0  0  0  0
  -21.9903   -9.0253   20.4639 C   0  0  0  0  0  0
  -22.7233  -10.2131   20.3039 C   0  0  0  0  0  0
  -21.6852   -6.0737   22.5278 C   0  0  0  0  0  0
  -21.4006   -6.5640   23.8211 C   0  0  0  0  0  0
  -21.3654   -5.6793   24.9173 C   0  0  0  0  0  0
  -21.6045   -4.3055   24.7224 C   0  0  0  0  0  0
  -21.8822   -3.8150   23.4344 C   0  0  0  0  0  0
  -21.9194   -4.6965   22.3401 C   0  0  0  0  0  0
  -22.7867  -13.5236   21.1840 C   0  0  0  0  0  0
  -22.1665   -4.2150   21.0980 F   0  0  0  0  0  0
  -21.5626   -3.4539   25.7735 F   0  0  0  0  0  0
  -30.0580  -13.1957   20.4491 N   0  0  0  0  0  0
  -26.3044  -12.9344   20.3388 N   0  0  0  0  0  0
  -25.9323  -11.6498   20.5763 N   0  0  0  0  0  0
  -22.0516  -12.8218   22.0395 N   0  0  0  0  0  0
  -25.4329  -15.1884   20.4091 N   0  0  0  0  0  0
  -31.7352  -14.6968   20.0564 O   0  0  0  0  0  0
  -21.6636   -6.8879   21.4239 O   0  0  0  0  0  0
  -22.3550  -14.5552   20.6710 O   0  0  0  0  0  0
  -24.6084  -31.8724   23.2141 C   0  0  0  0  0  0
  -25.9002  -32.4844   23.8422 C   0  0  1  0  0  0
  -27.2425  -27.4891   20.0885 C   0  0  0  0  0  0
  -25.5883  -33.8642   24.2357 N   0  0  0  0  0  0
  -23.3938  -30.4943   21.5538 C   0  0  2  0  0  0
  -24.8423  -28.9630   20.1192 C   0  0  0  0  0  0
  -22.7373  -29.4673   22.5026 C   0  0  0  0  0  0
  -18.0258  -28.1374   22.8497 C   0  0  0  0  0  0
  -24.1474  -36.7318   23.2640 C   0  0  0  0  0  0
  -25.9152  -30.8529   21.3601 C   0  0  0  0  0  0
  -25.9952  -29.4878   20.7165 C   0  0  0  0  0  0
  -27.1980  -28.7561   20.7071 C   0  0  0  0  0  0
  -26.0819  -26.9693   19.4837 C   0  0  0  0  0  0
  -24.8764  -27.6976   19.5046 C   0  0  0  0  0  0
  -23.5999  -29.8219   20.1689 C   0  0  0  0  0  0
  -25.4097  -36.3127   24.0344 C   0  0  1  0  0  0
  -20.5843  -28.3647   23.1343 C   0  0  2  0  0  0
  -20.6746  -26.9392   22.5426 C   0  0  0  0  0  0
  -19.5728  -26.6380   21.5219 C   0  0  0  0  0  0
  -18.1901  -26.7928   22.1615 C   0  0  0  0  0  0
  -19.1506  -28.8826   23.2917 C   0  0  0  0  0  0
  -18.9440  -30.1436   23.8919 C   0  0  0  0  0  0
  -17.6447  -30.6586   24.0562 C   0  0  0  0  0  0
  -25.9024  -34.9490   23.5148 C   0  0  0  0  0  0
  -16.5336  -29.9089   23.6328 C   0  0  0  0  0  0
  -16.7250  -28.6504   23.0350 C   0  0  0  0  0  0
  -26.4456  -31.6600   25.0723 C   0  0  0  0  0  0
  -25.3739  -31.3685   26.1484 C   0  0  0  0  0  0
  -27.0271  -30.3050   24.6049 C   0  0  0  0  0  0
  -27.6053  -32.4301   25.7476 C   0  0  0  0  0  0
  -27.5575  -37.1810   24.8466 C   0  0  0  0  0  0
  -21.4109  -29.3020   22.3758 N   0  0  0  0  0  0
  -26.4287  -37.3809   23.9415 N   0  0  0  0  0  0
  -24.6570  -31.0865   22.1020 N   0  0  0  0  0  0
  -23.4170  -28.8224   23.3053 O   0  0  0  0  0  0
  -28.4004  -26.7611   20.0138 O   0  0  0  0  0  0
  -26.5584  -34.8938   22.4707 O   0  0  0  0  0  0
  -23.5292  -32.1454   23.7568 O   0  0  0  0  0  0
  -32.7092  -17.3069   23.4423 C   0  0  0  0  0  0
  -32.4585  -18.5672   24.0100 C   0  0  0  0  0  0
  -30.5192  -16.5440   24.1855 C   0  0  0  0  0  0
  -31.7332  -16.2958   23.5126 C   0  0  0  0  0  0
  -31.2317  -18.8345   24.6556 C   0  0  0  0  0  0
  -30.2556  -17.8073   24.7579 C   0  0  0  0  0  0
  -29.0047  -17.7062   26.9609 C   0  0  0  0  0  0
  -28.9198  -18.0128   25.4611 C   0  0  0  0  0  0
  -32.0131  -14.9429   22.8864 C   0  0  0  0  0  0
  -30.9757  -20.2564   25.1304 C   0  0  0  0  0  0
  -29.6859  -24.5472   22.7612 C   0  0  0  0  0  0
  -29.6638  -23.0175   22.8478 C   0  0  0  0  0  0
  -29.0333  -25.0107   21.4537 C   0  0  0  0  0  0
  -30.3035  -22.4416   24.1191 C   0  0  0  0  0  0
  -29.0652  -26.5244   21.2483 C   0  0  0  0  0  0
  -30.8910  -14.4056   22.1233 N   0  0  0  0  0  0
  -30.3363  -20.9734   24.0181 N   0  3  0  0  0  0
  -31.4423  -12.3996   19.0325 H   0  0  0  0  0  0
  -30.3083  -11.2566   19.6936 H   0  0  0  0  0  0
  -29.6843  -11.8585   17.3510 H   0  0  0  0  0  0
  -29.6214  -13.5521   17.7796 H   0  0  0  0  0  0
  -27.8165  -11.3226   18.7906 H   0  0  0  0  0  0
  -27.3282  -12.6660   17.7918 H   0  0  0  0  0  0
  -27.7209  -14.2587   19.5965 H   0  0  0  0  0  0
  -28.6419  -11.9409   21.3619 H   0  0  0  0  0  0
  -28.4769  -13.6142   21.8360 H   0  0  0  0  0  0
  -25.2757   -9.5692   22.4740 H   0  0  0  0  0  0
  -23.9998   -7.4643   22.7467 H   0  0  0  0  0  0
  -21.0836   -8.8767   19.8943 H   0  0  0  0  0  0
  -22.3694  -10.9659   19.6137 H   0  0  0  0  0  0
  -21.1990   -7.6145   23.9711 H   0  0  0  0  0  0
  -21.1468   -6.0522   25.9075 H   0  0  0  0  0  0
  -22.0601   -2.7612   23.2844 H   0  0  0  0  0  0
  -22.4133  -11.9861   22.4748 H   0  0  0  0  0  0
  -21.1138  -13.1239   22.2623 H   0  0  0  0  0  0
  -24.6718  -15.8498   20.5186 H   0  0  0  0  0  0
  -26.2984  -15.6243   20.1141 H   0  0  0  0  0  0
  -26.7076  -32.5586   23.1200 H   0  0  0  0  0  0
  -25.0036  -33.9813   25.0504 H   0  0  0  0  0  0
  -22.6802  -31.3094   21.4157 H   0  0  0  0  0  0
  -23.3747  -35.9640   23.3309 H   0  0  0  0  0  0
  -24.3567  -36.8924   22.2054 H   0  0  0  0  0  0
  -23.7211  -37.6520   23.6646 H   0  0  0  0  0  0
  -26.0151  -31.6161   20.5873 H   0  0  0  0  0  0
  -26.8079  -30.9137   21.9705 H   0  0  0  0  0  0
  -28.0905  -29.1711   21.1544 H   0  0  0  0  0  0
  -26.1144  -26.0036   18.9991 H   0  0  0  0  0  0
  -23.9911  -27.2874   19.0386 H   0  0  0  0  0  0
  -23.7001  -30.5941   19.4052 H   0  0  0  0  0  0
  -22.7267  -29.2342   19.8795 H   0  0  0  0  0  0
  -25.1270  -36.2001   25.0837 H   0  0  0  0  0  0
  -20.9935  -28.3203   24.1463 H   0  0  0  0  0  0
  -20.5654  -26.2254   23.3605 H   0  0  0  0  0  0
  -21.6619  -26.7442   22.1219 H   0  0  0  0  0  0
  -19.6888  -25.6294   21.1238 H   0  0  0  0  0  0
  -19.6682  -27.3199   20.6757 H   0  0  0  0  0  0
  -17.4189  -26.6706   21.3997 H   0  0  0  0  0  0
  -18.0274  -26.0051   22.8987 H   0  0  0  0  0  0
  -19.7921  -30.7235   24.2300 H   0  0  0  0  0  0
  -17.5012  -31.6274   24.5149 H   0  0  0  0  0  0
  -15.5339  -30.3000   23.7642 H   0  0  0  0  0  0
  -15.8647  -28.0833   22.7055 H   0  0  0  0  0  0
  -24.5907  -30.7040   25.7816 H   0  0  0  0  0  0
  -24.8931  -32.2830   26.4968 H   0  0  0  0  0  0
  -25.8106  -30.8827   27.0218 H   0  0  0  0  0  0
  -26.2784  -29.6825   24.1135 H   0  0  0  0  0  0
  -27.4088  -29.7270   25.4475 H   0  0  0  0  0  0
  -27.8602  -30.4380   23.9145 H   0  0  0  0  0  0
  -27.2697  -33.3595   26.2094 H   0  0  0  0  0  0
  -28.3846  -32.6867   25.0285 H   0  0  0  0  0  0
  -28.0743  -31.8393   26.5358 H   0  0  0  0  0  0
  -28.2609  -38.0092   24.7514 H   0  0  0  0  0  0
  -28.1051  -36.2628   24.6286 H   0  0  0  0  0  0
  -27.2299  -37.1457   25.8870 H   0  0  0  0  0  0
  -20.9261  -29.8741   21.6987 H   0  0  0  0  0  0
  -26.0183  -38.2891   24.1422 H   0  0  0  0  0  0
  -33.6502  -17.1260   22.9405 H   0  0  0  0  0  0
  -33.2116  -19.3393   23.9217 H   0  0  0  0  0  0
  -29.7797  -15.7583   24.2600 H   0  0  0  0  0  0
  -28.0383  -17.8574   27.4428 H   0  0  0  0  0  0
  -29.7296  -18.3483   27.4618 H   0  0  0  0  0  0
  -29.3020  -16.6714   27.1332 H   0  0  0  0  0  0
  -28.1737  -17.3599   25.0055 H   0  0  0  0  0  0
  -28.5442  -19.0230   25.3039 H   0  0  0  0  0  0
  -32.2395  -14.2410   23.6899 H   0  0  0  0  0  0
  -32.9180  -14.9926   22.2773 H   0  0  0  0  0  0
  -31.9244  -20.7305   25.3877 H   0  0  0  0  0  0
  -30.3584  -20.2894   26.0280 H   0  0  0  0  0  0
  -30.7145  -24.9084   22.8098 H   0  0  0  0  0  0
  -29.1597  -24.9802   23.6132 H   0  0  0  0  0  0
  -30.1815  -22.6172   21.9744 H   0  0  0  0  0  0
  -28.6316  -22.6703   22.7757 H   0  0  0  0  0  0
  -27.9963  -24.6718   21.4292 H   0  0  0  0  0  0
  -29.5301  -24.5335   20.6074 H   0  0  0  0  0  0
  -29.7412  -22.7440   25.0039 H   0  0  0  0  0  0
  -31.3199  -22.8221   24.2338 H   0  0  0  0  0  0
  -30.0918  -26.8857   21.1824 H   0  0  0  0  0  0
  -28.5985  -27.0202   22.1017 H   0  0  0  0  0  0
  -30.1870  -13.9077   22.6463 H   0  0  0  0  0  0
  -29.3999  -20.6230   23.9069 H   0  0  0  0  0  0
  -30.8494  -20.7301   23.1872 H   0  0  0  0  0  0
  1 25  1  0  0  0
  1 30  2  0  0  0
  1 86  1  0  0  0
  2  3  1  0  0  0
  2 25  1  0  0  0
  2 88  1  0  0  0
  2 89  1  0  0  0
  3  4  1  0  0  0
  3 90  1  0  0  0
  3 91  1  0  0  0
  4  5  1  0  0  0
  4 92  1  0  0  0
  4 93  1  0  0  0
  5  6  1  0  0  0
  5 26  1  0  0  0
  5 94  1  0  0  0
  6 25  1  0  0  0
  6 95  1  0  0  0
  6 96  1  0  0  0
  7  8  2  0  0  0
  7 26  1  0  0  0
  7 29  1  0  0  0
  8  9  1  0  0  0
  8 22  1  0  0  0
  9 10  1  0  0  0
  9 27  2  0  0  0
 10 11  2  0  0  0
 10 15  1  0  0  0
 11 12  1  0  0  0
 11 97  1  0  0  0
 12 13  2  0  0  0
 12 98  1  0  0  0
 13 14  1  0  0  0
 13 31  1  0  0  0
 14 15  2  0  0  0
 14 99  1  0  0  0
 15100  1  0  0  0
 16 17  2  0  0  0
 16 21  1  0  0  0
 16 31  1  0  0  0
 17 18  1  0  0  0
 17101  1  0  0  0
 18 19  2  0  0  0
 18102  1  0  0  0
 19 20  1  0  0  0
 19 24  1  0  0  0
 20 21  2  0  0  0
 20103  1  0  0  0
 21 23  1  0  0  0
 22 28  1  0  0  0
 22 32  2  0  0  0
 26 27  1  0  0  0
 28104  1  0  0  0
 28105  1  0  0  0
 29106  1  0  0  0
 29107  1  0  0  0
 33 34  1  0  0  0
 33 66  1  0  0  0
 33 70  2  0  0  0
 34 36  1  0  0  0
 34 59  1  0  0  0
 34108  1  0  0  0
 35 44  2  0  0  0
 35 45  1  0  0  0
 35 68  1  0  0  0
 36 56  1  0  0  0
 36109  1  0  0  0
 37 39  1  0  0  0
 37 47  1  0  0  0
 37 66  1  0  0  0
 37110  1  0  0  0
 38 43  2  0  0  0
 38 46  1  0  0  0
 38 47  1  0  0  0
 39 64  1  0  0  0
 39 67  2  0  0  0
 40 52  1  0  0  0
 40 53  2  0  0  0
 40 58  1  0  0  0
 41111  1  0  0  0
 41112  1  0  0  0
 41113  1  0  0  0
 41 48  1  0  0  0
 42 43  1  0  0  0
 42 66  1  0  0  0
 42114  1  0  0  0
 42115  1  0  0  0
 43 44  1  0  0  0
 44116  1  0  0  0
 45 46  2  0  0  0
 45117  1  0  0  0
 46118  1  0  0  0
 47119  1  0  0  0
 47120  1  0  0  0
 48 56  1  0  0  0
 48 65  1  0  0  0
 48121  1  0  0  0
 49 50  1  0  0  0
 49 53  1  0  0  0
 49 64  1  0  0  0
 49122  1  0  0  0
 50 51  1  0  0  0
 50123  1  0  0  0
 50124  1  0  0  0
 51 52  1  0  0  0
 51125  1  0  0  0
 51126  1  0  0  0
 52127  1  0  0  0
 52128  1  0  0  0
 53 54  1  0  0  0
 54 55  2  0  0  0
 54129  1  0  0  0
 55 57  1  0  0  0
 55130  1  0  0  0
 56 69  2  0  0  0
 57 58  2  0  0  0
 57131  1  0  0  0
 58132  1  0  0  0
 59 60  1  0  0  0
 59 61  1  0  0  0
 59 62  1  0  0  0
 60133  1  0  0  0
 60134  1  0  0  0
 60135  1  0  0  0
 61136  1  0  0  0
 61137  1  0  0  0
 61138  1  0  0  0
 62139  1  0  0  0
 62140  1  0  0  0
 62141  1  0  0  0
 63 65  1  0  0  0
 63142  1  0  0  0
 63143  1  0  0  0
 63144  1  0  0  0
 64145  1  0  0  0
 65146  1  0  0  0
 68 85  1  0  0  0
 71 72  2  0  0  0
 71 74  1  0  0  0
 71147  1  0  0  0
 72 75  1  0  0  0
 72148  1  0  0  0
 73 74  2  0  0  0
 73 76  1  0  0  0
 73149  1  0  0  0
 74 79  1  0  0  0
 75 76  2  0  0  0
 75 80  1  0  0  0
 76 78  1  0  0  0
 77 78  1  0  0  0
 77150  1  0  0  0
 77151  1  0  0  0
 77152  1  0  0  0
 78153  1  0  0  0
 78154  1  0  0  0
 79 86  1  0  0  0
 79155  1  0  0  0
 79156  1  0  0  0
 80 87  1  0  0  0
 80157  1  0  0  0
 80158  1  0  0  0
 81 82  1  0  0  0
 81 83  1  0  0  0
 81159  1  0  0  0
 81160  1  0  0  0
 82 84  1  0  0  0
 82161  1  0  0  0
 82162  1  0  0  0
 83 85  1  0  0  0
 83163  1  0  0  0
 83164  1  0  0  0
 84 87  1  0  0  0
 84165  1  0  0  0
 84166  1  0  0  0
 85167  1  0  0  0
 85168  1  0  0  0
 86169  1  0  0  0
 87170  1  0  0  0
 87171  1  0  0  0
M  CHG  1  87   1
M  ISO  4   1 100  68 101  85 101  86 100
M  END
> <chiral flag>
0

> <version>
0

> <s_m_source_file>
/data/baiqing/PycharmProjects/Reinvent-master-3.2/result/LINK_invent/BTK/process_docking_weight1_custom_sum_contain_oxygen_bond_distance_aromatic_linkinvent_7_9_3/rearranged_h_0133.sdf

> <i_m_source_file_index>
15

> <r_mmod_Potential_Energy-OPLS-2005>
-301.469757080078

> <r_mmod_Stretch_Energy-OPLS-2005>
29.6005020141602

> <r_mmod_Bend_Energy-OPLS-2005>
87.8724670410156

> <r_mmod_Torsional_Energy-OPLS-2005>
214.118240356445

> <r_mmod_Improper_Torsional_Energy-OPLS-2005>
8.8658618927002

> <r_mmod_Van_der_Waal_Energy-OPLS-2005>
148.290237426758

> <r_mmod_Electrostatic_Energy-OPLS-2005>
-350.484252929688

> <r_mmod_Solvation_Energy-OPLS-2005>
-451.022277832031

> <b_mmod_Minimization_Converged-OPLS-2005>
0

> <r_mmod_RMS_Derivative-OPLS-2005>
0.695176124572754

$$$$
15
                    3D
 Structure written by MMmdl.
172180  0  0  1  0            999 V2000
  -30.6899  -14.4439   20.5425 C   0  0  0  0  0  0
  -30.4248  -12.2749   19.4262 C   0  0  0  0  0  0
  -29.4996  -12.4951   18.2097 C   0  0  0  0  0  0
  -28.0168  -12.3662   18.6166 C   0  0  0  0  0  0
  -27.6660  -13.1985   19.8800 C   0  0  2  0  0  0
  -28.7066  -12.9635   21.0017 C   0  0  0  0  0  0
  -25.2613  -13.8145   20.5680 C   0  0  0  0  0  0
  -24.1855  -13.0437   20.9173 C   0  0  0  0  0  0
  -24.6392  -11.6899   20.8732 C   0  0  0  0  0  0
  -23.9051  -10.4291   21.0400 C   0  0  0  0  0  0
  -24.3610   -9.4209   21.9178 C   0  0  0  0  0  0
  -23.6285   -8.2245   22.0752 C   0  0  0  0  0  0
  -22.4264   -8.0283   21.3546 C   0  0  0  0  0  0
  -21.9897   -9.0257   20.4648 C   0  0  0  0  0  0
  -22.7226  -10.2136   20.3043 C   0  0  0  0  0  0
  -21.6851   -6.0728   22.5273 C   0  0  0  0  0  0
  -21.4022   -6.5634   23.8209 C   0  0  0  0  0  0
  -21.3653   -5.6788   24.9171 C   0  0  0  0  0  0
  -21.6047   -4.3048   24.7227 C   0  0  0  0  0  0
  -21.8820   -3.8135   23.4346 C   0  0  0  0  0  0
  -21.9198   -4.6953   22.3402 C   0  0  0  0  0  0
  -22.7880  -13.5243   21.1846 C   0  0  0  0  0  0
  -22.1667   -4.2141   21.0978 F   0  0  0  0  0  0
  -21.5629   -3.4527   25.7736 F   0  0  0  0  0  0
  -30.0451  -13.2532   20.4547 N   0  0  0  0  0  0
  -26.3047  -12.9299   20.3384 N   0  0  0  0  0  0
  -25.9318  -11.6468   20.5772 N   0  0  0  0  0  0
  -22.0511  -12.8237   22.0394 N   0  0  0  0  0  0
  -25.4360  -15.1867   20.4072 N   0  0  0  0  0  0
  -31.8232  -14.6449   20.0978 O   0  0  0  0  0  0
  -21.6636   -6.8875   21.4235 O   0  0  0  0  0  0
  -22.3574  -14.5562   20.6706 O   0  0  0  0  0  0
  -24.6093  -31.8700   23.2116 C   0  0  0  0  0  0
  -25.9004  -32.4836   23.8401 C   0  0  1  0  0  0
  -27.2445  -27.4668   20.1024 C   0  0  0  0  0  0
  -25.5876  -33.8633   24.2334 N   0  0  0  0  0  0
  -23.3981  -30.4913   21.5486 C   0  0  2  0  0  0
  -24.8513  -28.9601   20.1134 C   0  0  0  0  0  0
  -22.7389  -29.4661   22.4987 C   0  0  0  0  0  0
  -18.0271  -28.1379   22.8495 C   0  0  0  0  0  0
  -24.1490  -36.7325   23.2641 C   0  0  0  0  0  0
  -25.9214  -30.8471   21.3602 C   0  0  0  0  0  0
  -26.0048  -29.4822   20.7112 C   0  0  0  0  0  0
  -27.2049  -28.7431   20.7059 C   0  0  0  0  0  0
  -26.0828  -26.9554   19.4896 C   0  0  0  0  0  0
  -24.8833  -27.6943   19.4993 C   0  0  0  0  0  0
  -23.6085  -29.8193   20.1638 C   0  0  0  0  0  0
  -25.4107  -36.3116   24.0340 C   0  0  1  0  0  0
  -20.5859  -28.3659   23.1328 C   0  0  2  0  0  0
  -20.6758  -26.9397   22.5420 C   0  0  0  0  0  0
  -19.5739  -26.6388   21.5211 C   0  0  0  0  0  0
  -18.1920  -26.7931   22.1624 C   0  0  0  0  0  0
  -19.1523  -28.8837   23.2914 C   0  0  0  0  0  0
  -18.9450  -30.1447   23.8920 C   0  0  0  0  0  0
  -17.6455  -30.6590   24.0571 C   0  0  0  0  0  0
  -25.9023  -34.9480   23.5132 C   0  0  0  0  0  0
  -16.5344  -29.9095   23.6329 C   0  0  0  0  0  0
  -16.7264  -28.6512   23.0345 C   0  0  0  0  0  0
  -26.4469  -31.6601   25.0705 C   0  0  0  0  0  0
  -25.3775  -31.3695   26.1486 C   0  0  0  0  0  0
  -27.0294  -30.3052   24.6051 C   0  0  0  0  0  0
  -27.6056  -32.4326   25.7439 C   0  0  0  0  0  0
  -27.5596  -37.1786   24.8454 C   0  0  0  0  0  0
  -21.4121  -29.3027   22.3729 N   0  0  0  0  0  0
  -26.4303  -37.3792   23.9407 N   0  0  0  0  0  0
  -24.6603  -31.0834   22.0993 N   0  0  0  0  0  0
  -23.4182  -28.8199   23.3013 O   0  0  0  0  0  0
  -28.3847  -26.7024   20.1127 O   0  0  0  0  0  0
  -26.5581  -34.8922   22.4692 O   0  0  0  0  0  0
  -23.5293  -32.1422   23.7532 O   0  0  0  0  0  0
  -31.6336  -19.4568   19.6116 C   0  0  0  0  0  0
  -30.2218  -20.4116   21.3582 C   0  0  0  0  0  0
  -31.5408  -20.8001   18.8640 C   0  0  0  0  0  0
  -30.1557  -21.7287   20.5458 C   0  0  1  0  0  0
  -31.4159  -26.9290   19.7634 C   0  0  0  0  0  0
  -31.5347  -27.4596   22.2327 C   0  0  0  0  0  0
  -30.0382  -22.9779   21.4421 C   0  0  0  0  0  0
  -29.9577  -16.7906   20.2591 C   0  0  0  0  0  0
  -30.4430  -17.9287   21.1796 C   0  0  0  0  0  0
  -28.7134  -26.2330   21.4222 C   0  0  0  0  0  0
  -31.3354  -26.3479   21.1875 C   0  0  0  0  0  0
  -30.0707  -25.4899   21.4757 C   0  0  2  0  0  0
  -29.8968  -15.4671   20.8911 N   0  0  0  0  0  0
  -30.4354  -19.2391   20.4658 N   0  3  2  0  0  0
  -30.0523  -24.2454   20.6601 N   0  3  0  0  0  0
  -31.3649  -21.8640   19.8006 O   0  0  0  0  0  0
  -31.4728  -12.3647   19.1313 H   0  0  0  0  0  0
  -30.3106  -11.2613   19.8153 H   0  0  0  0  0  0
  -29.7331  -11.7767   17.4234 H   0  0  0  0  0  0
  -29.6795  -13.4825   17.7824 H   0  0  0  0  0  0
  -27.8141  -11.3106   18.8014 H   0  0  0  0  0  0
  -27.3719  -12.6581   17.7868 H   0  0  0  0  0  0
  -27.7140  -14.2473   19.5872 H   0  0  0  0  0  0
  -28.6685  -11.9276   21.3418 H   0  0  0  0  0  0
  -28.4807  -13.5667   21.8827 H   0  0  0  0  0  0
  -25.2760   -9.5693   22.4746 H   0  0  0  0  0  0
  -24.0002   -7.4633   22.7469 H   0  0  0  0  0  0
  -21.0829   -8.8778   19.8946 H   0  0  0  0  0  0
  -22.3688  -10.9682   19.6150 H   0  0  0  0  0  0
  -21.2007   -7.6139   23.9710 H   0  0  0  0  0  0
  -21.1482   -6.0513   25.9077 H   0  0  0  0  0  0
  -22.0597   -2.7595   23.2849 H   0  0  0  0  0  0
  -22.4115  -11.9898   22.4793 H   0  0  0  0  0  0
  -21.1125  -13.1274   22.2581 H   0  0  0  0  0  0
  -24.6681  -15.8415   20.5066 H   0  0  0  0  0  0
  -26.2832  -15.6222   20.0656 H   0  0  0  0  0  0
  -26.7072  -32.5576   23.1166 H   0  0  0  0  0  0
  -25.0037  -33.9809   25.0484 H   0  0  0  0  0  0
  -22.6849  -31.3053   21.4063 H   0  0  0  0  0  0
  -23.3744  -35.9670   23.3321 H   0  0  0  0  0  0
  -24.3583  -36.8922   22.2054 H   0  0  0  0  0  0
  -23.7257  -37.6541   23.6645 H   0  0  0  0  0  0
  -26.0252  -31.6135   20.5911 H   0  0  0  0  0  0
  -26.8123  -30.9062   21.9736 H   0  0  0  0  0  0
  -28.0956  -29.1489   21.1655 H   0  0  0  0  0  0
  -26.1045  -25.9822   19.0197 H   0  0  0  0  0  0
  -23.9955  -27.2866   19.0357 H   0  0  0  0  0  0
  -23.7095  -30.5907   19.4004 H   0  0  0  0  0  0
  -22.7369  -29.2320   19.8716 H   0  0  0  0  0  0
  -25.1281  -36.1984   25.0835 H   0  0  0  0  0  0
  -20.9958  -28.3228   24.1448 H   0  0  0  0  0  0
  -20.5656  -26.2269   23.3605 H   0  0  0  0  0  0
  -21.6629  -26.7435   22.1215 H   0  0  0  0  0  0
  -19.6895  -25.6302   21.1237 H   0  0  0  0  0  0
  -19.6689  -27.3205   20.6748 H   0  0  0  0  0  0
  -17.4188  -26.6692   21.4030 H   0  0  0  0  0  0
  -18.0318  -26.0073   22.9018 H   0  0  0  0  0  0
  -19.7927  -30.7260   24.2292 H   0  0  0  0  0  0
  -17.5010  -31.6265   24.5166 H   0  0  0  0  0  0
  -15.5350  -30.2993   23.7642 H   0  0  0  0  0  0
  -15.8667  -28.0837   22.7031 H   0  0  0  0  0  0
  -24.5925  -30.7059   25.7842 H   0  0  0  0  0  0
  -24.8995  -32.2847   26.4993 H   0  0  0  0  0  0
  -25.8167  -30.8830   27.0205 H   0  0  0  0  0  0
  -26.2813  -29.6807   24.1152 H   0  0  0  0  0  0
  -27.4114  -29.7293   25.4489 H   0  0  0  0  0  0
  -27.8632  -30.4375   23.9150 H   0  0  0  0  0  0
  -27.2669  -33.3598   26.2075 H   0  0  0  0  0  0
  -28.3824  -32.6935   25.0236 H   0  0  0  0  0  0
  -28.0779  -31.8428   26.5302 H   0  0  0  0  0  0
  -28.2613  -38.0080   24.7494 H   0  0  0  0  0  0
  -28.1082  -36.2612   24.6269 H   0  0  0  0  0  0
  -27.2323  -37.1432   25.8860 H   0  0  0  0  0  0
  -20.9261  -29.8765   21.6968 H   0  0  0  0  0  0
  -26.0202  -38.2870   24.1431 H   0  0  0  0  0  0
  -32.5336  -19.4446   20.2293 H   0  0  0  0  0  0
  -31.7444  -18.6497   18.8871 H   0  0  0  0  0  0
  -29.2943  -20.2864   21.9182 H   0  0  0  0  0  0
  -31.0294  -20.4669   22.0898 H   0  0  0  0  0  0
  -30.7266  -20.7882   18.1369 H   0  0  0  0  0  0
  -32.4577  -20.9741   18.2996 H   0  0  0  0  0  0
  -29.3040  -21.7014   19.8634 H   0  0  0  0  0  0
  -32.3783  -27.4165   19.6030 H   0  0  0  0  0  0
  -30.6463  -27.6797   19.5820 H   0  0  0  0  0  0
  -31.3190  -26.1590   18.9983 H   0  0  0  0  0  0
  -32.5029  -27.9455   22.1073 H   0  0  0  0  0  0
  -31.5058  -27.0629   23.2482 H   0  0  0  0  0  0
  -30.7725  -28.2358   22.1557 H   0  0  0  0  0  0
  -30.8698  -22.9819   22.1476 H   0  0  0  0  0  0
  -29.1220  -22.9248   22.0305 H   0  0  0  0  0  0
  -30.5677  -16.7468   19.3560 H   0  0  0  0  0  0
  -28.9468  -17.0139   19.9151 H   0  0  0  0  0  0
  -31.4386  -17.7187   21.5738 H   0  0  0  0  0  0
  -29.7759  -17.9776   22.0411 H   0  0  0  0  0  0
  -28.7305  -27.0551   22.1381 H   0  0  0  0  0  0
  -27.9211  -25.5614   21.7604 H   0  0  0  0  0  0
  -32.1935  -25.6827   21.3013 H   0  0  0  0  0  0
  -30.1711  -25.1796   22.5179 H   0  0  0  0  0  0
  -29.0064  -15.2028   21.2859 H   0  0  0  0  0  0
  -29.6325  -19.2062   19.8519 H   0  0  0  0  0  0
  -29.2637  -24.2822   20.0296 H   0  0  0  0  0  0
  -30.8824  -24.2270   20.0869 H   0  0  0  0  0  0
  1 25  1  0  0  0
  1 30  2  0  0  0
  1 83  1  0  0  0
  2  3  1  0  0  0
  2 25  1  0  0  0
  2 87  1  0  0  0
  2 88  1  0  0  0
  3  4  1  0  0  0
  3 89  1  0  0  0
  3 90  1  0  0  0
  4  5  1  0  0  0
  4 91  1  0  0  0
  4 92  1  0  0  0
  5  6  1  0  0  0
  5 26  1  0  0  0
  5 93  1  0  0  0
  6 25  1  0  0  0
  6 94  1  0  0  0
  6 95  1  0  0  0
  7  8  2  0  0  0
  7 26  1  0  0  0
  7 29  1  0  0  0
  8  9  1  0  0  0
  8 22  1  0  0  0
  9 10  1  0  0  0
  9 27  2  0  0  0
 10 11  2  0  0  0
 10 15  1  0  0  0
 11 12  1  0  0  0
 11 96  1  0  0  0
 12 13  2  0  0  0
 12 97  1  0  0  0
 13 14  1  0  0  0
 13 31  1  0  0  0
 14 15  2  0  0  0
 14 98  1  0  0  0
 15 99  1  0  0  0
 16 17  2  0  0  0
 16 21  1  0  0  0
 16 31  1  0  0  0
 17 18  1  0  0  0
 17100  1  0  0  0
 18 19  2  0  0  0
 18101  1  0  0  0
 19 20  1  0  0  0
 19 24  1  0  0  0
 20 21  2  0  0  0
 20102  1  0  0  0
 21 23  1  0  0  0
 22 28  1  0  0  0
 22 32  2  0  0  0
 26 27  1  0  0  0
 28103  1  0  0  0
 28104  1  0  0  0
 29105  1  0  0  0
 29106  1  0  0  0
 33 34  1  0  0  0
 33 66  1  0  0  0
 33 70  2  0  0  0
 34 36  1  0  0  0
 34 59  1  0  0  0
 34107  1  0  0  0
 35 44  2  0  0  0
 35 45  1  0  0  0
 35 68  1  0  0  0
 36 56  1  0  0  0
 36108  1  0  0  0
 37 39  1  0  0  0
 37 47  1  0  0  0
 37 66  1  0  0  0
 37109  1  0  0  0
 38 43  2  0  0  0
 38 46  1  0  0  0
 38 47  1  0  0  0
 39 64  1  0  0  0
 39 67  2  0  0  0
 40 52  1  0  0  0
 40 53  2  0  0  0
 40 58  1  0  0  0
 41110  1  0  0  0
 41111  1  0  0  0
 41112  1  0  0  0
 41 48  1  0  0  0
 42 43  1  0  0  0
 42 66  1  0  0  0
 42113  1  0  0  0
 42114  1  0  0  0
 43 44  1  0  0  0
 44115  1  0  0  0
 45 46  2  0  0  0
 45116  1  0  0  0
 46117  1  0  0  0
 47118  1  0  0  0
 47119  1  0  0  0
 48 56  1  0  0  0
 48 65  1  0  0  0
 48120  1  0  0  0
 49 50  1  0  0  0
 49 53  1  0  0  0
 49 64  1  0  0  0
 49121  1  0  0  0
 50 51  1  0  0  0
 50122  1  0  0  0
 50123  1  0  0  0
 51 52  1  0  0  0
 51124  1  0  0  0
 51125  1  0  0  0
 52126  1  0  0  0
 52127  1  0  0  0
 53 54  1  0  0  0
 54 55  2  0  0  0
 54128  1  0  0  0
 55 57  1  0  0  0
 55129  1  0  0  0
 56 69  2  0  0  0
 57 58  2  0  0  0
 57130  1  0  0  0
 58131  1  0  0  0
 59 60  1  0  0  0
 59 61  1  0  0  0
 59 62  1  0  0  0
 60132  1  0  0  0
 60133  1  0  0  0
 60134  1  0  0  0
 61135  1  0  0  0
 61136  1  0  0  0
 61137  1  0  0  0
 62138  1  0  0  0
 62139  1  0  0  0
 62140  1  0  0  0
 63 65  1  0  0  0
 63141  1  0  0  0
 63142  1  0  0  0
 63143  1  0  0  0
 64144  1  0  0  0
 65145  1  0  0  0
 68 80  1  0  0  0
 71 73  1  0  0  0
 71 84  1  0  0  0
 71146  1  0  0  0
 71147  1  0  0  0
 72 74  1  0  0  0
 72 84  1  0  0  0
 72148  1  0  0  0
 72149  1  0  0  0
 73 86  1  0  0  0
 73150  1  0  0  0
 73151  1  0  0  0
 74 77  1  0  0  0
 74 86  1  0  0  0
 74152  1  0  0  0
 75153  1  0  0  0
 75154  1  0  0  0
 75155  1  0  0  0
 75 81  1  0  0  0
 76 81  1  0  0  0
 76156  1  0  0  0
 76157  1  0  0  0
 76158  1  0  0  0
 77 85  1  0  0  0
 77159  1  0  0  0
 77160  1  0  0  0
 78 79  1  0  0  0
 78 83  1  0  0  0
 78161  1  0  0  0
 78162  1  0  0  0
 79163  1  0  0  0
 79164  1  0  0  0
 79 84  1  0  0  0
 80165  1  0  0  0
 80166  1  0  0  0
 80 82  1  0  0  0
 81 82  1  0  0  0
 81167  1  0  0  0
 82 85  1  0  0  0
 82168  1  0  0  0
 83169  1  0  0  0
 84170  1  0  0  0
 85171  1  0  0  0
 85172  1  0  0  0
M  CHG  2  84   1  85   1
M  ISO  4   1 100  68 101  80 101  83 100
M  END
> <chiral flag>
0

> <version>
0

> <s_m_source_file>
/data/baiqing/PycharmProjects/Reinvent-master-3.2/result/LINK_invent/BTK/process_docking_weight1_custom_sum_contain_oxygen_bond_distance_aromatic_linkinvent_7_9_3/rearranged_h_0133.sdf

> <i_m_source_file_index>
16

> <r_mmod_Potential_Energy-OPLS-2005>
-272.988830566406

> <r_mmod_Stretch_Energy-OPLS-2005>
35.6274261474609

> <r_mmod_Bend_Energy-OPLS-2005>
95.4244689941406

> <r_mmod_Torsional_Energy-OPLS-2005>
299.990264892578

> <r_mmod_Improper_Torsional_Energy-OPLS-2005>
8.61998081207275

> <r_mmod_Van_der_Waal_Energy-OPLS-2005>
136.149261474609

> <r_mmod_Electrostatic_Energy-OPLS-2005>
66.9302444458008

> <r_mmod_Solvation_Energy-OPLS-2005>
-926.467712402344

> <b_mmod_Minimization_Converged-OPLS-2005>
0

> <r_mmod_RMS_Derivative-OPLS-2005>
1.59850203990936

$$$$
16
                    3D
 Structure written by MMmdl.
169178  0  0  1  0            999 V2000
  -30.6890  -14.5390   20.5153 C   0  0  0  0  0  0
  -30.4201  -12.3338   19.4424 C   0  0  0  0  0  0
  -29.5017  -12.4932   18.2139 C   0  0  0  0  0  0
  -28.0217  -12.3559   18.6217 C   0  0  0  0  0  0
  -27.6546  -13.2166   19.8620 C   0  0  2  0  0  0
  -28.6971  -13.0543   20.9914 C   0  0  0  0  0  0
  -25.2568  -13.8184   20.5688 C   0  0  0  0  0  0
  -24.1830  -13.0460   20.9202 C   0  0  0  0  0  0
  -24.6395  -11.6931   20.8747 C   0  0  0  0  0  0
  -23.9065  -10.4318   21.0397 C   0  0  0  0  0  0
  -24.3612   -9.4237   21.9176 C   0  0  0  0  0  0
  -23.6295   -8.2267   22.0750 C   0  0  0  0  0  0
  -22.4280   -8.0298   21.3536 C   0  0  0  0  0  0
  -21.9918   -9.0276   20.4641 C   0  0  0  0  0  0
  -22.7244  -10.2154   20.3042 C   0  0  0  0  0  0
  -21.6867   -6.0753   22.5284 C   0  0  0  0  0  0
  -21.4037   -6.5652   23.8223 C   0  0  0  0  0  0
  -21.3651   -5.6792   24.9175 C   0  0  0  0  0  0
  -21.6036   -4.3056   24.7216 C   0  0  0  0  0  0
  -21.8816   -3.8156   23.4335 C   0  0  0  0  0  0
  -21.9203   -4.6981   22.3399 C   0  0  0  0  0  0
  -22.7848  -13.5260   21.1832 C   0  0  0  0  0  0
  -22.1660   -4.2166   21.0974 F   0  0  0  0  0  0
  -21.5611   -3.4534   25.7720 F   0  0  0  0  0  0
  -30.0200  -13.3551   20.4258 N   0  0  0  0  0  0
  -26.2993  -12.9361   20.3308 N   0  0  0  0  0  0
  -25.9322  -11.6519   20.5754 N   0  0  0  0  0  0
  -22.0451  -12.8281   22.0373 N   0  0  0  0  0  0
  -25.4294  -15.1907   20.4085 N   0  0  0  0  0  0
  -31.8517  -14.6662   20.1245 O   0  0  0  0  0  0
  -21.6646   -6.8892   21.4240 O   0  0  0  0  0  0
  -22.3554  -14.5567   20.6666 O   0  0  0  0  0  0
  -24.6198  -31.8640   23.2078 C   0  0  0  0  0  0
  -25.9076  -32.4805   23.8376 C   0  0  1  0  0  0
  -27.2355  -27.3978   20.0891 C   0  0  0  0  0  0
  -25.5916  -33.8603   24.2310 N   0  0  0  0  0  0
  -23.4086  -30.4874   21.5500 C   0  0  2  0  0  0
  -24.8528  -28.9476   20.1162 C   0  0  0  0  0  0
  -22.7434  -29.4636   22.4986 C   0  0  0  0  0  0
  -18.0275  -28.1380   22.8493 C   0  0  0  0  0  0
  -24.1478  -36.7301   23.2641 C   0  0  0  0  0  0
  -25.9407  -30.8192   21.3634 C   0  0  0  0  0  0
  -26.0160  -29.4502   20.7107 C   0  0  0  0  0  0
  -27.2069  -28.6821   20.6950 C   0  0  0  0  0  0
  -26.0391  -26.9094   19.5146 C   0  0  0  0  0  0
  -24.8601  -27.6772   19.5186 C   0  0  0  0  0  0
  -23.6177  -29.8189   20.1652 C   0  0  0  0  0  0
  -25.4103  -36.3100   24.0332 C   0  0  1  0  0  0
  -20.5869  -28.3660   23.1320 C   0  0  2  0  0  0
  -20.6762  -26.9394   22.5422 C   0  0  0  0  0  0
  -19.5739  -26.6385   21.5219 C   0  0  0  0  0  0
  -18.1919  -26.7928   22.1631 C   0  0  0  0  0  0
  -19.1527  -28.8840   23.2905 C   0  0  0  0  0  0
  -18.9454  -30.1445   23.8915 C   0  0  0  0  0  0
  -17.6455  -30.6585   24.0572 C   0  0  0  0  0  0
  -25.9032  -34.9468   23.5117 C   0  0  0  0  0  0
  -16.5345  -29.9090   23.6323 C   0  0  0  0  0  0
  -16.7266  -28.6510   23.0341 C   0  0  0  0  0  0
  -26.4491  -31.6608   25.0725 C   0  0  0  0  0  0
  -25.3755  -31.3730   26.1477 C   0  0  0  0  0  0
  -27.0330  -30.3051   24.6117 C   0  0  0  0  0  0
  -27.6052  -32.4346   25.7496 C   0  0  0  0  0  0
  -27.5571  -37.1803   24.8465 C   0  0  0  0  0  0
  -21.4163  -29.3023   22.3733 N   0  0  0  0  0  0
  -26.4285  -37.3791   23.9413 N   0  0  0  0  0  0
  -24.6752  -31.0717   22.0987 N   0  0  0  0  0  0
  -23.4195  -28.8179   23.3046 O   0  0  0  0  0  0
  -28.4163  -26.6667   20.1084 O   0  0  0  0  0  0
  -26.5587  -34.8925   22.4671 O   0  0  0  0  0  0
  -23.5385  -32.1394   23.7458 O   0  0  0  0  0  0
  -28.5202  -24.0889   19.9277 C   0  0  0  0  0  0
  -29.7606  -23.9585   16.9283 C   0  0  0  0  0  0
  -30.0796  -26.3027   17.3044 C   0  0  0  0  0  0
  -30.3673  -24.1298   18.3386 C   0  0  1  0  0  0
  -30.0078  -25.5767   18.6587 C   0  0  2  0  0  0
  -29.7817  -23.2679   19.4899 C   0  0  2  0  0  0
  -28.5980  -25.5061   19.2618 C   0  0  2  0  0  0
  -30.9830  -21.1940   18.5198 C   0  0  0  0  0  0
  -30.4874  -17.0296   20.7822 C   0  0  0  0  0  0
  -29.4362  -18.1920   20.6881 C   0  0  0  0  0  0
  -29.2331  -20.7615   20.3634 C   0  0  0  0  0  0
  -29.6742  -21.7128   19.1770 C   0  0  1  0  0  0
  -29.9672  -15.6364   20.8537 N   0  0  0  0  0  0
  -29.8882  -25.2702   16.2673 N   0  3  0  0  0  0
  -30.0857  -19.5356   20.5384 N   0  3  0  0  0  0
  -31.4662  -12.4265   19.1451 H   0  0  0  0  0  0
  -30.3191  -11.3353   19.8709 H   0  0  0  0  0  0
  -29.7535  -11.7496   17.4557 H   0  0  0  0  0  0
  -29.6678  -13.4687   17.7542 H   0  0  0  0  0  0
  -27.8379  -11.3031   18.8370 H   0  0  0  0  0  0
  -27.3755  -12.6076   17.7790 H   0  0  0  0  0  0
  -27.6813  -14.2569   19.5369 H   0  0  0  0  0  0
  -28.6830  -12.0351   21.3808 H   0  0  0  0  0  0
  -28.4627  -13.7009   21.8384 H   0  0  0  0  0  0
  -25.2742   -9.5738   22.4765 H   0  0  0  0  0  0
  -24.0013   -7.4670   22.7477 H   0  0  0  0  0  0
  -21.0853   -8.8802   19.8951 H   0  0  0  0  0  0
  -22.3699  -10.9696   19.6158 H   0  0  0  0  0  0
  -21.2045   -7.6161   23.9742 H   0  0  0  0  0  0
  -21.1461   -6.0507   25.9078 H   0  0  0  0  0  0
  -22.0600   -2.7623   23.2826 H   0  0  0  0  0  0
  -22.4028  -11.9973   22.4843 H   0  0  0  0  0  0
  -21.1051  -13.1327   22.2470 H   0  0  0  0  0  0
  -24.6646  -15.8473   20.5222 H   0  0  0  0  0  0
  -26.2703  -15.6246   20.0501 H   0  0  0  0  0  0
  -26.7149  -32.5504   23.1141 H   0  0  0  0  0  0
  -25.0126  -33.9754   25.0494 H   0  0  0  0  0  0
  -22.6994  -31.3053   21.4097 H   0  0  0  0  0  0
  -23.3738  -35.9634   23.3314 H   0  0  0  0  0  0
  -24.3571  -36.8907   22.2052 H   0  0  0  0  0  0
  -23.7222  -37.6506   23.6650 H   0  0  0  0  0  0
  -26.0537  -31.5824   20.5920 H   0  0  0  0  0  0
  -26.8283  -30.8750   21.9817 H   0  0  0  0  0  0
  -28.1063  -29.0693   21.1530 H   0  0  0  0  0  0
  -25.9773  -25.9235   19.0783 H   0  0  0  0  0  0
  -23.9610  -27.2760   19.0730 H   0  0  0  0  0  0
  -23.7295  -30.5910   19.4034 H   0  0  0  0  0  0
  -22.7412  -29.2398   19.8705 H   0  0  0  0  0  0
  -25.1282  -36.1960   25.0824 H   0  0  0  0  0  0
  -20.9958  -28.3216   24.1443 H   0  0  0  0  0  0
  -20.5668  -26.2260   23.3606 H   0  0  0  0  0  0
  -21.6631  -26.7437   22.1211 H   0  0  0  0  0  0
  -19.6891  -25.6301   21.1232 H   0  0  0  0  0  0
  -19.6677  -27.3211   20.6763 H   0  0  0  0  0  0
  -17.4190  -26.6683   21.4032 H   0  0  0  0  0  0
  -18.0314  -26.0066   22.9026 H   0  0  0  0  0  0
  -19.7931  -30.7260   24.2288 H   0  0  0  0  0  0
  -17.5011  -31.6263   24.5183 H   0  0  0  0  0  0
  -15.5347  -30.3000   23.7637 H   0  0  0  0  0  0
  -15.8666  -28.0844   22.7027 H   0  0  0  0  0  0
  -24.5919  -30.7082   25.7832 H   0  0  0  0  0  0
  -24.8960  -32.2895   26.4926 H   0  0  0  0  0  0
  -25.8110  -30.8910   27.0238 H   0  0  0  0  0  0
  -26.2876  -29.6804   24.1182 H   0  0  0  0  0  0
  -27.4116  -29.7305   25.4580 H   0  0  0  0  0  0
  -27.8705  -30.4379   23.9262 H   0  0  0  0  0  0
  -27.2652  -33.3643   26.2075 H   0  0  0  0  0  0
  -28.3864  -32.6913   25.0330 H   0  0  0  0  0  0
  -28.0717  -31.8475   26.5419 H   0  0  0  0  0  0
  -28.2602  -38.0091   24.7521 H   0  0  0  0  0  0
  -28.1056  -36.2623   24.6289 H   0  0  0  0  0  0
  -27.2293  -37.1456   25.8872 H   0  0  0  0  0  0
  -20.9328  -29.8751   21.6952 H   0  0  0  0  0  0
  -26.0169  -38.2866   24.1427 H   0  0  0  0  0  0
  -28.4772  -24.1765   21.0146 H   0  0  0  0  0  0
  -27.6024  -23.5883   19.6182 H   0  0  0  0  0  0
  -28.7024  -23.7027   16.9948 H   0  0  0  0  0  0
  -30.2415  -23.1851   16.3310 H   0  0  0  0  0  0
  -31.0671  -26.7436   17.1674 H   0  0  0  0  0  0
  -29.3493  -27.1086   17.2176 H   0  0  0  0  0  0
  -31.4523  -24.0264   18.2777 H   0  0  0  0  0  0
  -30.7049  -26.0035   19.3816 H   0  0  0  0  0  0
  -30.4916  -23.3620   20.3137 H   0  0  0  0  0  0
  -27.9087  -25.5186   18.4193 H   0  0  0  0  0  0
  -31.2641  -21.7458   17.6279 H   0  0  0  0  0  0
  -30.8865  -20.1627   18.1773 H   0  0  0  0  0  0
  -31.8320  -21.2570   19.2026 H   0  0  0  0  0  0
  -31.1224  -17.1870   21.6563 H   0  0  0  0  0  0
  -31.1474  -17.1108   19.9156 H   0  0  0  0  0  0
  -28.8040  -18.1969   21.5764 H   0  0  0  0  0  0
  -28.7795  -18.0241   19.8339 H   0  0  0  0  0  0
  -28.1956  -20.4623   20.2089 H   0  0  0  0  0  0
  -29.2410  -21.3110   21.3052 H   0  0  0  0  0  0
  -28.9022  -21.6091   18.4125 H   0  0  0  0  0  0
  -29.0043  -15.4979   21.1238 H   0  0  0  0  0  0
  -29.0739  -25.4617   15.7055 H   0  0  0  0  0  0
  -30.6893  -25.2687   15.6567 H   0  0  0  0  0  0
  -30.6796  -19.5022   19.7258 H   0  0  0  0  0  0
  -30.6867  -19.6900   21.3327 H   0  0  0  0  0  0
  1 25  1  0  0  0
  1 30  2  0  0  0
  1 83  1  0  0  0
  2  3  1  0  0  0
  2 25  1  0  0  0
  2 86  1  0  0  0
  2 87  1  0  0  0
  3  4  1  0  0  0
  3 88  1  0  0  0
  3 89  1  0  0  0
  4  5  1  0  0  0
  4 90  1  0  0  0
  4 91  1  0  0  0
  5  6  1  0  0  0
  5 26  1  0  0  0
  5 92  1  0  0  0
  6 25  1  0  0  0
  6 93  1  0  0  0
  6 94  1  0  0  0
  7  8  2  0  0  0
  7 26  1  0  0  0
  7 29  1  0  0  0
  8  9  1  0  0  0
  8 22  1  0  0  0
  9 10  1  0  0  0
  9 27  2  0  0  0
 10 11  2  0  0  0
 10 15  1  0  0  0
 11 12  1  0  0  0
 11 95  1  0  0  0
 12 13  2  0  0  0
 12 96  1  0  0  0
 13 14  1  0  0  0
 13 31  1  0  0  0
 14 15  2  0  0  0
 14 97  1  0  0  0
 15 98  1  0  0  0
 16 17  2  0  0  0
 16 21  1  0  0  0
 16 31  1  0  0  0
 17 18  1  0  0  0
 17 99  1  0  0  0
 18 19  2  0  0  0
 18100  1  0  0  0
 19 20  1  0  0  0
 19 24  1  0  0  0
 20 21  2  0  0  0
 20101  1  0  0  0
 21 23  1  0  0  0
 22 28  1  0  0  0
 22 32  2  0  0  0
 26 27  1  0  0  0
 28102  1  0  0  0
 28103  1  0  0  0
 29104  1  0  0  0
 29105  1  0  0  0
 33 34  1  0  0  0
 33 66  1  0  0  0
 33 70  2  0  0  0
 34 36  1  0  0  0
 34 59  1  0  0  0
 34106  1  0  0  0
 35 44  2  0  0  0
 35 45  1  0  0  0
 35 68  1  0  0  0
 36 56  1  0  0  0
 36107  1  0  0  0
 37 39  1  0  0  0
 37 47  1  0  0  0
 37 66  1  0  0  0
 37108  1  0  0  0
 38 43  2  0  0  0
 38 46  1  0  0  0
 38 47  1  0  0  0
 39 64  1  0  0  0
 39 67  2  0  0  0
 40 52  1  0  0  0
 40 53  2  0  0  0
 40 58  1  0  0  0
 41109  1  0  0  0
 41110  1  0  0  0
 41111  1  0  0  0
 41 48  1  0  0  0
 42 43  1  0  0  0
 42 66  1  0  0  0
 42112  1  0  0  0
 42113  1  0  0  0
 43 44  1  0  0  0
 44114  1  0  0  0
 45 46  2  0  0  0
 45115  1  0  0  0
 46116  1  0  0  0
 47117  1  0  0  0
 47118  1  0  0  0
 48 56  1  0  0  0
 48 65  1  0  0  0
 48119  1  0  0  0
 49 50  1  0  0  0
 49 53  1  0  0  0
 49 64  1  0  0  0
 49120  1  0  0  0
 50 51  1  0  0  0
 50121  1  0  0  0
 50122  1  0  0  0
 51 52  1  0  0  0
 51123  1  0  0  0
 51124  1  0  0  0
 52125  1  0  0  0
 52126  1  0  0  0
 53 54  1  0  0  0
 54 55  2  0  0  0
 54127  1  0  0  0
 55 57  1  0  0  0
 55128  1  0  0  0
 56 69  2  0  0  0
 57 58  2  0  0  0
 57129  1  0  0  0
 58130  1  0  0  0
 59 60  1  0  0  0
 59 61  1  0  0  0
 59 62  1  0  0  0
 60131  1  0  0  0
 60132  1  0  0  0
 60133  1  0  0  0
 61134  1  0  0  0
 61135  1  0  0  0
 61136  1  0  0  0
 62137  1  0  0  0
 62138  1  0  0  0
 62139  1  0  0  0
 63 65  1  0  0  0
 63140  1  0  0  0
 63141  1  0  0  0
 63142  1  0  0  0
 64143  1  0  0  0
 65144  1  0  0  0
 68 77  1  0  0  0
 71 77  1  0  0  0
 71145  1  0  0  0
 71146  1  0  0  0
 71 76  1  0  0  0
 72 84  1  0  0  0
 72147  1  0  0  0
 72148  1  0  0  0
 72 74  1  0  0  0
 73 84  1  0  0  0
 73149  1  0  0  0
 73150  1  0  0  0
 73 75  1  0  0  0
 74 75  1  0  0  0
 74 76  1  0  0  0
 74151  1  0  0  0
 75 77  1  0  0  0
 75152  1  0  0  0
 76 82  1  0  0  0
 76153  1  0  0  0
 77154  1  0  0  0
 78155  1  0  0  0
 78156  1  0  0  0
 78157  1  0  0  0
 78 82  1  0  0  0
 79 80  1  0  0  0
 79 83  1  0  0  0
 79158  1  0  0  0
 79159  1  0  0  0
 80 85  1  0  0  0
 80160  1  0  0  0
 80161  1  0  0  0
 81 82  1  0  0  0
 81 85  1  0  0  0
 81162  1  0  0  0
 81163  1  0  0  0
 82164  1  0  0  0
 83165  1  0  0  0
 84166  1  0  0  0
 84167  1  0  0  0
 85168  1  0  0  0
 85169  1  0  0  0
M  CHG  2  84   1  85   1
M  ISO  4   1 100  68 101  77 101  83 100
M  END
> <chiral flag>
0

> <version>
0

> <s_m_source_file>
/data/baiqing/PycharmProjects/Reinvent-master-3.2/result/LINK_invent/BTK/process_docking_weight1_custom_sum_contain_oxygen_bond_distance_aromatic_linkinvent_7_9_3/rearranged_h_0133.sdf

> <i_m_source_file_index>
17

> <r_mmod_Potential_Energy-OPLS-2005>
-209.212356567383

> <r_mmod_Stretch_Energy-OPLS-2005>
54.2457618713379

> <r_mmod_Bend_Energy-OPLS-2005>
172.325256347656

> <r_mmod_Torsional_Energy-OPLS-2005>
365.453491210938

> <r_mmod_Improper_Torsional_Energy-OPLS-2005>
4.64644145965576

> <r_mmod_Van_der_Waal_Energy-OPLS-2005>
135.00895690918

> <r_mmod_Electrostatic_Energy-OPLS-2005>
-25.3166942596436

> <r_mmod_Solvation_Energy-OPLS-2005>
-938.098693847656

> <b_mmod_Minimization_Converged-OPLS-2005>
0

> <r_mmod_RMS_Derivative-OPLS-2005>
1.79745936393738

$$$$
17
                    3D
 Structure written by MMmdl.
156164  0  0  1  0            999 V2000
  -30.7086  -14.4625   20.5118 C   0  0  0  0  0  0
  -30.4105  -12.2818   19.4387 C   0  0  0  0  0  0
  -29.4956  -12.4957   18.2147 C   0  0  0  0  0  0
  -28.0126  -12.3753   18.6177 C   0  0  0  0  0  0
  -27.6581  -13.2156   19.8750 C   0  0  2  0  0  0
  -28.6993  -13.0146   21.0010 C   0  0  0  0  0  0
  -25.2560  -13.8200   20.5707 C   0  0  0  0  0  0
  -24.1821  -13.0452   20.9199 C   0  0  0  0  0  0
  -24.6400  -11.6929   20.8762 C   0  0  0  0  0  0
  -23.9080  -10.4302   21.0419 C   0  0  0  0  0  0
  -24.3633   -9.4208   21.9185 C   0  0  0  0  0  0
  -23.6307   -8.2246   22.0757 C   0  0  0  0  0  0
  -22.4286   -8.0287   21.3549 C   0  0  0  0  0  0
  -21.9928   -9.0266   20.4652 C   0  0  0  0  0  0
  -22.7266  -10.2143   20.3059 C   0  0  0  0  0  0
  -21.6845   -6.0751   22.5293 C   0  0  0  0  0  0
  -21.4013   -6.5655   23.8227 C   0  0  0  0  0  0
  -21.3656   -5.6805   24.9188 C   0  0  0  0  0  0
  -21.6036   -4.3071   24.7232 C   0  0  0  0  0  0
  -21.8814   -3.8162   23.4353 C   0  0  0  0  0  0
  -21.9191   -4.6978   22.3413 C   0  0  0  0  0  0
  -22.7840  -13.5240   21.1851 C   0  0  0  0  0  0
  -22.1656   -4.2166   21.0993 F   0  0  0  0  0  0
  -21.5626   -3.4550   25.7742 F   0  0  0  0  0  0
  -30.0327  -13.2859   20.4440 N   0  0  0  0  0  0
  -26.2999  -12.9382   20.3371 N   0  0  0  0  0  0
  -25.9325  -11.6535   20.5780 N   0  0  0  0  0  0
  -22.0487  -12.8215   22.0402 N   0  0  0  0  0  0
  -25.4277  -15.1919   20.4125 N   0  0  0  0  0  0
  -31.8857  -14.5746   20.1578 O   0  0  0  0  0  0
  -21.6632   -6.8896   21.4257 O   0  0  0  0  0  0
  -22.3519  -14.5542   20.6702 O   0  0  0  0  0  0
  -24.6128  -31.8704   23.2133 C   0  0  0  0  0  0
  -25.9027  -32.4836   23.8420 C   0  0  1  0  0  0
  -27.2243  -27.4343   20.0957 C   0  0  0  0  0  0
  -25.5894  -33.8637   24.2345 N   0  0  0  0  0  0
  -23.3997  -30.4976   21.5539 C   0  0  2  0  0  0
  -24.8460  -28.9734   20.1125 C   0  0  0  0  0  0
  -22.7393  -29.4680   22.4986 C   0  0  0  0  0  0
  -18.0267  -28.1371   22.8489 C   0  0  0  0  0  0
  -24.1488  -36.7319   23.2638 C   0  0  0  0  0  0
  -25.9308  -30.8373   21.3677 C   0  0  0  0  0  0
  -26.0081  -29.4746   20.7109 C   0  0  0  0  0  0
  -27.2025  -28.7149   20.6977 C   0  0  0  0  0  0
  -26.0417  -26.9608   19.4763 C   0  0  0  0  0  0
  -24.8592  -27.7174   19.4890 C   0  0  0  0  0  0
  -23.6066  -29.8360   20.1669 C   0  0  0  0  0  0
  -25.4112  -36.3123   24.0335 C   0  0  1  0  0  0
  -20.5855  -28.3658   23.1323 C   0  0  2  0  0  0
  -20.6761  -26.9397   22.5423 C   0  0  0  0  0  0
  -19.5749  -26.6383   21.5211 C   0  0  0  0  0  0
  -18.1921  -26.7919   22.1615 C   0  0  0  0  0  0
  -19.1515  -28.8831   23.2904 C   0  0  0  0  0  0
  -18.9445  -30.1435   23.8916 C   0  0  0  0  0  0
  -17.6454  -30.6583   24.0563 C   0  0  0  0  0  0
  -25.9038  -34.9487   23.5138 C   0  0  0  0  0  0
  -16.5342  -29.9084   23.6325 C   0  0  0  0  0  0
  -16.7259  -28.6496   23.0352 C   0  0  0  0  0  0
  -26.4458  -31.6606   25.0733 C   0  0  0  0  0  0
  -25.3728  -31.3685   26.1475 C   0  0  0  0  0  0
  -27.0288  -30.3057   24.6092 C   0  0  0  0  0  0
  -27.6046  -32.4310   25.7490 C   0  0  0  0  0  0
  -27.5580  -37.1819   24.8459 C   0  0  0  0  0  0
  -21.4121  -29.3037   22.3731 N   0  0  0  0  0  0
  -26.4299  -37.3805   23.9399 N   0  0  0  0  0  0
  -24.6661  -31.0818   22.1028 N   0  0  0  0  0  0
  -23.4181  -28.8210   23.3008 O   0  0  0  0  0  0
  -28.3715  -26.6616   20.1369 O   0  0  0  0  0  0
  -26.5605  -34.8929   22.4701 O   0  0  0  0  0  0
  -23.5324  -32.1453   23.7535 O   0  0  0  0  0  0
  -30.8421  -18.2259   18.2699 C   0  0  0  0  0  0
  -30.3330  -19.3719   18.8999 C   0  0  0  0  0  0
  -30.7296  -16.9712   18.8889 C   0  0  0  0  0  0
  -29.5909  -18.0019   20.7796 C   0  0  0  0  0  0
  -29.7036  -19.2774   20.1617 C   0  0  0  0  0  0
  -30.1160  -16.8379   20.1607 C   0  0  0  0  0  0
  -29.0913  -20.5161   20.8289 C   0  0  0  0  0  0
  -29.7126  -21.8964   20.4568 C   0  0  0  0  0  0
  -29.3793  -24.4022   20.6456 C   0  0  0  0  0  0
  -28.1280  -25.2616   20.3741 C   0  0  0  0  0  0
  -29.9660  -15.5543   20.7857 N   0  0  0  0  0  0
  -28.9840  -23.0297   21.0822 N   0  3  0  0  0  0
  -31.4590  -12.3538   19.1448 H   0  0  0  0  0  0
  -30.2832  -11.2776   19.8457 H   0  0  0  0  0  0
  -29.7298  -11.7684   17.4365 H   0  0  0  0  0  0
  -29.6799  -13.4797   17.7812 H   0  0  0  0  0  0
  -27.8021  -11.3218   18.8051 H   0  0  0  0  0  0
  -27.3736  -12.6677   17.7837 H   0  0  0  0  0  0
  -27.6953  -14.2615   19.5707 H   0  0  0  0  0  0
  -28.6605  -11.9895   21.3742 H   0  0  0  0  0  0
  -28.4782  -13.6516   21.8584 H   0  0  0  0  0  0
  -25.2780   -9.5676   22.4759 H   0  0  0  0  0  0
  -24.0015   -7.4634   22.7475 H   0  0  0  0  0  0
  -21.0863   -8.8807   19.8945 H   0  0  0  0  0  0
  -22.3746  -10.9693   19.6166 H   0  0  0  0  0  0
  -21.2005   -7.6163   23.9739 H   0  0  0  0  0  0
  -21.1476   -6.0531   25.9089 H   0  0  0  0  0  0
  -22.0589   -2.7622   23.2851 H   0  0  0  0  0  0
  -22.4105  -11.9876   22.4781 H   0  0  0  0  0  0
  -21.1100  -13.1224   22.2623 H   0  0  0  0  0  0
  -24.6628  -15.8483   20.5234 H   0  0  0  0  0  0
  -26.2806  -15.6292   20.0870 H   0  0  0  0  0  0
  -26.7091  -32.5558   23.1185 H   0  0  0  0  0  0
  -25.0028  -33.9806   25.0475 H   0  0  0  0  0  0
  -22.6869  -31.3139   21.4185 H   0  0  0  0  0  0
  -23.3751  -35.9650   23.3317 H   0  0  0  0  0  0
  -24.3576  -36.8920   22.2048 H   0  0  0  0  0  0
  -23.7242  -37.6528   23.6648 H   0  0  0  0  0  0
  -26.0436  -31.6054   20.6009 H   0  0  0  0  0  0
  -26.8180  -30.8893   21.9870 H   0  0  0  0  0  0
  -28.0952  -29.0952   21.1749 H   0  0  0  0  0  0
  -26.0011  -26.0098   18.9679 H   0  0  0  0  0  0
  -23.9682  -27.3327   19.0123 H   0  0  0  0  0  0
  -23.7077  -30.6116   19.4071 H   0  0  0  0  0  0
  -22.7314  -29.2527   19.8740 H   0  0  0  0  0  0
  -25.1290  -36.1997   25.0830 H   0  0  0  0  0  0
  -20.9943  -28.3230   24.1446 H   0  0  0  0  0  0
  -20.5659  -26.2266   23.3603 H   0  0  0  0  0  0
  -21.6635  -26.7444   22.1227 H   0  0  0  0  0  0
  -19.6917  -25.6297   21.1236 H   0  0  0  0  0  0
  -19.6698  -27.3193   20.6744 H   0  0  0  0  0  0
  -17.4193  -26.6659   21.4018 H   0  0  0  0  0  0
  -18.0329  -26.0051   22.9006 H   0  0  0  0  0  0
  -19.7920  -30.7236   24.2308 H   0  0  0  0  0  0
  -17.5012  -31.6270   24.5146 H   0  0  0  0  0  0
  -15.5343  -30.3001   23.7643 H   0  0  0  0  0  0
  -15.8648  -28.0824   22.7078 H   0  0  0  0  0  0
  -24.5906  -30.7030   25.7794 H   0  0  0  0  0  0
  -24.8900  -32.2822   26.4951 H   0  0  0  0  0  0
  -25.8077  -30.8825   27.0217 H   0  0  0  0  0  0
  -26.2830  -29.6828   24.1134 H   0  0  0  0  0  0
  -27.4053  -29.7277   25.4541 H   0  0  0  0  0  0
  -27.8670  -30.4382   23.9247 H   0  0  0  0  0  0
  -27.2682  -33.3591   26.2125 H   0  0  0  0  0  0
  -28.3830  -32.6898   25.0299 H   0  0  0  0  0  0
  -28.0749  -31.8394   26.5357 H   0  0  0  0  0  0
  -28.2612  -38.0106   24.7509 H   0  0  0  0  0  0
  -28.1069  -36.2638   24.6297 H   0  0  0  0  0  0
  -27.2292  -37.1482   25.8862 H   0  0  0  0  0  0
  -20.9267  -29.8760   21.6956 H   0  0  0  0  0  0
  -26.0192  -38.2884   24.1407 H   0  0  0  0  0  0
  -31.3130  -18.3063   17.2997 H   0  0  0  0  0  0
  -30.4229  -20.3118   18.3775 H   0  0  0  0  0  0
  -31.1166  -16.1143   18.3551 H   0  0  0  0  0  0
  -29.0916  -17.9181   21.7361 H   0  0  0  0  0  0
  -29.1511  -20.3812   21.9105 H   0  0  0  0  0  0
  -28.0290  -20.5138   20.5810 H   0  0  0  0  0  0
  -29.6744  -22.0484   19.3781 H   0  0  0  0  0  0
  -30.7638  -21.9284   20.7495 H   0  0  0  0  0  0
  -29.9910  -24.8573   21.4247 H   0  0  0  0  0  0
  -29.9926  -24.3706   19.7434 H   0  0  0  0  0  0
  -27.4500  -25.1751   21.2263 H   0  0  0  0  0  0
  -27.6280  -24.8149   19.5160 H   0  0  0  0  0  0
  -29.0996  -15.3917   21.2757 H   0  0  0  0  0  0
  -29.0680  -22.9673   22.0856 H   0  0  0  0  0  0
  -28.0077  -22.9063   20.8620 H   0  0  0  0  0  0
  1 25  1  0  0  0
  1 30  2  0  0  0
  1 81  1  0  0  0
  2  3  1  0  0  0
  2 25  1  0  0  0
  2 83  1  0  0  0
  2 84  1  0  0  0
  3  4  1  0  0  0
  3 85  1  0  0  0
  3 86  1  0  0  0
  4  5  1  0  0  0
  4 87  1  0  0  0
  4 88  1  0  0  0
  5  6  1  0  0  0
  5 26  1  0  0  0
  5 89  1  0  0  0
  6 25  1  0  0  0
  6 90  1  0  0  0
  6 91  1  0  0  0
  7  8  2  0  0  0
  7 26  1  0  0  0
  7 29  1  0  0  0
  8  9  1  0  0  0
  8 22  1  0  0  0
  9 10  1  0  0  0
  9 27  2  0  0  0
 10 11  2  0  0  0
 10 15  1  0  0  0
 11 12  1  0  0  0
 11 92  1  0  0  0
 12 13  2  0  0  0
 12 93  1  0  0  0
 13 14  1  0  0  0
 13 31  1  0  0  0
 14 15  2  0  0  0
 14 94  1  0  0  0
 15 95  1  0  0  0
 16 17  2  0  0  0
 16 21  1  0  0  0
 16 31  1  0  0  0
 17 18  1  0  0  0
 17 96  1  0  0  0
 18 19  2  0  0  0
 18 97  1  0  0  0
 19 20  1  0  0  0
 19 24  1  0  0  0
 20 21  2  0  0  0
 20 98  1  0  0  0
 21 23  1  0  0  0
 22 28  1  0  0  0
 22 32  2  0  0  0
 26 27  1  0  0  0
 28 99  1  0  0  0
 28100  1  0  0  0
 29101  1  0  0  0
 29102  1  0  0  0
 33 34  1  0  0  0
 33 66  1  0  0  0
 33 70  2  0  0  0
 34 36  1  0  0  0
 34 59  1  0  0  0
 34103  1  0  0  0
 35 44  2  0  0  0
 35 45  1  0  0  0
 35 68  1  0  0  0
 36 56  1  0  0  0
 36104  1  0  0  0
 37 39  1  0  0  0
 37 47  1  0  0  0
 37 66  1  0  0  0
 37105  1  0  0  0
 38 43  2  0  0  0
 38 46  1  0  0  0
 38 47  1  0  0  0
 39 64  1  0  0  0
 39 67  2  0  0  0
 40 52  1  0  0  0
 40 53  2  0  0  0
 40 58  1  0  0  0
 41106  1  0  0  0
 41107  1  0  0  0
 41108  1  0  0  0
 41 48  1  0  0  0
 42 43  1  0  0  0
 42 66  1  0  0  0
 42109  1  0  0  0
 42110  1  0  0  0
 43 44  1  0  0  0
 44111  1  0  0  0
 45 46  2  0  0  0
 45112  1  0  0  0
 46113  1  0  0  0
 47114  1  0  0  0
 47115  1  0  0  0
 48 56  1  0  0  0
 48 65  1  0  0  0
 48116  1  0  0  0
 49 50  1  0  0  0
 49 53  1  0  0  0
 49 64  1  0  0  0
 49117  1  0  0  0
 50 51  1  0  0  0
 50118  1  0  0  0
 50119  1  0  0  0
 51 52  1  0  0  0
 51120  1  0  0  0
 51121  1  0  0  0
 52122  1  0  0  0
 52123  1  0  0  0
 53 54  1  0  0  0
 54 55  2  0  0  0
 54124  1  0  0  0
 55 57  1  0  0  0
 55125  1  0  0  0
 56 69  2  0  0  0
 57 58  2  0  0  0
 57126  1  0  0  0
 58127  1  0  0  0
 59 60  1  0  0  0
 59 61  1  0  0  0
 59 62  1  0  0  0
 60128  1  0  0  0
 60129  1  0  0  0
 60130  1  0  0  0
 61131  1  0  0  0
 61132  1  0  0  0
 61133  1  0  0  0
 62134  1  0  0  0
 62135  1  0  0  0
 62136  1  0  0  0
 63 65  1  0  0  0
 63137  1  0  0  0
 63138  1  0  0  0
 63139  1  0  0  0
 64140  1  0  0  0
 65141  1  0  0  0
 68 80  1  0  0  0
 71 72  2  0  0  0
 71 73  1  0  0  0
 71142  1  0  0  0
 72 75  1  0  0  0
 72143  1  0  0  0
 73 76  2  0  0  0
 73144  1  0  0  0
 74 75  2  0  0  0
 74 76  1  0  0  0
 74145  1  0  0  0
 75 77  1  0  0  0
 76 81  1  0  0  0
 77 78  1  0  0  0
 77146  1  0  0  0
 77147  1  0  0  0
 78 82  1  0  0  0
 78148  1  0  0  0
 78149  1  0  0  0
 79 80  1  0  0  0
 79 82  1  0  0  0
 79150  1  0  0  0
 79151  1  0  0  0
 80152  1  0  0  0
 80153  1  0  0  0
 81154  1  0  0  0
 82155  1  0  0  0
 82156  1  0  0  0
M  CHG  1  82   1
M  ISO  4   1 100  68 101  80 101  81 100
M  END
> <chiral flag>
0

> <version>
0

> <s_m_source_file>
/data/baiqing/PycharmProjects/Reinvent-master-3.2/result/LINK_invent/BTK/process_docking_weight1_custom_sum_contain_oxygen_bond_distance_aromatic_linkinvent_7_9_3/rearranged_h_0133.sdf

> <i_m_source_file_index>
18

> <r_mmod_Potential_Energy-OPLS-2005>
-147.169708251953

> <r_mmod_Stretch_Energy-OPLS-2005>
38.4105529785156

> <r_mmod_Bend_Energy-OPLS-2005>
91.2399673461914

> <r_mmod_Torsional_Energy-OPLS-2005>
243.030563354492

> <r_mmod_Improper_Torsional_Energy-OPLS-2005>
5.66614723205566

> <r_mmod_Van_der_Waal_Energy-OPLS-2005>
162.430389404297

> <r_mmod_Electrostatic_Energy-OPLS-2005>
-236.306106567383

> <r_mmod_Solvation_Energy-OPLS-2005>
-469.446166992188

> <b_mmod_Minimization_Converged-OPLS-2005>
0

> <r_mmod_RMS_Derivative-OPLS-2005>
1.52622616291046

$$$$
18
                    3D
 Structure written by MMmdl.
158166  0  0  1  0            999 V2000
  -30.6905  -14.4425   20.5756 C   0  0  0  0  0  0
  -30.4292  -12.2820   19.4272 C   0  0  0  0  0  0
  -29.5010  -12.5035   18.2125 C   0  0  0  0  0  0
  -28.0187  -12.3713   18.6189 C   0  0  0  0  0  0
  -27.6695  -13.1990   19.8848 C   0  0  2  0  0  0
  -28.7083  -12.9446   21.0041 C   0  0  0  0  0  0
  -25.2613  -13.8147   20.5669 C   0  0  0  0  0  0
  -24.1847  -13.0437   20.9158 C   0  0  0  0  0  0
  -24.6396  -11.6899   20.8727 C   0  0  0  0  0  0
  -23.9058  -10.4289   21.0394 C   0  0  0  0  0  0
  -24.3608   -9.4208   21.9174 C   0  0  0  0  0  0
  -23.6280   -8.2247   22.0754 C   0  0  0  0  0  0
  -22.4264   -8.0286   21.3547 C   0  0  0  0  0  0
  -21.9889   -9.0255   20.4652 C   0  0  0  0  0  0
  -22.7223  -10.2133   20.3052 C   0  0  0  0  0  0
  -21.6853   -6.0733   22.5279 C   0  0  0  0  0  0
  -21.4014   -6.5633   23.8210 C   0  0  0  0  0  0
  -21.3657   -5.6787   24.9172 C   0  0  0  0  0  0
  -21.6044   -4.3053   24.7224 C   0  0  0  0  0  0
  -21.8818   -3.8142   23.4347 C   0  0  0  0  0  0
  -21.9189   -4.6958   22.3400 C   0  0  0  0  0  0
  -22.7868  -13.5243   21.1817 C   0  0  0  0  0  0
  -22.1661   -4.2150   21.0977 F   0  0  0  0  0  0
  -21.5623   -3.4540   25.7741 F   0  0  0  0  0  0
  -30.0507  -13.2467   20.4706 N   0  0  0  0  0  0
  -26.3060  -12.9303   20.3394 N   0  0  0  0  0  0
  -25.9320  -11.6473   20.5763 N   0  0  0  0  0  0
  -22.0499  -12.8263   22.0386 N   0  0  0  0  0  0
  -25.4353  -15.1861   20.4062 N   0  0  0  0  0  0
  -31.7704  -14.6855   20.0315 O   0  0  0  0  0  0
  -21.6637   -6.8877   21.4242 O   0  0  0  0  0  0
  -22.3556  -14.5552   20.6663 O   0  0  0  0  0  0
  -24.6116  -31.8694   23.2116 C   0  0  0  0  0  0
  -25.9015  -32.4836   23.8411 C   0  0  1  0  0  0
  -27.2428  -27.4631   20.0903 C   0  0  0  0  0  0
  -25.5876  -33.8632   24.2344 N   0  0  0  0  0  0
  -23.4007  -30.4922   21.5495 C   0  0  2  0  0  0
  -24.8514  -28.9602   20.1137 C   0  0  0  0  0  0
  -22.7400  -29.4666   22.4984 C   0  0  0  0  0  0
  -18.0271  -28.1387   22.8492 C   0  0  0  0  0  0
  -24.1483  -36.7326   23.2641 C   0  0  0  0  0  0
  -25.9263  -30.8447   21.3599 C   0  0  0  0  0  0
  -26.0089  -29.4800   20.7081 C   0  0  0  0  0  0
  -27.2100  -28.7383   20.6953 C   0  0  0  0  0  0
  -26.0749  -26.9517   19.4880 C   0  0  0  0  0  0
  -24.8778  -27.6934   19.5023 C   0  0  0  0  0  0
  -23.6100  -29.8224   20.1645 C   0  0  0  0  0  0
  -25.4103  -36.3123   24.0345 C   0  0  1  0  0  0
  -20.5860  -28.3671   23.1320 C   0  0  2  0  0  0
  -20.6758  -26.9407   22.5419 C   0  0  0  0  0  0
  -19.5739  -26.6393   21.5212 C   0  0  0  0  0  0
  -18.1919  -26.7933   22.1624 C   0  0  0  0  0  0
  -19.1520  -28.8845   23.2907 C   0  0  0  0  0  0
  -18.9452  -30.1447   23.8918 C   0  0  0  0  0  0
  -17.6457  -30.6589   24.0573 C   0  0  0  0  0  0
  -25.9023  -34.9485   23.5144 C   0  0  0  0  0  0
  -16.5348  -29.9097   23.6324 C   0  0  0  0  0  0
  -16.7262  -28.6518   23.0341 C   0  0  0  0  0  0
  -26.4458  -31.6605   25.0724 C   0  0  0  0  0  0
  -25.3745  -31.3702   26.1490 C   0  0  0  0  0  0
  -27.0279  -30.3053   24.6070 C   0  0  0  0  0  0
  -27.6046  -32.4317   25.7475 C   0  0  0  0  0  0
  -27.5580  -37.1817   24.8468 C   0  0  0  0  0  0
  -21.4129  -29.3046   22.3728 N   0  0  0  0  0  0
  -26.4296  -37.3800   23.9407 N   0  0  0  0  0  0
  -24.6645  -31.0817   22.0998 N   0  0  0  0  0  0
  -23.4180  -28.8206   23.3015 O   0  0  0  0  0  0
  -28.3835  -26.6981   20.1099 O   0  0  0  0  0  0
  -26.5589  -34.8928   22.4706 O   0  0  0  0  0  0
  -23.5316  -32.1429   23.7520 O   0  0  0  0  0  0
  -32.7575  -18.8076   21.5238 C   0  0  0  0  0  0
  -32.3256  -20.0449   21.0103 C   0  0  0  0  0  0
  -31.9139  -17.6888   21.3974 C   0  0  0  0  0  0
  -31.0605  -20.1244   20.3994 C   0  0  0  0  0  0
  -30.6712  -17.8474   20.7578 C   0  0  0  0  0  0
  -30.5375  -21.4371   19.8200 C   0  0  0  0  0  0
  -29.7031  -16.6969   20.5076 C   0  0  0  0  0  0
  -30.1993  -22.4918   20.8942 C   0  0  0  0  0  0
  -29.6300  -24.8927   21.2791 C   0  0  0  0  0  0
  -28.3704  -25.7778   21.2049 C   0  0  0  0  0  0
  -30.2512  -19.0461   20.2899 N   0  0  0  0  0  0
  -29.9605  -15.4057   21.1498 N   0  0  0  0  0  0
  -29.6092  -23.7400   20.3391 N   0  3  0  0  0  0
  -31.4755  -12.3790   19.1314 H   0  0  0  0  0  0
  -30.3224  -11.2655   19.8091 H   0  0  0  0  0  0
  -29.7366  -11.7870   17.4237 H   0  0  0  0  0  0
  -29.6778  -13.4918   17.7864 H   0  0  0  0  0  0
  -27.8178  -11.3151   18.8016 H   0  0  0  0  0  0
  -27.3737  -12.6623   17.7893 H   0  0  0  0  0  0
  -27.7243  -14.2507   19.6029 H   0  0  0  0  0  0
  -28.6723  -11.9009   21.3193 H   0  0  0  0  0  0
  -28.4676  -13.5205   21.8987 H   0  0  0  0  0  0
  -25.2752   -9.5684   22.4745 H   0  0  0  0  0  0
  -23.9992   -7.4637   22.7466 H   0  0  0  0  0  0
  -21.0819   -8.8775   19.8961 H   0  0  0  0  0  0
  -22.3681  -10.9666   19.6165 H   0  0  0  0  0  0
  -21.2022   -7.6143   23.9714 H   0  0  0  0  0  0
  -21.1474   -6.0518   25.9074 H   0  0  0  0  0  0
  -22.0603   -2.7605   23.2843 H   0  0  0  0  0  0
  -22.4104  -11.9938   22.4805 H   0  0  0  0  0  0
  -21.1122  -13.1312   22.2585 H   0  0  0  0  0  0
  -24.6684  -15.8428   20.5024 H   0  0  0  0  0  0
  -26.2857  -15.6187   20.0689 H   0  0  0  0  0  0
  -26.7092  -32.5565   23.1189 H   0  0  0  0  0  0
  -25.0024  -33.9801   25.0488 H   0  0  0  0  0  0
  -22.6889  -31.3082   21.4091 H   0  0  0  0  0  0
  -23.3735  -35.9669   23.3325 H   0  0  0  0  0  0
  -24.3581  -36.8913   22.2050 H   0  0  0  0  0  0
  -23.7245  -37.6544   23.6635 H   0  0  0  0  0  0
  -26.0321  -31.6116   20.5911 H   0  0  0  0  0  0
  -26.8166  -30.9032   21.9745 H   0  0  0  0  0  0
  -28.1039  -29.1349   21.1575 H   0  0  0  0  0  0
  -26.0904  -25.9785   19.0176 H   0  0  0  0  0  0
  -23.9876  -27.2868   19.0424 H   0  0  0  0  0  0
  -23.7161  -30.5968   19.4038 H   0  0  0  0  0  0
  -22.7361  -29.2391   19.8693 H   0  0  0  0  0  0
  -25.1276  -36.2003   25.0840 H   0  0  0  0  0  0
  -20.9959  -28.3242   24.1438 H   0  0  0  0  0  0
  -20.5656  -26.2282   23.3609 H   0  0  0  0  0  0
  -21.6632  -26.7450   22.1217 H   0  0  0  0  0  0
  -19.6901  -25.6309   21.1231 H   0  0  0  0  0  0
  -19.6677  -27.3212   20.6750 H   0  0  0  0  0  0
  -17.4185  -26.6681   21.4028 H   0  0  0  0  0  0
  -18.0324  -26.0076   22.9022 H   0  0  0  0  0  0
  -19.7930  -30.7258   24.2298 H   0  0  0  0  0  0
  -17.5016  -31.6269   24.5176 H   0  0  0  0  0  0
  -15.5352  -30.3013   23.7637 H   0  0  0  0  0  0
  -15.8658  -28.0850   22.7039 H   0  0  0  0  0  0
  -24.5907  -30.7054   25.7843 H   0  0  0  0  0  0
  -24.8944  -32.2852   26.4973 H   0  0  0  0  0  0
  -25.8116  -30.8856   27.0228 H   0  0  0  0  0  0
  -26.2806  -29.6826   24.1135 H   0  0  0  0  0  0
  -27.4076  -29.7278   25.4508 H   0  0  0  0  0  0
  -27.8632  -30.4388   23.9192 H   0  0  0  0  0  0
  -27.2674  -33.3601   26.2099 H   0  0  0  0  0  0
  -28.3825  -32.6904   25.0278 H   0  0  0  0  0  0
  -28.0750  -31.8414   26.5348 H   0  0  0  0  0  0
  -28.2618  -38.0094   24.7493 H   0  0  0  0  0  0
  -28.1053  -36.2627   24.6316 H   0  0  0  0  0  0
  -27.2299  -37.1504   25.8873 H   0  0  0  0  0  0
  -20.9282  -29.8781   21.6964 H   0  0  0  0  0  0
  -26.0192  -38.2885   24.1393 H   0  0  0  0  0  0
  -33.7244  -18.7152   21.9971 H   0  0  0  0  0  0
  -32.9613  -20.9175   21.0864 H   0  0  0  0  0  0
  -32.2332  -16.7245   21.7682 H   0  0  0  0  0  0
  -29.6541  -21.2324   19.2138 H   0  0  0  0  0  0
  -31.2895  -21.8313   19.1357 H   0  0  0  0  0  0
  -29.6274  -16.5516   19.4278 H   0  0  0  0  0  0
  -28.7116  -17.0206   20.8273 H   0  0  0  0  0  0
  -31.1113  -22.7366   21.4403 H   0  0  0  0  0  0
  -29.5043  -22.0668   21.6197 H   0  0  0  0  0  0
  -29.6842  -24.5069   22.2980 H   0  0  0  0  0  0
  -30.5336  -25.4855   21.1320 H   0  0  0  0  0  0
  -28.3139  -26.3600   22.1268 H   0  0  0  0  0  0
  -27.4740  -25.1553   21.1845 H   0  0  0  0  0  0
  -29.1911  -15.0698   21.7071 H   0  0  0  0  0  0
  -28.6578  -23.5441   20.0678 H   0  0  0  0  0  0
  -30.1039  -24.0057   19.5019 H   0  0  0  0  0  0
  1 25  1  0  0  0
  1 30  2  0  0  0
  1 82  1  0  0  0
  2  3  1  0  0  0
  2 25  1  0  0  0
  2 84  1  0  0  0
  2 85  1  0  0  0
  3  4  1  0  0  0
  3 86  1  0  0  0
  3 87  1  0  0  0
  4  5  1  0  0  0
  4 88  1  0  0  0
  4 89  1  0  0  0
  5  6  1  0  0  0
  5 26  1  0  0  0
  5 90  1  0  0  0
  6 25  1  0  0  0
  6 91  1  0  0  0
  6 92  1  0  0  0
  7  8  2  0  0  0
  7 26  1  0  0  0
  7 29  1  0  0  0
  8  9  1  0  0  0
  8 22  1  0  0  0
  9 10  1  0  0  0
  9 27  2  0  0  0
 10 11  2  0  0  0
 10 15  1  0  0  0
 11 12  1  0  0  0
 11 93  1  0  0  0
 12 13  2  0  0  0
 12 94  1  0  0  0
 13 14  1  0  0  0
 13 31  1  0  0  0
 14 15  2  0  0  0
 14 95  1  0  0  0
 15 96  1  0  0  0
 16 17  2  0  0  0
 16 21  1  0  0  0
 16 31  1  0  0  0
 17 18  1  0  0  0
 17 97  1  0  0  0
 18 19  2  0  0  0
 18 98  1  0  0  0
 19 20  1  0  0  0
 19 24  1  0  0  0
 20 21  2  0  0  0
 20 99  1  0  0  0
 21 23  1  0  0  0
 22 28  1  0  0  0
 22 32  2  0  0  0
 26 27  1  0  0  0
 28100  1  0  0  0
 28101  1  0  0  0
 29102  1  0  0  0
 29103  1  0  0  0
 33 34  1  0  0  0
 33 66  1  0  0  0
 33 70  2  0  0  0
 34 36  1  0  0  0
 34 59  1  0  0  0
 34104  1  0  0  0
 35 44  2  0  0  0
 35 45  1  0  0  0
 35 68  1  0  0  0
 36 56  1  0  0  0
 36105  1  0  0  0
 37 39  1  0  0  0
 37 47  1  0  0  0
 37 66  1  0  0  0
 37106  1  0  0  0
 38 43  2  0  0  0
 38 46  1  0  0  0
 38 47  1  0  0  0
 39 64  1  0  0  0
 39 67  2  0  0  0
 40 52  1  0  0  0
 40 53  2  0  0  0
 40 58  1  0  0  0
 41107  1  0  0  0
 41108  1  0  0  0
 41109  1  0  0  0
 41 48  1  0  0  0
 42 43  1  0  0  0
 42 66  1  0  0  0
 42110  1  0  0  0
 42111  1  0  0  0
 43 44  1  0  0  0
 44112  1  0  0  0
 45 46  2  0  0  0
 45113  1  0  0  0
 46114  1  0  0  0
 47115  1  0  0  0
 47116  1  0  0  0
 48 56  1  0  0  0
 48 65  1  0  0  0
 48117  1  0  0  0
 49 50  1  0  0  0
 49 53  1  0  0  0
 49 64  1  0  0  0
 49118  1  0  0  0
 50 51  1  0  0  0
 50119  1  0  0  0
 50120  1  0  0  0
 51 52  1  0  0  0
 51121  1  0  0  0
 51122  1  0  0  0
 52123  1  0  0  0
 52124  1  0  0  0
 53 54  1  0  0  0
 54 55  2  0  0  0
 54125  1  0  0  0
 55 57  1  0  0  0
 55126  1  0  0  0
 56 69  2  0  0  0
 57 58  2  0  0  0
 57127  1  0  0  0
 58128  1  0  0  0
 59 60  1  0  0  0
 59 61  1  0  0  0
 59 62  1  0  0  0
 60129  1  0  0  0
 60130  1  0  0  0
 60131  1  0  0  0
 61132  1  0  0  0
 61133  1  0  0  0
 61134  1  0  0  0
 62135  1  0  0  0
 62136  1  0  0  0
 62137  1  0  0  0
 63 65  1  0  0  0
 63138  1  0  0  0
 63139  1  0  0  0
 63140  1  0  0  0
 64141  1  0  0  0
 65142  1  0  0  0
 68 80  1  0  0  0
 71 72  2  0  0  0
 71 73  1  0  0  0
 71143  1  0  0  0
 72 74  1  0  0  0
 72144  1  0  0  0
 73 75  2  0  0  0
 73145  1  0  0  0
 74 76  1  0  0  0
 74 81  2  0  0  0
 75 77  1  0  0  0
 75 81  1  0  0  0
 76 78  1  0  0  0
 76146  1  0  0  0
 76147  1  0  0  0
 77 82  1  0  0  0
 77148  1  0  0  0
 77149  1  0  0  0
 78 83  1  0  0  0
 78150  1  0  0  0
 78151  1  0  0  0
 79 80  1  0  0  0
 79 83  1  0  0  0
 79152  1  0  0  0
 79153  1  0  0  0
 80154  1  0  0  0
 80155  1  0  0  0
 82156  1  0  0  0
 83157  1  0  0  0
 83158  1  0  0  0
M  CHG  1  83   1
M  ISO  4   1 100  68 101  80 101  82 100
M  END
> <chiral flag>
0

> <version>
0

> <s_m_source_file>
/data/baiqing/PycharmProjects/Reinvent-master-3.2/result/LINK_invent/BTK/process_docking_weight1_custom_sum_contain_oxygen_bond_distance_aromatic_linkinvent_7_9_3/rearranged_h_0133.sdf

> <i_m_source_file_index>
19

> <r_mmod_Potential_Energy-OPLS-2005>
-465.917266845703

> <r_mmod_Stretch_Energy-OPLS-2005>
33.3446846008301

> <r_mmod_Bend_Energy-OPLS-2005>
90.9156875610352

> <r_mmod_Torsional_Energy-OPLS-2005>
249.562347412109

> <r_mmod_Improper_Torsional_Energy-OPLS-2005>
7.5457878112793

> <r_mmod_Van_der_Waal_Energy-OPLS-2005>
151.05989074707

> <r_mmod_Electrostatic_Energy-OPLS-2005>
-539.461364746094

> <r_mmod_Solvation_Energy-OPLS-2005>
-468.927154541016

> <b_mmod_Minimization_Converged-OPLS-2005>
0

> <r_mmod_RMS_Derivative-OPLS-2005>
1.29954838752747

$$$$
19
                    3D
 Structure written by MMmdl.
156164  0  0  1  0            999 V2000
  -30.5892  -14.6714   20.5010 C   0  0  0  0  0  0
  -30.4463  -12.4160   19.4441 C   0  0  0  0  0  0
  -29.5056  -12.5172   18.2211 C   0  0  0  0  0  0
  -28.0296  -12.3486   18.6357 C   0  0  0  0  0  0
  -27.6558  -13.2128   19.8681 C   0  0  2  0  0  0
  -28.7025  -13.0570   20.9947 C   0  0  0  0  0  0
  -25.2540  -13.8118   20.5551 C   0  0  0  0  0  0
  -24.1834  -13.0415   20.9194 C   0  0  0  0  0  0
  -24.6418  -11.6889   20.8793 C   0  0  0  0  0  0
  -23.9070  -10.4280   21.0450 C   0  0  0  0  0  0
  -24.3623   -9.4193   21.9217 C   0  0  0  0  0  0
  -23.6296   -8.2231   22.0763 C   0  0  0  0  0  0
  -22.4277   -8.0290   21.3549 C   0  0  0  0  0  0
  -21.9928   -9.0265   20.4649 C   0  0  0  0  0  0
  -22.7251  -10.2139   20.3081 C   0  0  0  0  0  0
  -21.6838   -6.0749   22.5284 C   0  0  0  0  0  0
  -21.4000   -6.5647   23.8220 C   0  0  0  0  0  0
  -21.3663   -5.6796   24.9177 C   0  0  0  0  0  0
  -21.6050   -4.3061   24.7220 C   0  0  0  0  0  0
  -21.8815   -3.8158   23.4333 C   0  0  0  0  0  0
  -21.9190   -4.6980   22.3394 C   0  0  0  0  0  0
  -22.7858  -13.5229   21.1851 C   0  0  0  0  0  0
  -22.1663   -4.2170   21.0969 F   0  0  0  0  0  0
  -21.5643   -3.4548   25.7730 F   0  0  0  0  0  0
  -30.0161  -13.4250   20.4331 N   0  0  0  0  0  0
  -26.3005  -12.9309   20.3345 N   0  0  0  0  0  0
  -25.9350  -11.6473   20.5828 N   0  0  0  0  0  0
  -22.0480  -12.8243   22.0416 N   0  0  0  0  0  0
  -25.4162  -15.1787   20.3590 N   0  0  0  0  0  0
  -31.7315  -14.8786   20.0789 O   0  0  0  0  0  0
  -21.6634   -6.8887   21.4242 O   0  0  0  0  0  0
  -22.3564  -14.5548   20.6689 O   0  0  0  0  0  0
  -24.6258  -31.8573   23.1969 C   0  0  0  0  0  0
  -25.9115  -32.4749   23.8311 C   0  0  1  0  0  0
  -27.2346  -27.3077   20.1395 C   0  0  0  0  0  0
  -25.5963  -33.8545   24.2266 N   0  0  0  0  0  0
  -23.4232  -30.4731   21.5373 C   0  0  2  0  0  0
  -24.8726  -28.9151   20.1179 C   0  0  0  0  0  0
  -22.7501  -29.4573   22.4905 C   0  0  0  0  0  0
  -18.0283  -28.1371   22.8438 C   0  0  0  0  0  0
  -24.1498  -36.7262   23.2647 C   0  0  0  0  0  0
  -25.9602  -30.7853   21.3647 C   0  0  0  0  0  0
  -26.0391  -29.4079   20.7164 C   0  0  0  0  0  0
  -27.2250  -28.6190   20.7075 C   0  0  0  0  0  0
  -26.0490  -26.8551   19.5288 C   0  0  0  0  0  0
  -24.8794  -27.6451   19.5149 C   0  0  0  0  0  0
  -23.6428  -29.7991   20.1558 C   0  0  0  0  0  0
  -25.4115  -36.3060   24.0350 C   0  0  1  0  0  0
  -20.5890  -28.3673   23.1270 C   0  0  2  0  0  0
  -20.6781  -26.9398   22.5395 C   0  0  0  0  0  0
  -19.5762  -26.6381   21.5184 C   0  0  0  0  0  0
  -18.1931  -26.7901   22.1589 C   0  0  0  0  0  0
  -19.1539  -28.8833   23.2842 C   0  0  0  0  0  0
  -18.9466  -30.1427   23.8878 C   0  0  0  0  0  0
  -17.6477  -30.6569   24.0539 C   0  0  0  0  0  0
  -25.9066  -34.9432   23.5098 C   0  0  0  0  0  0
  -16.5359  -29.9059   23.6328 C   0  0  0  0  0  0
  -16.7274  -28.6488   23.0315 C   0  0  0  0  0  0
  -26.4505  -31.6552   25.0668 C   0  0  0  0  0  0
  -25.3766  -31.3715   26.1423 C   0  0  0  0  0  0
  -27.0345  -30.2988   24.6084 C   0  0  0  0  0  0
  -27.6063  -32.4300   25.7441 C   0  0  0  0  0  0
  -27.5576  -37.1781   24.8472 C   0  0  0  0  0  0
  -21.4212  -29.3013   22.3683 N   0  0  0  0  0  0
  -26.4280  -37.3746   23.9427 N   0  0  0  0  0  0
  -24.6878  -31.0565   22.0912 N   0  0  0  0  0  0
  -23.4242  -28.8129   23.2979 O   0  0  0  0  0  0
  -28.3816  -26.5052   20.1117 O   0  0  0  0  0  0
  -26.5587  -34.8897   22.4638 O   0  0  0  0  0  0
  -23.5427  -32.1363   23.7308 O   0  0  0  0  0  0
  -30.1609  -19.4431   20.0617 C   0  0  0  0  0  0
  -30.4100  -18.0216   20.0717 C   0  0  0  0  0  0
  -28.4155  -19.1318   21.6730 C   0  0  0  0  0  0
  -29.1375  -20.0411   20.8602 C   0  0  0  0  0  0
  -28.6695  -17.7339   21.7097 C   0  0  0  0  0  0
  -29.6665  -17.1254   20.8989 C   0  0  0  0  0  0
  -27.8534  -16.8826   22.6727 C   0  0  0  0  0  0
  -28.7639  -21.5819   20.9979 C   0  0  0  0  0  0
  -28.2641  -23.8608   19.7408 C   0  0  0  0  0  0
  -28.3821  -25.1363   20.6931 C   0  0  0  0  0  0
  -29.7588  -15.6593   20.9644 N   0  0  0  0  0  0
  -29.1397  -22.6165   19.9614 N   0  3  0  0  0  0
  -31.4825  -12.5641   19.1358 H   0  0  0  0  0  0
  -30.4054  -11.4181   19.8827 H   0  0  0  0  0  0
  -29.7702  -11.7615   17.4812 H   0  0  0  0  0  0
  -29.6360  -13.4828   17.7314 H   0  0  0  0  0  0
  -27.8658  -11.2930   18.8596 H   0  0  0  0  0  0
  -27.3730  -12.5860   17.7983 H   0  0  0  0  0  0
  -27.6758  -14.2504   19.5361 H   0  0  0  0  0  0
  -28.7270  -12.0286   21.3585 H   0  0  0  0  0  0
  -28.4346  -13.6637   21.8614 H   0  0  0  0  0  0
  -25.2761   -9.5665   22.4810 H   0  0  0  0  0  0
  -24.0005   -7.4614   22.7479 H   0  0  0  0  0  0
  -21.0868   -8.8786   19.8939 H   0  0  0  0  0  0
  -22.3722  -10.9698   19.6209 H   0  0  0  0  0  0
  -21.1972   -7.6157   23.9729 H   0  0  0  0  0  0
  -21.1498   -6.0522   25.9082 H   0  0  0  0  0  0
  -22.0585   -2.7627   23.2816 H   0  0  0  0  0  0
  -22.4044  -11.9881   22.4806 H   0  0  0  0  0  0
  -21.1129  -13.1346   22.2640 H   0  0  0  0  0  0
  -24.5935  -15.7698   20.3046 H   0  0  0  0  0  0
  -26.1970  -15.5484   19.8316 H   0  0  0  0  0  0
  -26.7172  -32.5442   23.1052 H   0  0  0  0  0  0
  -25.0223  -33.9679   25.0492 H   0  0  0  0  0  0
  -22.7148  -31.2902   21.3844 H   0  0  0  0  0  0
  -23.3767  -35.9586   23.3296 H   0  0  0  0  0  0
  -24.3604  -36.8876   22.2063 H   0  0  0  0  0  0
  -23.7245  -37.6461   23.6662 H   0  0  0  0  0  0
  -26.0869  -31.5422   20.5910 H   0  0  0  0  0  0
  -26.8450  -30.8443   21.9886 H   0  0  0  0  0  0
  -28.1295  -28.9985   21.1600 H   0  0  0  0  0  0
  -26.0241  -25.8851   19.0516 H   0  0  0  0  0  0
  -23.9884  -27.2597   19.0420 H   0  0  0  0  0  0
  -23.7703  -30.5691   19.3949 H   0  0  0  0  0  0
  -22.7634  -29.2299   19.8519 H   0  0  0  0  0  0
  -25.1286  -36.1902   25.0838 H   0  0  0  0  0  0
  -20.9946  -28.3222   24.1403 H   0  0  0  0  0  0
  -20.5684  -26.2257   23.3584 H   0  0  0  0  0  0
  -21.6645  -26.7417   22.1186 H   0  0  0  0  0  0
  -19.6941  -25.6300   21.1197 H   0  0  0  0  0  0
  -19.6725  -27.3197   20.6725 H   0  0  0  0  0  0
  -17.4210  -26.6643   21.3985 H   0  0  0  0  0  0
  -18.0316  -26.0043   22.8992 H   0  0  0  0  0  0
  -19.7956  -30.7207   24.2276 H   0  0  0  0  0  0
  -17.5037  -31.6252   24.5125 H   0  0  0  0  0  0
  -15.5358  -30.2948   23.7674 H   0  0  0  0  0  0
  -15.8671  -28.0818   22.7028 H   0  0  0  0  0  0
  -24.5924  -30.7074   25.7786 H   0  0  0  0  0  0
  -24.8981  -32.2893   26.4866 H   0  0  0  0  0  0
  -25.8107  -30.8907   27.0202 H   0  0  0  0  0  0
  -26.2873  -29.6737   24.1174 H   0  0  0  0  0  0
  -27.4149  -29.7248   25.4544 H   0  0  0  0  0  0
  -27.8710  -30.4299   23.9210 H   0  0  0  0  0  0
  -27.2698  -33.3638   26.1947 H   0  0  0  0  0  0
  -28.3916  -32.6795   25.0305 H   0  0  0  0  0  0
  -28.0678  -31.8483   26.5422 H   0  0  0  0  0  0
  -28.2567  -38.0090   24.7498 H   0  0  0  0  0  0
  -28.1093  -36.2618   24.6321 H   0  0  0  0  0  0
  -27.2295  -37.1444   25.8870 H   0  0  0  0  0  0
  -20.9404  -29.8764   21.6900 H   0  0  0  0  0  0
  -26.0170  -38.2826   24.1416 H   0  0  0  0  0  0
  -30.7772  -20.0657   19.4268 H   0  0  0  0  0  0
  -31.1801  -17.6267   19.4232 H   0  0  0  0  0  0
  -27.6423  -19.5309   22.3168 H   0  0  0  0  0  0
  -27.1715  -17.4898   23.2683 H   0  0  0  0  0  0
  -28.5114  -16.3552   23.3653 H   0  0  0  0  0  0
  -27.2542  -16.1477   22.1379 H   0  0  0  0  0  0
  -29.1475  -21.9259   21.9592 H   0  0  0  0  0  0
  -27.6776  -21.6172   21.0963 H   0  0  0  0  0  0
  -28.5123  -24.2076   18.7389 H   0  0  0  0  0  0
  -27.2211  -23.5547   19.6777 H   0  0  0  0  0  0
  -29.3235  -25.0572   21.2385 H   0  0  0  0  0  0
  -27.6181  -25.0736   21.4702 H   0  0  0  0  0  0
  -28.9413  -15.2493   21.3877 H   0  0  0  0  0  0
  -29.1220  -22.1208   19.0852 H   0  0  0  0  0  0
  -30.0980  -22.8942   20.1075 H   0  0  0  0  0  0
  1 25  1  0  0  0
  1 30  2  0  0  0
  1 81  1  0  0  0
  2  3  1  0  0  0
  2 25  1  0  0  0
  2 83  1  0  0  0
  2 84  1  0  0  0
  3  4  1  0  0  0
  3 85  1  0  0  0
  3 86  1  0  0  0
  4  5  1  0  0  0
  4 87  1  0  0  0
  4 88  1  0  0  0
  5  6  1  0  0  0
  5 26  1  0  0  0
  5 89  1  0  0  0
  6 25  1  0  0  0
  6 90  1  0  0  0
  6 91  1  0  0  0
  7  8  2  0  0  0
  7 26  1  0  0  0
  7 29  1  0  0  0
  8  9  1  0  0  0
  8 22  1  0  0  0
  9 10  1  0  0  0
  9 27  2  0  0  0
 10 11  2  0  0  0
 10 15  1  0  0  0
 11 12  1  0  0  0
 11 92  1  0  0  0
 12 13  2  0  0  0
 12 93  1  0  0  0
 13 14  1  0  0  0
 13 31  1  0  0  0
 14 15  2  0  0  0
 14 94  1  0  0  0
 15 95  1  0  0  0
 16 17  2  0  0  0
 16 21  1  0  0  0
 16 31  1  0  0  0
 17 18  1  0  0  0
 17 96  1  0  0  0
 18 19  2  0  0  0
 18 97  1  0  0  0
 19 20  1  0  0  0
 19 24  1  0  0  0
 20 21  2  0  0  0
 20 98  1  0  0  0
 21 23  1  0  0  0
 22 28  1  0  0  0
 22 32  2  0  0  0
 26 27  1  0  0  0
 28 99  1  0  0  0
 28100  1  0  0  0
 29101  1  0  0  0
 29102  1  0  0  0
 33 34  1  0  0  0
 33 66  1  0  0  0
 33 70  2  0  0  0
 34 36  1  0  0  0
 34 59  1  0  0  0
 34103  1  0  0  0
 35 44  2  0  0  0
 35 45  1  0  0  0
 35 68  1  0  0  0
 36 56  1  0  0  0
 36104  1  0  0  0
 37 39  1  0  0  0
 37 47  1  0  0  0
 37 66  1  0  0  0
 37105  1  0  0  0
 38 43  2  0  0  0
 38 46  1  0  0  0
 38 47  1  0  0  0
 39 64  1  0  0  0
 39 67  2  0  0  0
 40 52  1  0  0  0
 40 53  2  0  0  0
 40 58  1  0  0  0
 41106  1  0  0  0
 41107  1  0  0  0
 41108  1  0  0  0
 41 48  1  0  0  0
 42 43  1  0  0  0
 42 66  1  0  0  0
 42109  1  0  0  0
 42110  1  0  0  0
 43 44  1  0  0  0
 44111  1  0  0  0
 45 46  2  0  0  0
 45112  1  0  0  0
 46113  1  0  0  0
 47114  1  0  0  0
 47115  1  0  0  0
 48 56  1  0  0  0
 48 65  1  0  0  0
 48116  1  0  0  0
 49 50  1  0  0  0
 49 53  1  0  0  0
 49 64  1  0  0  0
 49117  1  0  0  0
 50 51  1  0  0  0
 50118  1  0  0  0
 50119  1  0  0  0
 51 52  1  0  0  0
 51120  1  0  0  0
 51121  1  0  0  0
 52122  1  0  0  0
 52123  1  0  0  0
 53 54  1  0  0  0
 54 55  2  0  0  0
 54124  1  0  0  0
 55 57  1  0  0  0
 55125  1  0  0  0
 56 69  2  0  0  0
 57 58  2  0  0  0
 57126  1  0  0  0
 58127  1  0  0  0
 59 60  1  0  0  0
 59 61  1  0  0  0
 59 62  1  0  0  0
 60128  1  0  0  0
 60129  1  0  0  0
 60130  1  0  0  0
 61131  1  0  0  0
 61132  1  0  0  0
 61133  1  0  0  0
 62134  1  0  0  0
 62135  1  0  0  0
 62136  1  0  0  0
 63 65  1  0  0  0
 63137  1  0  0  0
 63138  1  0  0  0
 63139  1  0  0  0
 64140  1  0  0  0
 65141  1  0  0  0
 68 80  1  0  0  0
 71 72  2  0  0  0
 71 74  1  0  0  0
 71142  1  0  0  0
 72 76  1  0  0  0
 72143  1  0  0  0
 73 74  2  0  0  0
 73 75  1  0  0  0
 73144  1  0  0  0
 74 78  1  0  0  0
 75 76  2  0  0  0
 75 77  1  0  0  0
 76 81  1  0  0  0
 77145  1  0  0  0
 77146  1  0  0  0
 77147  1  0  0  0
 78 82  1  0  0  0
 78148  1  0  0  0
 78149  1  0  0  0
 79 80  1  0  0  0
 79 82  1  0  0  0
 79150  1  0  0  0
 79151  1  0  0  0
 80152  1  0  0  0
 80153  1  0  0  0
 81154  1  0  0  0
 82155  1  0  0  0
 82156  1  0  0  0
M  CHG  1  82   1
M  ISO  4   1 100  68 101  80 101  81 100
M  END
> <chiral flag>
0

> <version>
0

> <s_m_source_file>
/data/baiqing/PycharmProjects/Reinvent-master-3.2/result/LINK_invent/BTK/process_docking_weight1_custom_sum_contain_oxygen_bond_distance_aromatic_linkinvent_7_9_3/rearranged_h_0133.sdf

> <i_m_source_file_index>
20

> <r_mmod_Potential_Energy-OPLS-2005>
-63.4948577880859

> <r_mmod_Stretch_Energy-OPLS-2005>
87.6357421875

> <r_mmod_Bend_Energy-OPLS-2005>
181.61279296875

> <r_mmod_Torsional_Energy-OPLS-2005>
242.45768737793

> <r_mmod_Improper_Torsional_Energy-OPLS-2005>
5.52443790435791

> <r_mmod_Van_der_Waal_Energy-OPLS-2005>
132.169204711914

> <r_mmod_Electrostatic_Energy-OPLS-2005>
-308.470275878906

> <r_mmod_Solvation_Energy-OPLS-2005>
-457.786987304688

> <b_mmod_Minimization_Converged-OPLS-2005>
0

> <r_mmod_RMS_Derivative-OPLS-2005>
3.30931782722473

$$$$
20
                    3D
 Structure written by MMmdl.
155163  0  0  1  0            999 V2000
  -30.6528  -14.6363   20.4713 C   0  0  0  0  0  0
  -30.4243  -12.3894   19.4307 C   0  0  0  0  0  0
  -29.4918  -12.5093   18.2063 C   0  0  0  0  0  0
  -28.0212  -12.3378   18.6345 C   0  0  0  0  0  0
  -27.6493  -13.2193   19.8581 C   0  0  2  0  0  0
  -28.7042  -13.1020   20.9826 C   0  0  0  0  0  0
  -25.2545  -13.8165   20.5681 C   0  0  0  0  0  0
  -24.1824  -13.0415   20.9177 C   0  0  0  0  0  0
  -24.6412  -11.6896   20.8741 C   0  0  0  0  0  0
  -23.9084  -10.4282   21.0401 C   0  0  0  0  0  0
  -24.3627   -9.4197   21.9183 C   0  0  0  0  0  0
  -23.6298   -8.2241   22.0763 C   0  0  0  0  0  0
  -22.4280   -8.0276   21.3552 C   0  0  0  0  0  0
  -21.9916   -9.0245   20.4655 C   0  0  0  0  0  0
  -22.7255  -10.2126   20.3056 C   0  0  0  0  0  0
  -21.6853   -6.0720   22.5274 C   0  0  0  0  0  0
  -21.4015   -6.5630   23.8201 C   0  0  0  0  0  0
  -21.3675   -5.6800   24.9169 C   0  0  0  0  0  0
  -21.6038   -4.3054   24.7236 C   0  0  0  0  0  0
  -21.8819   -3.8136   23.4359 C   0  0  0  0  0  0
  -21.9187   -4.6951   22.3402 C   0  0  0  0  0  0
  -22.7857  -13.5200   21.1852 C   0  0  0  0  0  0
  -22.1658   -4.2137   21.0980 F   0  0  0  0  0  0
  -21.5632   -3.4539   25.7746 F   0  0  0  0  0  0
  -30.0105  -13.4285   20.3928 N   0  0  0  0  0  0
  -26.2989  -12.9362   20.3343 N   0  0  0  0  0  0
  -25.9341  -11.6518   20.5783 N   0  0  0  0  0  0
  -22.0543  -12.8160   22.0421 N   0  0  0  0  0  0
  -25.4162  -15.1888   20.4067 N   0  0  0  0  0  0
  -31.8402  -14.7540   20.1619 O   0  0  0  0  0  0
  -21.6643   -6.8872   21.4245 O   0  0  0  0  0  0
  -22.3529  -14.5515   20.6730 O   0  0  0  0  0  0
  -24.6282  -31.8548   23.1970 C   0  0  0  0  0  0
  -25.9128  -32.4718   23.8310 C   0  0  1  0  0  0
  -27.2260  -27.3003   20.0832 C   0  0  0  0  0  0
  -25.5958  -33.8533   24.2233 N   0  0  0  0  0  0
  -23.4205  -30.4788   21.5411 C   0  0  2  0  0  0
  -24.8678  -28.9367   20.1004 C   0  0  0  0  0  0
  -22.7475  -29.4591   22.4895 C   0  0  0  0  0  0
  -18.0279  -28.1398   22.8489 C   0  0  0  0  0  0
  -24.1492  -36.7277   23.2624 C   0  0  0  0  0  0
  -25.9631  -30.7792   21.3677 C   0  0  0  0  0  0
  -26.0390  -29.4050   20.7084 C   0  0  0  0  0  0
  -27.2168  -28.5963   20.6951 C   0  0  0  0  0  0
  -26.0206  -26.8810   19.4750 C   0  0  0  0  0  0
  -24.8636  -27.6820   19.4758 C   0  0  0  0  0  0
  -23.6322  -29.8125   20.1573 C   0  0  0  0  0  0
  -25.4117  -36.3033   24.0299 C   0  0  1  0  0  0
  -20.5892  -28.3688   23.1278 C   0  0  2  0  0  0
  -20.6768  -26.9400   22.5398 C   0  0  0  0  0  0
  -19.5727  -26.6389   21.5217 C   0  0  0  0  0  0
  -18.1903  -26.7946   22.1629 C   0  0  0  0  0  0
  -19.1539  -28.8863   23.2870 C   0  0  0  0  0  0
  -18.9472  -30.1491   23.8842 C   0  0  0  0  0  0
  -17.6475  -30.6597   24.0570 C   0  0  0  0  0  0
  -25.9058  -34.9404   23.5039 C   0  0  0  0  0  0
  -16.5356  -29.9096   23.6356 C   0  0  0  0  0  0
  -16.7275  -28.6544   23.0334 C   0  0  0  0  0  0
  -26.4536  -31.6548   25.0678 C   0  0  0  0  0  0
  -25.3786  -31.3632   26.1401 C   0  0  0  0  0  0
  -27.0395  -30.2984   24.6102 C   0  0  0  0  0  0
  -27.6090  -32.4304   25.7458 C   0  0  0  0  0  0
  -27.5589  -37.1739   24.8417 C   0  0  0  0  0  0
  -21.4181  -29.3042   22.3672 N   0  0  0  0  0  0
  -26.4252  -37.3769   23.9430 N   0  0  0  0  0  0
  -24.6907  -31.0537   22.0926 N   0  0  0  0  0  0
  -23.4188  -28.8101   23.2950 O   0  0  0  0  0  0
  -28.3487  -26.4501   20.1429 O   0  0  0  0  0  0
  -26.5605  -34.8888   22.4601 O   0  0  0  0  0  0
  -23.5449  -32.1376   23.7279 O   0  0  0  0  0  0
  -29.3406  -22.8429   18.8780 C   0  0  0  0  0  0
  -29.5513  -21.4654   19.2025 C   0  0  0  0  0  0
  -28.5891  -21.8780   21.3556 C   0  0  0  0  0  0
  -28.7474  -23.7906   19.7678 C   0  0  0  0  0  0
  -28.3449  -23.2523   21.0242 C   0  0  0  0  0  0
  -29.1854  -20.9378   20.4662 C   0  0  0  0  0  0
  -27.6138  -24.1169   22.0348 C   0  0  0  0  0  0
  -28.5033  -25.2725   19.2490 C   0  0  0  0  0  0
  -29.7537  -18.3587   20.1166 C   0  0  0  0  0  0
  -30.2973  -17.1528   21.0131 C   0  0  0  0  0  0
  -29.3771  -19.5794   20.8986 N   0  0  0  0  0  0
  -29.8786  -15.7378   20.7168 N   0  0  0  0  0  0
  -31.4673  -12.4922   19.1264 H   0  0  0  0  0  0
  -30.3362  -11.3983   19.8786 H   0  0  0  0  0  0
  -29.7534  -11.7655   17.4526 H   0  0  0  0  0  0
  -29.6241  -13.4842   17.7320 H   0  0  0  0  0  0
  -27.8707  -11.2846   18.8779 H   0  0  0  0  0  0
  -27.3540  -12.5528   17.7989 H   0  0  0  0  0  0
  -27.6603  -14.2503   19.5048 H   0  0  0  0  0  0
  -28.7188  -12.0935   21.3987 H   0  0  0  0  0  0
  -28.4633  -13.7676   21.8136 H   0  0  0  0  0  0
  -25.2770   -9.5662   22.4746 H   0  0  0  0  0  0
  -24.0000   -7.4638   22.7493 H   0  0  0  0  0  0
  -21.0840   -8.8771   19.8962 H   0  0  0  0  0  0
  -22.3715  -10.9658   19.6162 H   0  0  0  0  0  0
  -21.2016   -7.6138   23.9700 H   0  0  0  0  0  0
  -21.1498   -6.0526   25.9069 H   0  0  0  0  0  0
  -22.0582   -2.7604   23.2859 H   0  0  0  0  0  0
  -22.4201  -11.9797   22.4728 H   0  0  0  0  0  0
  -21.1178  -13.1171   22.2723 H   0  0  0  0  0  0
  -24.6324  -15.8260   20.4947 H   0  0  0  0  0  0
  -26.2544  -15.6429   20.0691 H   0  0  0  0  0  0
  -26.7166  -32.5396   23.1038 H   0  0  0  0  0  0
  -25.0171  -33.9683   25.0430 H   0  0  0  0  0  0
  -22.7154  -31.3010   21.3962 H   0  0  0  0  0  0
  -23.3747  -35.9601   23.3207 H   0  0  0  0  0  0
  -24.3598  -36.9024   22.2055 H   0  0  0  0  0  0
  -23.7270  -37.6455   23.6739 H   0  0  0  0  0  0
  -26.0806  -31.5384   20.5929 H   0  0  0  0  0  0
  -26.8485  -30.8383   21.9886 H   0  0  0  0  0  0
  -28.1201  -28.9496   21.1764 H   0  0  0  0  0  0
  -25.9154  -25.9068   19.0256 H   0  0  0  0  0  0
  -23.9614  -27.3157   19.0046 H   0  0  0  0  0  0
  -23.7297  -30.5849   19.3928 H   0  0  0  0  0  0
  -22.7552  -29.2302   19.8718 H   0  0  0  0  0  0
  -25.1292  -36.1818   25.0779 H   0  0  0  0  0  0
  -20.9974  -28.3258   24.1407 H   0  0  0  0  0  0
  -20.5729  -26.2254   23.3585 H   0  0  0  0  0  0
  -21.6619  -26.7450   22.1154 H   0  0  0  0  0  0
  -19.6865  -25.6300   21.1241 H   0  0  0  0  0  0
  -19.6673  -27.3197   20.6734 H   0  0  0  0  0  0
  -17.4173  -26.6708   21.4022 H   0  0  0  0  0  0
  -18.0290  -26.0108   22.9038 H   0  0  0  0  0  0
  -19.7945  -30.7355   24.2139 H   0  0  0  0  0  0
  -17.5022  -31.6275   24.5169 H   0  0  0  0  0  0
  -15.5363  -30.2976   23.7735 H   0  0  0  0  0  0
  -15.8671  -28.0902   22.6989 H   0  0  0  0  0  0
  -24.6067  -30.6842   25.7770 H   0  0  0  0  0  0
  -24.8822  -32.2733   26.4764 H   0  0  0  0  0  0
  -25.8164  -30.8933   27.0214 H   0  0  0  0  0  0
  -26.2956  -29.6684   24.1201 H   0  0  0  0  0  0
  -27.4225  -29.7282   25.4577 H   0  0  0  0  0  0
  -27.8749  -30.4293   23.9212 H   0  0  0  0  0  0
  -27.2760  -33.3716   26.1861 H   0  0  0  0  0  0
  -28.4005  -32.6696   25.0330 H   0  0  0  0  0  0
  -28.0611  -31.8510   26.5528 H   0  0  0  0  0  0
  -28.2418  -38.0204   24.7713 H   0  0  0  0  0  0
  -28.1285  -36.2767   24.5955 H   0  0  0  0  0  0
  -27.2324  -37.1012   25.8802 H   0  0  0  0  0  0
  -20.9326  -29.8861   21.6983 H   0  0  0  0  0  0
  -26.0090  -38.2775   24.1645 H   0  0  0  0  0  0
  -29.6369  -23.1761   17.8929 H   0  0  0  0  0  0
  -30.0064  -20.8214   18.4629 H   0  0  0  0  0  0
  -28.2863  -21.5296   22.3322 H   0  0  0  0  0  0
  -27.1810  -23.5135   22.8341 H   0  0  0  0  0  0
  -26.7953  -24.6542   21.5563 H   0  0  0  0  0  0
  -28.2867  -24.8449   22.4893 H   0  0  0  0  0  0
  -27.7496  -25.2223   18.4686 H   0  0  0  0  0  0
  -29.4041  -25.5103   18.6803 H   0  0  0  0  0  0
  -28.8894  -18.0220   19.5406 H   0  0  0  0  0  0
  -30.5201  -18.6227   19.3846 H   0  0  0  0  0  0
  -29.9574  -17.3156   22.0362 H   0  0  0  0  0  0
  -31.3858  -17.2134   21.0700 H   0  0  0  0  0  0
  -29.0622  -19.3737   21.8438 H   0  0  0  0  0  0
  -28.8993  -15.5387   20.8559 H   0  0  0  0  0  0
  1 25  1  0  0  0
  1 30  2  0  0  0
  1 82  1  0  0  0
  2  3  1  0  0  0
  2 25  1  0  0  0
  2 83  1  0  0  0
  2 84  1  0  0  0
  3  4  1  0  0  0
  3 85  1  0  0  0
  3 86  1  0  0  0
  4  5  1  0  0  0
  4 87  1  0  0  0
  4 88  1  0  0  0
  5  6  1  0  0  0
  5 26  1  0  0  0
  5 89  1  0  0  0
  6 25  1  0  0  0
  6 90  1  0  0  0
  6 91  1  0  0  0
  7  8  2  0  0  0
  7 26  1  0  0  0
  7 29  1  0  0  0
  8  9  1  0  0  0
  8 22  1  0  0  0
  9 10  1  0  0  0
  9 27  2  0  0  0
 10 11  2  0  0  0
 10 15  1  0  0  0
 11 12  1  0  0  0
 11 92  1  0  0  0
 12 13  2  0  0  0
 12 93  1  0  0  0
 13 14  1  0  0  0
 13 31  1  0  0  0
 14 15  2  0  0  0
 14 94  1  0  0  0
 15 95  1  0  0  0
 16 17  2  0  0  0
 16 21  1  0  0  0
 16 31  1  0  0  0
 17 18  1  0  0  0
 17 96  1  0  0  0
 18 19  2  0  0  0
 18 97  1  0  0  0
 19 20  1  0  0  0
 19 24  1  0  0  0
 20 21  2  0  0  0
 20 98  1  0  0  0
 21 23  1  0  0  0
 22 28  1  0  0  0
 22 32  2  0  0  0
 26 27  1  0  0  0
 28 99  1  0  0  0
 28100  1  0  0  0
 29101  1  0  0  0
 29102  1  0  0  0
 33 34  1  0  0  0
 33 66  1  0  0  0
 33 70  2  0  0  0
 34 36  1  0  0  0
 34 59  1  0  0  0
 34103  1  0  0  0
 35 44  2  0  0  0
 35 45  1  0  0  0
 35 68  1  0  0  0
 36 56  1  0  0  0
 36104  1  0  0  0
 37 39  1  0  0  0
 37 47  1  0  0  0
 37 66  1  0  0  0
 37105  1  0  0  0
 38 43  2  0  0  0
 38 46  1  0  0  0
 38 47  1  0  0  0
 39 64  1  0  0  0
 39 67  2  0  0  0
 40 52  1  0  0  0
 40 53  2  0  0  0
 40 58  1  0  0  0
 41106  1  0  0  0
 41107  1  0  0  0
 41108  1  0  0  0
 41 48  1  0  0  0
 42 43  1  0  0  0
 42 66  1  0  0  0
 42109  1  0  0  0
 42110  1  0  0  0
 43 44  1  0  0  0
 44111  1  0  0  0
 45 46  2  0  0  0
 45112  1  0  0  0
 46113  1  0  0  0
 47114  1  0  0  0
 47115  1  0  0  0
 48 56  1  0  0  0
 48 65  1  0  0  0
 48116  1  0  0  0
 49 50  1  0  0  0
 49 53  1  0  0  0
 49 64  1  0  0  0
 49117  1  0  0  0
 50 51  1  0  0  0
 50118  1  0  0  0
 50119  1  0  0  0
 51 52  1  0  0  0
 51120  1  0  0  0
 51121  1  0  0  0
 52122  1  0  0  0
 52123  1  0  0  0
 53 54  1  0  0  0
 54 55  2  0  0  0
 54124  1  0  0  0
 55 57  1  0  0  0
 55125  1  0  0  0
 56 69  2  0  0  0
 57 58  2  0  0  0
 57126  1  0  0  0
 58127  1  0  0  0
 59 60  1  0  0  0
 59 61  1  0  0  0
 59 62  1  0  0  0
 60128  1  0  0  0
 60129  1  0  0  0
 60130  1  0  0  0
 61131  1  0  0  0
 61132  1  0  0  0
 61133  1  0  0  0
 62134  1  0  0  0
 62135  1  0  0  0
 62136  1  0  0  0
 63 65  1  0  0  0
 63137  1  0  0  0
 63138  1  0  0  0
 63139  1  0  0  0
 64140  1  0  0  0
 65141  1  0  0  0
 68 78  1  0  0  0
 71 72  2  0  0  0
 71 74  1  0  0  0
 71142  1  0  0  0
 72 76  1  0  0  0
 72143  1  0  0  0
 73 75  1  0  0  0
 73 76  2  0  0  0
 73144  1  0  0  0
 74 75  2  0  0  0
 74 78  1  0  0  0
 75 77  1  0  0  0
 76 81  1  0  0  0
 77145  1  0  0  0
 77146  1  0  0  0
 77147  1  0  0  0
 78148  1  0  0  0
 78149  1  0  0  0
 79 80  1  0  0  0
 79 81  1  0  0  0
 79150  1  0  0  0
 79151  1  0  0  0
 80 82  1  0  0  0
 80152  1  0  0  0
 80153  1  0  0  0
 81154  1  0  0  0
 82155  1  0  0  0
M  ISO  4   1 100  68 101  78 101  82 100
M  END
> <chiral flag>
0

> <version>
0

> <s_m_source_file>
/data/baiqing/PycharmProjects/Reinvent-master-3.2/result/LINK_invent/BTK/process_docking_weight1_custom_sum_contain_oxygen_bond_distance_aromatic_linkinvent_7_9_3/rearranged_h_0133.sdf

> <i_m_source_file_index>
21

> <r_mmod_Potential_Energy-OPLS-2005>
35.0872764587402

> <r_mmod_Stretch_Energy-OPLS-2005>
84.3039627075195

> <r_mmod_Bend_Energy-OPLS-2005>
175.285797119141

> <r_mmod_Torsional_Energy-OPLS-2005>
208.076538085938

> <r_mmod_Improper_Torsional_Energy-OPLS-2005>
5.13983345031738

> <r_mmod_Van_der_Waal_Energy-OPLS-2005>
140.323379516602

> <r_mmod_Electrostatic_Energy-OPLS-2005>
-411.671081542969

> <r_mmod_Solvation_Energy-OPLS-2005>
-219.888763427734

> <b_mmod_Minimization_Converged-OPLS-2005>
0

> <r_mmod_RMS_Derivative-OPLS-2005>
3.49985432624817

$$$$
21
                    3D
 Structure written by MMmdl.
154162  0  0  1  0            999 V2000
  -30.7245  -14.4355   20.6266 C   0  0  0  0  0  0
  -30.4229  -12.3077   19.4070 C   0  0  0  0  0  0
  -29.4889  -12.5150   18.1983 C   0  0  0  0  0  0
  -28.0121  -12.3705   18.6149 C   0  0  0  0  0  0
  -27.6634  -13.2038   19.8768 C   0  0  2  0  0  0
  -28.7042  -12.9654   20.9929 C   0  0  0  0  0  0
  -25.2594  -13.8154   20.5674 C   0  0  0  0  0  0
  -24.1839  -13.0437   20.9166 C   0  0  0  0  0  0
  -24.6389  -11.6902   20.8728 C   0  0  0  0  0  0
  -23.9054  -10.4291   21.0401 C   0  0  0  0  0  0
  -24.3609   -9.4208   21.9181 C   0  0  0  0  0  0
  -23.6286   -8.2243   22.0752 C   0  0  0  0  0  0
  -22.4269   -8.0280   21.3543 C   0  0  0  0  0  0
  -21.9901   -9.0253   20.4645 C   0  0  0  0  0  0
  -22.7227  -10.2132   20.3052 C   0  0  0  0  0  0
  -21.6852   -6.0735   22.5280 C   0  0  0  0  0  0
  -21.4014   -6.5639   23.8213 C   0  0  0  0  0  0
  -21.3658   -5.6791   24.9175 C   0  0  0  0  0  0
  -21.6043   -4.3054   24.7225 C   0  0  0  0  0  0
  -21.8819   -3.8146   23.4346 C   0  0  0  0  0  0
  -21.9193   -4.6962   22.3403 C   0  0  0  0  0  0
  -22.7863  -13.5240   21.1838 C   0  0  0  0  0  0
  -22.1662   -4.2149   21.0979 F   0  0  0  0  0  0
  -21.5628   -3.4537   25.7738 F   0  0  0  0  0  0
  -30.0378  -13.2752   20.4459 N   0  0  0  0  0  0
  -26.3031  -12.9319   20.3372 N   0  0  0  0  0  0
  -25.9315  -11.6480   20.5761 N   0  0  0  0  0  0
  -22.0505  -12.8234   22.0397 N   0  0  0  0  0  0
  -25.4329  -15.1869   20.4087 N   0  0  0  0  0  0
  -31.8122  -14.6668   20.0914 O   0  0  0  0  0  0
  -21.6636   -6.8876   21.4241 O   0  0  0  0  0  0
  -22.3550  -14.5552   20.6696 O   0  0  0  0  0  0
  -24.6150  -31.8687   23.2108 C   0  0  0  0  0  0
  -25.9043  -32.4827   23.8402 C   0  0  1  0  0  0
  -27.2314  -27.4319   20.0958 C   0  0  0  0  0  0
  -25.5902  -33.8625   24.2335 N   0  0  0  0  0  0
  -23.4023  -30.4932   21.5519 C   0  0  2  0  0  0
  -24.8477  -28.9601   20.1166 C   0  0  0  0  0  0
  -22.7408  -29.4666   22.4996 C   0  0  0  0  0  0
  -18.0272  -28.1375   22.8495 C   0  0  0  0  0  0
  -24.1487  -36.7315   23.2638 C   0  0  0  0  0  0
  -25.9323  -30.8338   21.3643 C   0  0  0  0  0  0
  -26.0094  -29.4685   20.7109 C   0  0  0  0  0  0
  -27.2056  -28.7135   20.6941 C   0  0  0  0  0  0
  -26.0518  -26.9444   19.4879 C   0  0  0  0  0  0
  -24.8641  -27.6975   19.5019 C   0  0  0  0  0  0
  -23.6101  -29.8270   20.1664 C   0  0  0  0  0  0
  -25.4107  -36.3114   24.0339 C   0  0  1  0  0  0
  -20.5863  -28.3663   23.1320 C   0  0  2  0  0  0
  -20.6764  -26.9400   22.5418 C   0  0  0  0  0  0
  -19.5742  -26.6385   21.5214 C   0  0  0  0  0  0
  -18.1920  -26.7923   22.1624 C   0  0  0  0  0  0
  -19.1521  -28.8835   23.2907 C   0  0  0  0  0  0
  -18.9450  -30.1441   23.8916 C   0  0  0  0  0  0
  -17.6451  -30.6584   24.0566 C   0  0  0  0  0  0
  -25.9034  -34.9479   23.5132 C   0  0  0  0  0  0
  -16.5343  -29.9086   23.6326 C   0  0  0  0  0  0
  -16.7261  -28.6501   23.0350 C   0  0  0  0  0  0
  -26.4471  -31.6600   25.0726 C   0  0  0  0  0  0
  -25.3740  -31.3701   26.1477 C   0  0  0  0  0  0
  -27.0299  -30.3044   24.6094 C   0  0  0  0  0  0
  -27.6055  -32.4313   25.7482 C   0  0  0  0  0  0
  -27.5581  -37.1812   24.8466 C   0  0  0  0  0  0
  -21.4137  -29.3034   22.3730 N   0  0  0  0  0  0
  -26.4296  -37.3796   23.9407 N   0  0  0  0  0  0
  -24.6682  -31.0791   22.1008 N   0  0  0  0  0  0
  -23.4183  -28.8205   23.3033 O   0  0  0  0  0  0
  -28.3964  -26.6926   20.0900 O   0  0  0  0  0  0
  -26.5594  -34.8930   22.4693 O   0  0  0  0  0  0
  -23.5342  -32.1437   23.7504 O   0  0  0  0  0  0
  -28.4632  -22.4006   21.1883 C   0  0  0  0  0  0
  -30.5080  -22.1568   19.9102 C   0  0  0  0  0  0
  -28.4862  -21.0179   21.4751 C   0  0  0  0  0  0
  -30.5250  -20.7704   20.1896 C   0  0  0  0  0  0
  -29.4780  -22.9963   20.4012 C   0  0  0  0  0  0
  -29.5137  -20.1827   20.9858 C   0  0  0  0  0  0
  -29.5014  -24.4721   20.0999 C   0  0  0  0  0  0
  -28.2495  -25.3026   20.4496 C   0  0  0  0  0  0
  -30.3465  -17.7880   20.7642 C   0  0  0  0  0  0
  -30.6489  -16.6613   21.7838 C   0  0  0  0  0  0
  -29.4779  -18.8183   21.3375 N   0  0  0  0  0  0
  -30.1141  -15.3545   21.3911 N   0  0  0  0  0  0
  -30.4708  -25.0252   19.5666 O   0  0  0  0  0  0
  -31.4653  -12.4147   19.1017 H   0  0  0  0  0  0
  -30.3307  -11.2912   19.7924 H   0  0  0  0  0  0
  -29.7261  -11.7978   17.4112 H   0  0  0  0  0  0
  -29.6544  -13.5051   17.7703 H   0  0  0  0  0  0
  -27.8235  -11.3134   18.8061 H   0  0  0  0  0  0
  -27.3584  -12.6496   17.7878 H   0  0  0  0  0  0
  -27.7145  -14.2547   19.5910 H   0  0  0  0  0  0
  -28.6792  -11.9233   21.3149 H   0  0  0  0  0  0
  -28.4562  -13.5442   21.8832 H   0  0  0  0  0  0
  -25.2756   -9.5686   22.4751 H   0  0  0  0  0  0
  -23.9999   -7.4635   22.7470 H   0  0  0  0  0  0
  -21.0833   -8.8769   19.8951 H   0  0  0  0  0  0
  -22.3686  -10.9670   19.6158 H   0  0  0  0  0  0
  -21.2006   -7.6147   23.9716 H   0  0  0  0  0  0
  -21.1479   -6.0521   25.9078 H   0  0  0  0  0  0
  -22.0599   -2.7609   23.2847 H   0  0  0  0  0  0
  -22.4117  -11.9889   22.4778 H   0  0  0  0  0  0
  -21.1128  -13.1265   22.2613 H   0  0  0  0  0  0
  -24.6704  -15.8465   20.5190 H   0  0  0  0  0  0
  -26.2935  -15.6245   20.1029 H   0  0  0  0  0  0
  -26.7116  -32.5539   23.1169 H   0  0  0  0  0  0
  -25.0065  -33.9789   25.0488 H   0  0  0  0  0  0
  -22.6911  -31.3102   21.4139 H   0  0  0  0  0  0
  -23.3747  -35.9652   23.3316 H   0  0  0  0  0  0
  -24.3582  -36.8912   22.2050 H   0  0  0  0  0  0
  -23.7246  -37.6528   23.6641 H   0  0  0  0  0  0
  -26.0452  -31.6004   20.5965 H   0  0  0  0  0  0
  -26.8200  -30.8862   21.9828 H   0  0  0  0  0  0
  -28.1038  -29.1040   21.1519 H   0  0  0  0  0  0
  -26.0342  -25.9918   18.9798 H   0  0  0  0  0  0
  -23.9734  -27.3044   19.0312 H   0  0  0  0  0  0
  -23.7181  -30.6024   19.4072 H   0  0  0  0  0  0
  -22.7339  -29.2472   19.8704 H   0  0  0  0  0  0
  -25.1284  -36.1984   25.0833 H   0  0  0  0  0  0
  -20.9955  -28.3225   24.1440 H   0  0  0  0  0  0
  -20.5672  -26.2268   23.3603 H   0  0  0  0  0  0
  -21.6634  -26.7447   22.1206 H   0  0  0  0  0  0
  -19.6905  -25.6301   21.1231 H   0  0  0  0  0  0
  -19.6681  -27.3208   20.6755 H   0  0  0  0  0  0
  -17.4191  -26.6676   21.4025 H   0  0  0  0  0  0
  -18.0319  -26.0057   22.9013 H   0  0  0  0  0  0
  -19.7926  -30.7252   24.2293 H   0  0  0  0  0  0
  -17.5008  -31.6267   24.5161 H   0  0  0  0  0  0
  -15.5345  -30.2995   23.7639 H   0  0  0  0  0  0
  -15.8659  -28.0827   22.7058 H   0  0  0  0  0  0
  -24.5911  -30.7050   25.7812 H   0  0  0  0  0  0
  -24.8933  -32.2854   26.4939 H   0  0  0  0  0  0
  -25.8096  -30.8858   27.0226 H   0  0  0  0  0  0
  -26.2838  -29.6809   24.1152 H   0  0  0  0  0  0
  -27.4078  -29.7276   25.4545 H   0  0  0  0  0  0
  -27.8671  -30.4365   23.9235 H   0  0  0  0  0  0
  -27.2682  -33.3603   26.2092 H   0  0  0  0  0  0
  -28.3845  -32.6889   25.0294 H   0  0  0  0  0  0
  -28.0745  -31.8417   26.5368 H   0  0  0  0  0  0
  -28.2610  -38.0099   24.7505 H   0  0  0  0  0  0
  -28.1066  -36.2632   24.6302 H   0  0  0  0  0  0
  -27.2299  -37.1474   25.8870 H   0  0  0  0  0  0
  -20.9295  -29.8762   21.6959 H   0  0  0  0  0  0
  -26.0189  -38.2877   24.1401 H   0  0  0  0  0  0
  -27.6547  -22.9895   21.5969 H   0  0  0  0  0  0
  -31.3030  -22.5743   19.3073 H   0  0  0  0  0  0
  -27.6971  -20.6051   22.0886 H   0  0  0  0  0  0
  -31.3377  -20.1864   19.7857 H   0  0  0  0  0  0
  -28.0685  -25.2387   21.5226 H   0  0  0  0  0  0
  -27.4072  -24.8294   19.9497 H   0  0  0  0  0  0
  -29.8808  -17.3868   19.8625 H   0  0  0  0  0  0
  -31.2987  -18.2136   20.4506 H   0  0  0  0  0  0
  -30.2583  -16.9056   22.7728 H   0  0  0  0  0  0
  -31.7295  -16.5795   21.9188 H   0  0  0  0  0  0
  -28.6808  -18.4900   21.8771 H   0  0  0  0  0  0
  -29.2147  -15.0973   21.7696 H   0  0  0  0  0  0
  1 25  1  0  0  0
  1 30  2  0  0  0
  1 82  1  0  0  0
  2  3  1  0  0  0
  2 25  1  0  0  0
  2 84  1  0  0  0
  2 85  1  0  0  0
  3  4  1  0  0  0
  3 86  1  0  0  0
  3 87  1  0  0  0
  4  5  1  0  0  0
  4 88  1  0  0  0
  4 89  1  0  0  0
  5  6  1  0  0  0
  5 26  1  0  0  0
  5 90  1  0  0  0
  6 25  1  0  0  0
  6 91  1  0  0  0
  6 92  1  0  0  0
  7  8  2  0  0  0
  7 26  1  0  0  0
  7 29  1  0  0  0
  8  9  1  0  0  0
  8 22  1  0  0  0
  9 10  1  0  0  0
  9 27  2  0  0  0
 10 11  2  0  0  0
 10 15  1  0  0  0
 11 12  1  0  0  0
 11 93  1  0  0  0
 12 13  2  0  0  0
 12 94  1  0  0  0
 13 14  1  0  0  0
 13 31  1  0  0  0
 14 15  2  0  0  0
 14 95  1  0  0  0
 15 96  1  0  0  0
 16 17  2  0  0  0
 16 21  1  0  0  0
 16 31  1  0  0  0
 17 18  1  0  0  0
 17 97  1  0  0  0
 18 19  2  0  0  0
 18 98  1  0  0  0
 19 20  1  0  0  0
 19 24  1  0  0  0
 20 21  2  0  0  0
 20 99  1  0  0  0
 21 23  1  0  0  0
 22 28  1  0  0  0
 22 32  2  0  0  0
 26 27  1  0  0  0
 28100  1  0  0  0
 28101  1  0  0  0
 29102  1  0  0  0
 29103  1  0  0  0
 33 34  1  0  0  0
 33 66  1  0  0  0
 33 70  2  0  0  0
 34 36  1  0  0  0
 34 59  1  0  0  0
 34104  1  0  0  0
 35 44  2  0  0  0
 35 45  1  0  0  0
 35 68  1  0  0  0
 36 56  1  0  0  0
 36105  1  0  0  0
 37 39  1  0  0  0
 37 47  1  0  0  0
 37 66  1  0  0  0
 37106  1  0  0  0
 38 43  2  0  0  0
 38 46  1  0  0  0
 38 47  1  0  0  0
 39 64  1  0  0  0
 39 67  2  0  0  0
 40 52  1  0  0  0
 40 53  2  0  0  0
 40 58  1  0  0  0
 41107  1  0  0  0
 41108  1  0  0  0
 41109  1  0  0  0
 41 48  1  0  0  0
 42 43  1  0  0  0
 42 66  1  0  0  0
 42110  1  0  0  0
 42111  1  0  0  0
 43 44  1  0  0  0
 44112  1  0  0  0
 45 46  2  0  0  0
 45113  1  0  0  0
 46114  1  0  0  0
 47115  1  0  0  0
 47116  1  0  0  0
 48 56  1  0  0  0
 48 65  1  0  0  0
 48117  1  0  0  0
 49 50  1  0  0  0
 49 53  1  0  0  0
 49 64  1  0  0  0
 49118  1  0  0  0
 50 51  1  0  0  0
 50119  1  0  0  0
 50120  1  0  0  0
 51 52  1  0  0  0
 51121  1  0  0  0
 51122  1  0  0  0
 52123  1  0  0  0
 52124  1  0  0  0
 53 54  1  0  0  0
 54 55  2  0  0  0
 54125  1  0  0  0
 55 57  1  0  0  0
 55126  1  0  0  0
 56 69  2  0  0  0
 57 58  2  0  0  0
 57127  1  0  0  0
 58128  1  0  0  0
 59 60  1  0  0  0
 59 61  1  0  0  0
 59 62  1  0  0  0
 60129  1  0  0  0
 60130  1  0  0  0
 60131  1  0  0  0
 61132  1  0  0  0
 61133  1  0  0  0
 61134  1  0  0  0
 62135  1  0  0  0
 62136  1  0  0  0
 62137  1  0  0  0
 63 65  1  0  0  0
 63138  1  0  0  0
 63139  1  0  0  0
 63140  1  0  0  0
 64141  1  0  0  0
 65142  1  0  0  0
 68 78  1  0  0  0
 71 73  2  0  0  0
 71 75  1  0  0  0
 71143  1  0  0  0
 72 74  1  0  0  0
 72 75  2  0  0  0
 72144  1  0  0  0
 73 76  1  0  0  0
 73145  1  0  0  0
 74 76  2  0  0  0
 74146  1  0  0  0
 75 77  1  0  0  0
 76 81  1  0  0  0
 77 78  1  0  0  0
 77 83  2  0  0  0
 78147  1  0  0  0
 78148  1  0  0  0
 79 80  1  0  0  0
 79 81  1  0  0  0
 79149  1  0  0  0
 79150  1  0  0  0
 80 82  1  0  0  0
 80151  1  0  0  0
 80152  1  0  0  0
 81153  1  0  0  0
 82154  1  0  0  0
M  ISO  4   1 100  68 101  78 101  82 100
M  END
> <chiral flag>
0

> <version>
0

> <s_m_source_file>
/data/baiqing/PycharmProjects/Reinvent-master-3.2/result/LINK_invent/BTK/process_docking_weight1_custom_sum_contain_oxygen_bond_distance_aromatic_linkinvent_7_9_3/rearranged_h_0133.sdf

> <i_m_source_file_index>
22

> <r_mmod_Potential_Energy-OPLS-2005>
-76.0558700561523

> <r_mmod_Stretch_Energy-OPLS-2005>
38.0041275024414

> <r_mmod_Bend_Energy-OPLS-2005>
104.804718017578

> <r_mmod_Torsional_Energy-OPLS-2005>
224.515991210938

> <r_mmod_Improper_Torsional_Energy-OPLS-2005>
2.41318583488464

> <r_mmod_Van_der_Waal_Energy-OPLS-2005>
160.318832397461

> <r_mmod_Electrostatic_Energy-OPLS-2005>
-377.475036621094

> <r_mmod_Solvation_Energy-OPLS-2005>
-238.641784667969

> <b_mmod_Minimization_Converged-OPLS-2005>
0

> <r_mmod_RMS_Derivative-OPLS-2005>
0.234686657786369

$$$$
22
                    3D
 Structure written by MMmdl.
172181  0  0  1  0            999 V2000
  -30.5908  -14.7281   20.4707 C   0  0  0  0  0  0
  -30.4373  -12.4483   19.4585 C   0  0  0  0  0  0
  -29.5072  -12.4964   18.2263 C   0  0  0  0  0  0
  -28.0334  -12.3190   18.6447 C   0  0  0  0  0  0
  -27.6387  -13.2204   19.8449 C   0  0  2  0  0  0
  -28.6850  -13.1457   20.9775 C   0  0  0  0  0  0
  -25.2514  -13.8169   20.5674 C   0  0  0  0  0  0
  -24.1800  -13.0425   20.9206 C   0  0  0  0  0  0
  -24.6375  -11.6905   20.8750 C   0  0  0  0  0  0
  -23.9049  -10.4287   21.0408 C   0  0  0  0  0  0
  -24.3601   -9.4207   21.9188 C   0  0  0  0  0  0
  -23.6282   -8.2241   22.0757 C   0  0  0  0  0  0
  -22.4275   -8.0271   21.3537 C   0  0  0  0  0  0
  -21.9900   -9.0245   20.4640 C   0  0  0  0  0  0
  -22.7225  -10.2130   20.3051 C   0  0  0  0  0  0
  -21.6849   -6.0729   22.5277 C   0  0  0  0  0  0
  -21.4012   -6.5634   23.8211 C   0  0  0  0  0  0
  -21.3662   -5.6791   24.9174 C   0  0  0  0  0  0
  -21.6045   -4.3052   24.7227 C   0  0  0  0  0  0
  -21.8821   -3.8145   23.4347 C   0  0  0  0  0  0
  -21.9193   -4.6956   22.3403 C   0  0  0  0  0  0
  -22.7831  -13.5223   21.1866 C   0  0  0  0  0  0
  -22.1666   -4.2143   21.0977 F   0  0  0  0  0  0
  -21.5629   -3.4534   25.7739 F   0  0  0  0  0  0
  -29.9813  -13.5001   20.3881 N   0  0  0  0  0  0
  -26.2914  -12.9346   20.3240 N   0  0  0  0  0  0
  -25.9293  -11.6506   20.5740 N   0  0  0  0  0  0
  -22.0464  -12.8215   22.0413 N   0  0  0  0  0  0
  -25.4188  -15.1889   20.4097 N   0  0  0  0  0  0
  -31.7955  -14.8420   20.2229 O   0  0  0  0  0  0
  -21.6640   -6.8871   21.4242 O   0  0  0  0  0  0
  -22.3522  -14.5536   20.6719 O   0  0  0  0  0  0
  -24.6294  -31.8585   23.2006 C   0  0  0  0  0  0
  -25.9139  -32.4760   23.8349 C   0  0  1  0  0  0
  -27.2184  -27.2807   20.1221 C   0  0  0  0  0  0
  -25.5942  -33.8560   24.2265 N   0  0  0  0  0  0
  -23.4246  -30.4801   21.5442 C   0  0  2  0  0  0
  -24.8720  -28.9262   20.1146 C   0  0  0  0  0  0
  -22.7496  -29.4615   22.4932 C   0  0  0  0  0  0
  -18.0295  -28.1386   22.8488 C   0  0  0  0  0  0
  -24.1487  -36.7278   23.2645 C   0  0  0  0  0  0
  -25.9689  -30.7735   21.3799 C   0  0  0  0  0  0
  -26.0434  -29.3974   20.7219 C   0  0  0  0  0  0
  -27.2237  -28.5887   20.7117 C   0  0  0  0  0  0
  -26.0266  -26.8721   19.4879 C   0  0  0  0  0  0
  -24.8663  -27.6699   19.4875 C   0  0  0  0  0  0
  -23.6437  -29.8137   20.1606 C   0  0  0  0  0  0
  -25.4112  -36.3066   24.0327 C   0  0  1  0  0  0
  -20.5897  -28.3700   23.1281 C   0  0  2  0  0  0
  -20.6774  -26.9424   22.5409 C   0  0  0  0  0  0
  -19.5746  -26.6388   21.5209 C   0  0  0  0  0  0
  -18.1933  -26.7930   22.1626 C   0  0  0  0  0  0
  -19.1547  -28.8860   23.2877 C   0  0  0  0  0  0
  -18.9475  -30.1466   23.8884 C   0  0  0  0  0  0
  -17.6473  -30.6592   24.0567 C   0  0  0  0  0  0
  -25.9056  -34.9443   23.5093 C   0  0  0  0  0  0
  -16.5366  -29.9085   23.6340 C   0  0  0  0  0  0
  -16.7283  -28.6510   23.0345 C   0  0  0  0  0  0
  -26.4504  -31.6572   25.0732 C   0  0  0  0  0  0
  -25.3711  -31.3731   26.1441 C   0  0  0  0  0  0
  -27.0381  -30.2998   24.6221 C   0  0  0  0  0  0
  -27.6052  -32.4323   25.7511 C   0  0  0  0  0  0
  -27.5575  -37.1795   24.8472 C   0  0  0  0  0  0
  -21.4205  -29.3051   22.3682 N   0  0  0  0  0  0
  -26.4287  -37.3754   23.9416 N   0  0  0  0  0  0
  -24.6932  -31.0560   22.0973 N   0  0  0  0  0  0
  -23.4204  -28.8150   23.3025 O   0  0  0  0  0  0
  -28.3146  -26.3944   20.1186 O   0  0  0  0  0  0
  -26.5637  -34.8924   22.4674 O   0  0  0  0  0  0
  -23.5449  -32.1418   23.7290 O   0  0  0  0  0  0
  -30.7750  -17.4524   22.0918 C   0  0  0  0  0  0
  -29.4816  -18.4249   20.2607 C   0  0  0  0  0  0
  -30.9713  -18.7613   22.5615 C   0  0  0  0  0  0
  -30.5004  -19.8984   21.8937 C   0  0  0  0  0  0
  -29.7155  -19.7947   20.7135 C   0  0  0  0  0  0
  -30.0290  -17.2375   20.9142 C   0  0  0  0  0  0
  -31.7150  -19.1063   23.8198 C   0  0  0  0  0  0
  -31.5069  -20.6237   23.9620 C   0  0  0  0  0  0
  -30.9727  -21.1595   22.6054 C   0  0  1  0  0  0
  -32.4937  -23.2357   22.5326 C   0  0  0  0  0  0
  -33.2260  -21.1268   21.3217 C   0  0  0  0  0  0
  -28.5207  -25.1307   22.1230 C   0  0  0  0  0  0
  -29.2755  -21.1003   19.9006 C   0  0  0  0  0  0
  -28.8597  -23.7386   19.9563 C   0  0  0  0  0  0
  -32.0283  -21.9679   21.7980 C   0  0  0  0  0  0
  -28.1177  -25.0035   20.6487 C   0  0  2  0  0  0
  -29.7628  -15.8389   20.5217 N   0  0  0  0  0  0
  -28.7180  -22.3436   20.6086 N   0  3  0  0  0  0
  -31.4756  -12.5906   19.1548 H   0  0  0  0  0  0
  -30.3936  -11.4722   19.9432 H   0  0  0  0  0  0
  -29.7885  -11.7208   17.5130 H   0  0  0  0  0  0
  -29.6289  -13.4488   17.7077 H   0  0  0  0  0  0
  -27.8952  -11.2709   18.9125 H   0  0  0  0  0  0
  -27.3729  -12.5045   17.7970 H   0  0  0  0  0  0
  -27.6317  -14.2401   19.4608 H   0  0  0  0  0  0
  -28.7224  -12.1461   21.4120 H   0  0  0  0  0  0
  -28.4237  -13.8258   21.7903 H   0  0  0  0  0  0
  -25.2736   -9.5703   22.4768 H   0  0  0  0  0  0
  -23.9995   -7.4639   22.7481 H   0  0  0  0  0  0
  -21.0828   -8.8756   19.8937 H   0  0  0  0  0  0
  -22.3668  -10.9672   19.6162 H   0  0  0  0  0  0
  -21.2005   -7.6140   23.9711 H   0  0  0  0  0  0
  -21.1480   -6.0518   25.9077 H   0  0  0  0  0  0
  -22.0597   -2.7603   23.2846 H   0  0  0  0  0  0
  -22.4079  -11.9873   22.4802 H   0  0  0  0  0  0
  -21.1079  -13.1245   22.2615 H   0  0  0  0  0  0
  -24.6437  -15.8348   20.5158 H   0  0  0  0  0  0
  -26.2577  -15.6354   20.0646 H   0  0  0  0  0  0
  -26.7208  -32.5412   23.1095 H   0  0  0  0  0  0
  -25.0055  -33.9683   25.0384 H   0  0  0  0  0  0
  -22.7193  -31.2999   21.3966 H   0  0  0  0  0  0
  -23.3747  -35.9613   23.3302 H   0  0  0  0  0  0
  -24.3572  -36.8910   22.2064 H   0  0  0  0  0  0
  -23.7257  -37.6481   23.6680 H   0  0  0  0  0  0
  -26.1074  -31.5331   20.6095 H   0  0  0  0  0  0
  -26.8484  -30.8204   22.0118 H   0  0  0  0  0  0
  -28.1241  -28.9463   21.1917 H   0  0  0  0  0  0
  -25.9827  -25.9133   18.9912 H   0  0  0  0  0  0
  -23.9712  -27.3035   19.0043 H   0  0  0  0  0  0
  -23.7701  -30.5918   19.4073 H   0  0  0  0  0  0
  -22.7615  -29.2494   19.8539 H   0  0  0  0  0  0
  -25.1280  -36.1905   25.0814 H   0  0  0  0  0  0
  -20.9974  -28.3290   24.1404 H   0  0  0  0  0  0
  -20.5687  -26.2319   23.3614 H   0  0  0  0  0  0
  -21.6644  -26.7449   22.1202 H   0  0  0  0  0  0
  -19.6922  -25.6291   21.1254 H   0  0  0  0  0  0
  -19.6684  -27.3188   20.6734 H   0  0  0  0  0  0
  -17.4198  -26.6690   21.4035 H   0  0  0  0  0  0
  -18.0331  -26.0063   22.9016 H   0  0  0  0  0  0
  -19.7956  -30.7293   24.2237 H   0  0  0  0  0  0
  -17.5032  -31.6268   24.5186 H   0  0  0  0  0  0
  -15.5363  -30.2988   23.7668 H   0  0  0  0  0  0
  -15.8682  -28.0836   22.7037 H   0  0  0  0  0  0
  -24.5879  -30.7093   25.7773 H   0  0  0  0  0  0
  -24.8900  -32.2895   26.4871 H   0  0  0  0  0  0
  -25.7998  -30.8913   27.0234 H   0  0  0  0  0  0
  -26.2992  -29.6725   24.1227 H   0  0  0  0  0  0
  -27.4066  -29.7285   25.4758 H   0  0  0  0  0  0
  -27.8853  -30.4306   23.9480 H   0  0  0  0  0  0
  -27.2655  -33.3635   26.2063 H   0  0  0  0  0  0
  -28.3862  -32.6866   25.0331 H   0  0  0  0  0  0
  -28.0708  -31.8461   26.5446 H   0  0  0  0  0  0
  -28.2573  -38.0102   24.7491 H   0  0  0  0  0  0
  -28.1073  -36.2632   24.6297 H   0  0  0  0  0  0
  -27.2290  -37.1428   25.8870 H   0  0  0  0  0  0
  -20.9402  -29.8787   21.6886 H   0  0  0  0  0  0
  -26.0164  -38.2829   24.1402 H   0  0  0  0  0  0
  -31.1736  -16.6208   22.6576 H   0  0  0  0  0  0
  -28.8965  -18.2826   19.3623 H   0  0  0  0  0  0
  -32.7698  -18.8542   23.7058 H   0  0  0  0  0  0
  -31.3210  -18.5598   24.6782 H   0  0  0  0  0  0
  -32.3934  -21.1266   24.3426 H   0  0  0  0  0  0
  -30.7278  -20.7781   24.7093 H   0  0  0  0  0  0
  -30.1147  -21.7981   22.8155 H   0  0  0  0  0  0
  -31.6479  -23.8491   22.8420 H   0  0  0  0  0  0
  -33.1222  -23.8488   21.8864 H   0  0  0  0  0  0
  -33.0812  -23.0058   23.4201 H   0  0  0  0  0  0
  -32.9107  -20.3050   20.6779 H   0  0  0  0  0  0
  -33.7752  -20.7000   22.1605 H   0  0  0  0  0  0
  -33.9233  -21.7345   20.7442 H   0  0  0  0  0  0
  -28.3618  -24.2025   22.6705 H   0  0  0  0  0  0
  -27.9272  -25.9022   22.6148 H   0  0  0  0  0  0
  -29.5697  -25.4073   22.2228 H   0  0  0  0  0  0
  -28.5502  -20.8021   19.1423 H   0  0  0  0  0  0
  -30.1514  -21.4101   19.3316 H   0  0  0  0  0  0
  -29.9230  -23.9657   19.8732 H   0  0  0  0  0  0
  -28.4985  -23.6627   18.9310 H   0  0  0  0  0  0
  -31.5429  -22.3250   20.8925 H   0  0  0  0  0  0
  -27.0538  -24.7653   20.6370 H   0  0  0  0  0  0
  -28.7888  -15.6213   20.3794 H   0  0  0  0  0  0
  -29.1472  -22.3807   21.5169 H   0  0  0  0  0  0
  -27.7388  -22.1596   20.7607 H   0  0  0  0  0  0
  1 25  1  0  0  0
  1 30  2  0  0  0
  1 87  1  0  0  0
  2  3  1  0  0  0
  2 25  1  0  0  0
  2 89  1  0  0  0
  2 90  1  0  0  0
  3  4  1  0  0  0
  3 91  1  0  0  0
  3 92  1  0  0  0
  4  5  1  0  0  0
  4 93  1  0  0  0
  4 94  1  0  0  0
  5  6  1  0  0  0
  5 26  1  0  0  0
  5 95  1  0  0  0
  6 25  1  0  0  0
  6 96  1  0  0  0
  6 97  1  0  0  0
  7  8  2  0  0  0
  7 26  1  0  0  0
  7 29  1  0  0  0
  8  9  1  0  0  0
  8 22  1  0  0  0
  9 10  1  0  0  0
  9 27  2  0  0  0
 10 11  2  0  0  0
 10 15  1  0  0  0
 11 12  1  0  0  0
 11 98  1  0  0  0
 12 13  2  0  0  0
 12 99  1  0  0  0
 13 14  1  0  0  0
 13 31  1  0  0  0
 14 15  2  0  0  0
 14100  1  0  0  0
 15101  1  0  0  0
 16 17  2  0  0  0
 16 21  1  0  0  0
 16 31  1  0  0  0
 17 18  1  0  0  0
 17102  1  0  0  0
 18 19  2  0  0  0
 18103  1  0  0  0
 19 20  1  0  0  0
 19 24  1  0  0  0
 20 21  2  0  0  0
 20104  1  0  0  0
 21 23  1  0  0  0
 22 28  1  0  0  0
 22 32  2  0  0  0
 26 27  1  0  0  0
 28105  1  0  0  0
 28106  1  0  0  0
 29107  1  0  0  0
 29108  1  0  0  0
 33 34  1  0  0  0
 33 66  1  0  0  0
 33 70  2  0  0  0
 34 36  1  0  0  0
 34 59  1  0  0  0
 34109  1  0  0  0
 35 44  2  0  0  0
 35 45  1  0  0  0
 35 68  1  0  0  0
 36 56  1  0  0  0
 36110  1  0  0  0
 37 39  1  0  0  0
 37 47  1  0  0  0
 37 66  1  0  0  0
 37111  1  0  0  0
 38 43  2  0  0  0
 38 46  1  0  0  0
 38 47  1  0  0  0
 39 64  1  0  0  0
 39 67  2  0  0  0
 40 52  1  0  0  0
 40 53  2  0  0  0
 40 58  1  0  0  0
 41112  1  0  0  0
 41113  1  0  0  0
 41114  1  0  0  0
 41 48  1  0  0  0
 42 43  1  0  0  0
 42 66  1  0  0  0
 42115  1  0  0  0
 42116  1  0  0  0
 43 44  1  0  0  0
 44117  1  0  0  0
 45 46  2  0  0  0
 45118  1  0  0  0
 46119  1  0  0  0
 47120  1  0  0  0
 47121  1  0  0  0
 48 56  1  0  0  0
 48 65  1  0  0  0
 48122  1  0  0  0
 49 50  1  0  0  0
 49 53  1  0  0  0
 49 64  1  0  0  0
 49123  1  0  0  0
 50 51  1  0  0  0
 50124  1  0  0  0
 50125  1  0  0  0
 51 52  1  0  0  0
 51126  1  0  0  0
 51127  1  0  0  0
 52128  1  0  0  0
 52129  1  0  0  0
 53 54  1  0  0  0
 54 55  2  0  0  0
 54130  1  0  0  0
 55 57  1  0  0  0
 55131  1  0  0  0
 56 69  2  0  0  0
 57 58  2  0  0  0
 57132  1  0  0  0
 58133  1  0  0  0
 59 60  1  0  0  0
 59 61  1  0  0  0
 59 62  1  0  0  0
 60134  1  0  0  0
 60135  1  0  0  0
 60136  1  0  0  0
 61137  1  0  0  0
 61138  1  0  0  0
 61139  1  0  0  0
 62140  1  0  0  0
 62141  1  0  0  0
 62142  1  0  0  0
 63 65  1  0  0  0
 63143  1  0  0  0
 63144  1  0  0  0
 63145  1  0  0  0
 64146  1  0  0  0
 65147  1  0  0  0
 68 86  1  0  0  0
 71 73  2  0  0  0
 71 76  1  0  0  0
 71148  1  0  0  0
 72 75  1  0  0  0
 72 76  2  0  0  0
 72149  1  0  0  0
 73 74  1  0  0  0
 73 77  1  0  0  0
 74 75  2  0  0  0
 74 79  1  0  0  0
 75 83  1  0  0  0
 76 87  1  0  0  0
 77 78  1  0  0  0
 77150  1  0  0  0
 77151  1  0  0  0
 78152  1  0  0  0
 78153  1  0  0  0
 78 79  1  0  0  0
 79 85  1  0  0  0
 79154  1  0  0  0
 80155  1  0  0  0
 80156  1  0  0  0
 80157  1  0  0  0
 80 85  1  0  0  0
 81 85  1  0  0  0
 81158  1  0  0  0
 81159  1  0  0  0
 81160  1  0  0  0
 82161  1  0  0  0
 82162  1  0  0  0
 82163  1  0  0  0
 82 86  1  0  0  0
 83 88  1  0  0  0
 83164  1  0  0  0
 83165  1  0  0  0
 84 86  1  0  0  0
 84 88  1  0  0  0
 84166  1  0  0  0
 84167  1  0  0  0
 85168  1  0  0  0
 86169  1  0  0  0
 87170  1  0  0  0
 88171  1  0  0  0
 88172  1  0  0  0
M  CHG  1  88   1
M  ISO  4   1 100  68 101  86 101  87 100
M  END
> <chiral flag>
0

> <version>
0

> <s_m_source_file>
/data/baiqing/PycharmProjects/Reinvent-master-3.2/result/LINK_invent/BTK/process_docking_weight1_custom_sum_contain_oxygen_bond_distance_aromatic_linkinvent_7_9_3/rearranged_h_0133.sdf

> <i_m_source_file_index>
23

> <r_mmod_Potential_Energy-OPLS-2005>
39.4286346435547

> <r_mmod_Stretch_Energy-OPLS-2005>
117.763137817383

> <r_mmod_Bend_Energy-OPLS-2005>
194.325408935547

> <r_mmod_Torsional_Energy-OPLS-2005>
279.897033691406

> <r_mmod_Improper_Torsional_Energy-OPLS-2005>
8.68714904785156

> <r_mmod_Van_der_Waal_Energy-OPLS-2005>
123.973526000977

> <r_mmod_Electrostatic_Energy-OPLS-2005>
-314.6728515625

> <r_mmod_Solvation_Energy-OPLS-2005>
-448.975341796875

> <b_mmod_Minimization_Converged-OPLS-2005>
0

> <r_mmod_RMS_Derivative-OPLS-2005>
2.09244346618652

$$$$
23
                    3D
 Structure written by MMmdl.
157165  0  0  1  0            999 V2000
  -30.6253  -14.7336   20.4439 C   0  0  0  0  0  0
  -30.4300  -12.4427   19.4694 C   0  0  0  0  0  0
  -29.5053  -12.4936   18.2337 C   0  0  0  0  0  0
  -28.0333  -12.3252   18.6541 C   0  0  0  0  0  0
  -27.6421  -13.2313   19.8511 C   0  0  2  0  0  0
  -28.6908  -13.1664   20.9844 C   0  0  0  0  0  0
  -25.2526  -13.8204   20.5713 C   0  0  0  0  0  0
  -24.1815  -13.0453   20.9227 C   0  0  0  0  0  0
  -24.6394  -11.6924   20.8762 C   0  0  0  0  0  0
  -23.9079  -10.4292   21.0418 C   0  0  0  0  0  0
  -24.3629   -9.4201   21.9192 C   0  0  0  0  0  0
  -23.6297   -8.2241   22.0759 C   0  0  0  0  0  0
  -22.4281   -8.0286   21.3549 C   0  0  0  0  0  0
  -21.9920   -9.0263   20.4648 C   0  0  0  0  0  0
  -22.7251  -10.2138   20.3059 C   0  0  0  0  0  0
  -21.6854   -6.0739   22.5279 C   0  0  0  0  0  0
  -21.4007   -6.5637   23.8212 C   0  0  0  0  0  0
  -21.3660   -5.6793   24.9176 C   0  0  0  0  0  0
  -21.6046   -4.3058   24.7228 C   0  0  0  0  0  0
  -21.8821   -3.8147   23.4349 C   0  0  0  0  0  0
  -21.9190   -4.6964   22.3402 C   0  0  0  0  0  0
  -22.7826  -13.5227   21.1880 C   0  0  0  0  0  0
  -22.1664   -4.2150   21.0983 F   0  0  0  0  0  0
  -21.5633   -3.4539   25.7742 F   0  0  0  0  0  0
  -29.9915  -13.5113   20.3960 N   0  0  0  0  0  0
  -26.2948  -12.9396   20.3293 N   0  0  0  0  0  0
  -25.9327  -11.6547   20.5772 N   0  0  0  0  0  0
  -22.0478  -12.8210   22.0420 N   0  0  0  0  0  0
  -25.4241  -15.1918   20.4085 N   0  0  0  0  0  0
  -31.8120  -14.8254   20.1230 O   0  0  0  0  0  0
  -21.6645   -6.8883   21.4243 O   0  0  0  0  0  0
  -22.3512  -14.5546   20.6741 O   0  0  0  0  0  0
  -24.6306  -31.8560   23.1999 C   0  0  0  0  0  0
  -25.9127  -32.4763   23.8339 C   0  0  1  0  0  0
  -27.2140  -27.2421   20.1321 C   0  0  0  0  0  0
  -25.5928  -33.8566   24.2258 N   0  0  0  0  0  0
  -23.4278  -30.4800   21.5428 C   0  0  2  0  0  0
  -24.8742  -28.9262   20.1107 C   0  0  0  0  0  0
  -22.7494  -29.4614   22.4906 C   0  0  0  0  0  0
  -18.0289  -28.1411   22.8473 C   0  0  0  0  0  0
  -24.1493  -36.7284   23.2638 C   0  0  0  0  0  0
  -25.9755  -30.7639   21.3818 C   0  0  0  0  0  0
  -26.0456  -29.3845   20.7244 C   0  0  0  0  0  0
  -27.2146  -28.5540   20.7261 C   0  0  0  0  0  0
  -26.0177  -26.8648   19.4778 C   0  0  0  0  0  0
  -24.8676  -27.6767   19.4775 C   0  0  0  0  0  0
  -23.6463  -29.8142   20.1592 C   0  0  0  0  0  0
  -25.4126  -36.3073   24.0315 C   0  0  1  0  0  0
  -20.5889  -28.3736   23.1284 C   0  0  2  0  0  0
  -20.6782  -26.9449   22.5430 C   0  0  0  0  0  0
  -19.5768  -26.6390   21.5230 C   0  0  0  0  0  0
  -18.1943  -26.7942   22.1631 C   0  0  0  0  0  0
  -19.1536  -28.8887   23.2867 C   0  0  0  0  0  0
  -18.9463  -30.1490   23.8878 C   0  0  0  0  0  0
  -17.6463  -30.6617   24.0562 C   0  0  0  0  0  0
  -25.9064  -34.9444   23.5091 C   0  0  0  0  0  0
  -16.5358  -29.9108   23.6335 C   0  0  0  0  0  0
  -16.7274  -28.6529   23.0345 C   0  0  0  0  0  0
  -26.4493  -31.6597   25.0738 C   0  0  0  0  0  0
  -25.3701  -31.3743   26.1446 C   0  0  0  0  0  0
  -27.0334  -30.3010   24.6241 C   0  0  0  0  0  0
  -27.6049  -32.4338   25.7511 C   0  0  0  0  0  0
  -27.5579  -37.1803   24.8464 C   0  0  0  0  0  0
  -21.4195  -29.3078   22.3659 N   0  0  0  0  0  0
  -26.4293  -37.3777   23.9399 N   0  0  0  0  0  0
  -24.6970  -31.0517   22.0978 N   0  0  0  0  0  0
  -23.4191  -28.8139   23.2993 O   0  0  0  0  0  0
  -28.3170  -26.3521   20.2270 O   0  0  0  0  0  0
  -26.5648  -34.8918   22.4668 O   0  0  0  0  0  0
  -23.5458  -32.1371   23.7310 O   0  0  0  0  0  0
  -28.2680  -18.3914   21.5822 C   0  0  0  0  0  0
  -27.7630  -20.7842   21.4740 C   0  0  0  0  0  0
  -27.4518  -19.4835   21.9443 C   0  0  0  0  0  0
  -29.3766  -18.5676   20.7347 C   0  0  0  0  0  0
  -28.8640  -21.0089   20.6192 C   0  0  0  0  0  0
  -25.2774  -20.2095   22.8926 C   0  0  0  0  0  0
  -30.3072  -17.3247   20.3774 C   0  0  0  0  0  0
  -28.8043  -23.6768   20.7365 C   0  0  0  0  0  0
  -28.2763  -24.8967   19.8014 C   0  0  0  0  0  0
  -29.6093  -19.8713   20.2858 N   0  3  0  0  0  0
  -26.3509  -19.2303   22.7807 N   0  0  0  0  0  0
  -29.1492  -22.3353   20.0985 N   0  0  0  0  0  0
  -29.8686  -15.8795   20.6180 N   0  0  0  0  0  0
  -31.4696  -12.5576   19.1612 H   0  0  0  0  0  0
  -30.3720  -11.4681   19.9553 H   0  0  0  0  0  0
  -29.7804  -11.7144   17.5219 H   0  0  0  0  0  0
  -29.6356  -13.4424   17.7112 H   0  0  0  0  0  0
  -27.8937  -11.2782   18.9264 H   0  0  0  0  0  0
  -27.3717  -12.5074   17.8072 H   0  0  0  0  0  0
  -27.6367  -14.2519   19.4692 H   0  0  0  0  0  0
  -28.7239  -12.1686   21.4258 H   0  0  0  0  0  0
  -28.4310  -13.8508   21.7936 H   0  0  0  0  0  0
  -25.2775   -9.5673   22.4766 H   0  0  0  0  0  0
  -24.0007   -7.4626   22.7468 H   0  0  0  0  0  0
  -21.0859   -8.8773   19.8948 H   0  0  0  0  0  0
  -22.3709  -10.9681   19.6168 H   0  0  0  0  0  0
  -21.1994   -7.6146   23.9715 H   0  0  0  0  0  0
  -21.1484   -6.0525   25.9082 H   0  0  0  0  0  0
  -22.0599   -2.7611   23.2847 H   0  0  0  0  0  0
  -22.4113  -11.9850   22.4758 H   0  0  0  0  0  0
  -21.1099  -13.1220   22.2663 H   0  0  0  0  0  0
  -24.6437  -15.8363   20.4790 H   0  0  0  0  0  0
  -26.2411  -15.6075   19.9814 H   0  0  0  0  0  0
  -26.7186  -32.5421   23.1073 H   0  0  0  0  0  0
  -25.0009  -33.9718   25.0359 H   0  0  0  0  0  0
  -22.7232  -31.3017   21.3959 H   0  0  0  0  0  0
  -23.3760  -35.9612   23.3312 H   0  0  0  0  0  0
  -24.3561  -36.8906   22.2046 H   0  0  0  0  0  0
  -23.7249  -37.6487   23.6664 H   0  0  0  0  0  0
  -26.1157  -31.5250   20.6126 H   0  0  0  0  0  0
  -26.8531  -30.8157   22.0143 H   0  0  0  0  0  0
  -28.1094  -28.8982   21.2262 H   0  0  0  0  0  0
  -25.9157  -25.9256   18.9622 H   0  0  0  0  0  0
  -23.9714  -27.3268   18.9857 H   0  0  0  0  0  0
  -23.7735  -30.5907   19.4044 H   0  0  0  0  0  0
  -22.7646  -29.2474   19.8544 H   0  0  0  0  0  0
  -25.1319  -36.1909   25.0807 H   0  0  0  0  0  0
  -20.9980  -28.3338   24.1405 H   0  0  0  0  0  0
  -21.6661  -26.7499   22.1239 H   0  0  0  0  0  0
  -20.5691  -26.2336   23.3638 H   0  0  0  0  0  0
  -19.6954  -25.6288   21.1291 H   0  0  0  0  0  0
  -19.6720  -27.3170   20.6743 H   0  0  0  0  0  0
  -17.4217  -26.6668   21.4033 H   0  0  0  0  0  0
  -18.0359  -26.0114   22.9055 H   0  0  0  0  0  0
  -19.7929  -30.7319   24.2240 H   0  0  0  0  0  0
  -17.5016  -31.6294   24.5170 H   0  0  0  0  0  0
  -15.5354  -30.3003   23.7687 H   0  0  0  0  0  0
  -15.8670  -28.0846   22.7069 H   0  0  0  0  0  0
  -24.5897  -30.7079   25.7757 H   0  0  0  0  0  0
  -24.8868  -32.2908   26.4842 H   0  0  0  0  0  0
  -25.8004  -30.8932   27.0240 H   0  0  0  0  0  0
  -26.2919  -29.6765   24.1246 H   0  0  0  0  0  0
  -27.3974  -29.7278   25.4777 H   0  0  0  0  0  0
  -27.8822  -30.4281   23.9517 H   0  0  0  0  0  0
  -27.2666  -33.3647   26.2081 H   0  0  0  0  0  0
  -28.3867  -32.6887   25.0339 H   0  0  0  0  0  0
  -28.0712  -31.8463   26.5433 H   0  0  0  0  0  0
  -28.2607  -38.0090   24.7502 H   0  0  0  0  0  0
  -28.1067  -36.2620   24.6313 H   0  0  0  0  0  0
  -27.2287  -37.1482   25.8866 H   0  0  0  0  0  0
  -20.9380  -29.8804   21.6873 H   0  0  0  0  0  0
  -26.0171  -38.2848   24.1407 H   0  0  0  0  0  0
  -28.0474  -17.4080   21.9717 H   0  0  0  0  0  0
  -27.1408  -21.6163   21.7583 H   0  0  0  0  0  0
  -25.5793  -21.0420   23.5302 H   0  0  0  0  0  0
  -24.3944  -19.7490   23.3393 H   0  0  0  0  0  0
  -24.9854  -20.6017   21.9151 H   0  0  0  0  0  0
  -30.5858  -17.4194   19.3266 H   0  0  0  0  0  0
  -31.2376  -17.4643   20.9305 H   0  0  0  0  0  0
  -28.0999  -23.5307   21.5541 H   0  0  0  0  0  0
  -29.7232  -24.0114   21.2173 H   0  0  0  0  0  0
  -27.2834  -24.5812   19.5019 H   0  0  0  0  0  0
  -28.8584  -24.8702   18.8802 H   0  0  0  0  0  0
  -30.4111  -20.0034   19.6605 H   0  0  0  0  0  0
  -26.1046  -18.2562   22.9403 H   0  0  0  0  0  0
  -29.9128  -22.3938   19.4404 H   0  0  0  0  0  0
  -28.8904  -15.7370   20.8101 H   0  0  0  0  0  0
  1 25  1  0  0  0
  1 30  2  0  0  0
  1 83  1  0  0  0
  2  3  1  0  0  0
  2 25  1  0  0  0
  2 84  1  0  0  0
  2 85  1  0  0  0
  3  4  1  0  0  0
  3 86  1  0  0  0
  3 87  1  0  0  0
  4  5  1  0  0  0
  4 88  1  0  0  0
  4 89  1  0  0  0
  5  6  1  0  0  0
  5 26  1  0  0  0
  5 90  1  0  0  0
  6 25  1  0  0  0
  6 91  1  0  0  0
  6 92  1  0  0  0
  7  8  2  0  0  0
  7 26  1  0  0  0
  7 29  1  0  0  0
  8  9  1  0  0  0
  8 22  1  0  0  0
  9 10  1  0  0  0
  9 27  2  0  0  0
 10 11  2  0  0  0
 10 15  1  0  0  0
 11 12  1  0  0  0
 11 93  1  0  0  0
 12 13  2  0  0  0
 12 94  1  0  0  0
 13 14  1  0  0  0
 13 31  1  0  0  0
 14 15  2  0  0  0
 14 95  1  0  0  0
 15 96  1  0  0  0
 16 17  2  0  0  0
 16 21  1  0  0  0
 16 31  1  0  0  0
 17 18  1  0  0  0
 17 97  1  0  0  0
 18 19  2  0  0  0
 18 98  1  0  0  0
 19 20  1  0  0  0
 19 24  1  0  0  0
 20 21  2  0  0  0
 20 99  1  0  0  0
 21 23  1  0  0  0
 22 28  1  0  0  0
 22 32  2  0  0  0
 26 27  1  0  0  0
 28100  1  0  0  0
 28101  1  0  0  0
 29102  1  0  0  0
 29103  1  0  0  0
 33 34  1  0  0  0
 33 66  1  0  0  0
 33 70  2  0  0  0
 34 36  1  0  0  0
 34 59  1  0  0  0
 34104  1  0  0  0
 35 44  2  0  0  0
 35 45  1  0  0  0
 35 68  1  0  0  0
 36 56  1  0  0  0
 36105  1  0  0  0
 37 39  1  0  0  0
 37 47  1  0  0  0
 37 66  1  0  0  0
 37106  1  0  0  0
 38 43  2  0  0  0
 38 46  1  0  0  0
 38 47  1  0  0  0
 39 64  1  0  0  0
 39 67  2  0  0  0
 40 52  1  0  0  0
 40 53  2  0  0  0
 40 58  1  0  0  0
 41107  1  0  0  0
 41108  1  0  0  0
 41109  1  0  0  0
 41 48  1  0  0  0
 42 43  1  0  0  0
 42 66  1  0  0  0
 42110  1  0  0  0
 42111  1  0  0  0
 43 44  1  0  0  0
 44112  1  0  0  0
 45 46  2  0  0  0
 45113  1  0  0  0
 46114  1  0  0  0
 47115  1  0  0  0
 47116  1  0  0  0
 48 56  1  0  0  0
 48 65  1  0  0  0
 48117  1  0  0  0
 49 50  1  0  0  0
 49 53  1  0  0  0
 49 64  1  0  0  0
 49118  1  0  0  0
 50 51  1  0  0  0
 50119  1  0  0  0
 50120  1  0  0  0
 51 52  1  0  0  0
 51121  1  0  0  0
 51122  1  0  0  0
 52123  1  0  0  0
 52124  1  0  0  0
 53 54  1  0  0  0
 54 55  2  0  0  0
 54125  1  0  0  0
 55 57  1  0  0  0
 55126  1  0  0  0
 56 69  2  0  0  0
 57 58  2  0  0  0
 57127  1  0  0  0
 58128  1  0  0  0
 59 60  1  0  0  0
 59 61  1  0  0  0
 59 62  1  0  0  0
 60129  1  0  0  0
 60130  1  0  0  0
 60131  1  0  0  0
 61132  1  0  0  0
 61133  1  0  0  0
 61134  1  0  0  0
 62135  1  0  0  0
 62136  1  0  0  0
 62137  1  0  0  0
 63 65  1  0  0  0
 63138  1  0  0  0
 63139  1  0  0  0
 63140  1  0  0  0
 64141  1  0  0  0
 65142  1  0  0  0
 68 79  1  0  0  0
 71 73  2  0  0  0
 71 74  1  0  0  0
 71143  1  0  0  0
 72 73  1  0  0  0
 72 75  2  0  0  0
 72144  1  0  0  0
 73 81  1  0  0  0
 74 77  1  0  0  0
 74 80  2  0  0  0
 75 80  1  0  0  0
 75 82  1  0  0  0
 76 81  1  0  0  0
 76145  1  0  0  0
 76146  1  0  0  0
 76147  1  0  0  0
 77 83  1  0  0  0
 77148  1  0  0  0
 77149  1  0  0  0
 78 79  1  0  0  0
 78 82  1  0  0  0
 78150  1  0  0  0
 78151  1  0  0  0
 79152  1  0  0  0
 79153  1  0  0  0
 80154  1  0  0  0
 81155  1  0  0  0
 82156  1  0  0  0
 83157  1  0  0  0
M  CHG  1  80   1
M  ISO  4   1 100  68 101  79 101  83 100
M  END
> <chiral flag>
0

> <version>
0

> <s_m_source_file>
/data/baiqing/PycharmProjects/Reinvent-master-3.2/result/LINK_invent/BTK/process_docking_weight1_custom_sum_contain_oxygen_bond_distance_aromatic_linkinvent_7_9_3/rearranged_h_0133.sdf

> <i_m_source_file_index>
24

> <r_mmod_Potential_Energy-OPLS-2005>
-87.4515991210938

> <r_mmod_Stretch_Energy-OPLS-2005>
125.830017089844

> <r_mmod_Bend_Energy-OPLS-2005>
186.820983886719

> <r_mmod_Torsional_Energy-OPLS-2005>
188.406875610352

> <r_mmod_Improper_Torsional_Energy-OPLS-2005>
9.25441646575928

> <r_mmod_Van_der_Waal_Energy-OPLS-2005>
144.386840820312

> <r_mmod_Electrostatic_Energy-OPLS-2005>
-382.934509277344

> <r_mmod_Solvation_Energy-OPLS-2005>
-447.396789550781

> <b_mmod_Minimization_Converged-OPLS-2005>
0

> <r_mmod_RMS_Derivative-OPLS-2005>
2.60492157936096

$$$$
24
                    3D
 Structure written by MMmdl.
177187  0  0  1  0            999 V2000
  -30.7307  -14.5060   20.5289 C   0  0  0  0  0  0
  -30.4026  -12.3194   19.4383 C   0  0  0  0  0  0
  -29.4833  -12.4943   18.2134 C   0  0  0  0  0  0
  -28.0076  -12.3472   18.6273 C   0  0  0  0  0  0
  -27.6456  -13.2102   19.8666 C   0  0  2  0  0  0
  -28.6942  -13.0729   20.9956 C   0  0  0  0  0  0
  -25.2515  -13.8172   20.5697 C   0  0  0  0  0  0
  -24.1780  -13.0437   20.9185 C   0  0  0  0  0  0
  -24.6354  -11.6914   20.8764 C   0  0  0  0  0  0
  -23.9042  -10.4297   21.0427 C   0  0  0  0  0  0
  -24.3611   -9.4214   21.9196 C   0  0  0  0  0  0
  -23.6291   -8.2244   22.0765 C   0  0  0  0  0  0
  -22.4274   -8.0267   21.3546 C   0  0  0  0  0  0
  -21.9902   -9.0241   20.4655 C   0  0  0  0  0  0
  -22.7225  -10.2128   20.3066 C   0  0  0  0  0  0
  -21.6855   -6.0726   22.5281 C   0  0  0  0  0  0
  -21.4004   -6.5640   23.8203 C   0  0  0  0  0  0
  -21.3651   -5.6797   24.9174 C   0  0  0  0  0  0
  -21.6050   -4.3056   24.7234 C   0  0  0  0  0  0
  -21.8821   -3.8145   23.4357 C   0  0  0  0  0  0
  -21.9192   -4.6956   22.3413 C   0  0  0  0  0  0
  -22.7806  -13.5228   21.1861 C   0  0  0  0  0  0
  -22.1654   -4.2145   21.0993 F   0  0  0  0  0  0
  -21.5652   -3.4534   25.7749 F   0  0  0  0  0  0
  -30.0181  -13.3490   20.4211 N   0  0  0  0  0  0
  -26.2939  -12.9325   20.3387 N   0  0  0  0  0  0
  -25.9281  -11.6495   20.5823 N   0  0  0  0  0  0
  -22.0461  -12.8201   22.0407 N   0  0  0  0  0  0
  -25.4262  -15.1886   20.4120 N   0  0  0  0  0  0
  -31.8928  -14.5913   20.1196 O   0  0  0  0  0  0
  -21.6644   -6.8859   21.4240 O   0  0  0  0  0  0
  -22.3486  -14.5542   20.6719 O   0  0  0  0  0  0
  -24.6157  -31.8671   23.2089 C   0  0  0  0  0  0
  -25.9057  -32.4807   23.8388 C   0  0  1  0  0  0
  -27.2329  -27.4122   20.0986 C   0  0  0  0  0  0
  -25.5900  -33.8612   24.2305 N   0  0  0  0  0  0
  -23.4026  -30.4910   21.5492 C   0  0  2  0  0  0
  -24.8482  -28.9560   20.1130 C   0  0  0  0  0  0
  -22.7406  -29.4656   22.4979 C   0  0  0  0  0  0
  -18.0268  -28.1370   22.8489 C   0  0  0  0  0  0
  -24.1478  -36.7311   23.2633 C   0  0  0  0  0  0
  -25.9337  -30.8269   21.3640 C   0  0  0  0  0  0
  -26.0098  -29.4609   20.7081 C   0  0  0  0  0  0
  -27.2030  -28.7001   20.6915 C   0  0  0  0  0  0
  -26.0478  -26.9291   19.4962 C   0  0  0  0  0  0
  -24.8639  -27.6901   19.5029 C   0  0  0  0  0  0
  -23.6105  -29.8235   20.1634 C   0  0  0  0  0  0
  -25.4103  -36.3103   24.0323 C   0  0  1  0  0  0
  -20.5862  -28.3655   23.1304 C   0  0  2  0  0  0
  -20.6759  -26.9387   22.5416 C   0  0  0  0  0  0
  -19.5746  -26.6373   21.5208 C   0  0  0  0  0  0
  -18.1916  -26.7918   22.1610 C   0  0  0  0  0  0
  -19.1519  -28.8826   23.2898 C   0  0  0  0  0  0
  -18.9448  -30.1430   23.8919 C   0  0  0  0  0  0
  -17.6450  -30.6572   24.0565 C   0  0  0  0  0  0
  -25.9038  -34.9468   23.5118 C   0  0  0  0  0  0
  -16.5339  -29.9075   23.6323 C   0  0  0  0  0  0
  -16.7254  -28.6490   23.0346 C   0  0  0  0  0  0
  -26.4478  -31.6597   25.0722 C   0  0  0  0  0  0
  -25.3745  -31.3697   26.1464 C   0  0  0  0  0  0
  -27.0308  -30.3030   24.6122 C   0  0  0  0  0  0
  -27.6040  -32.4321   25.7498 C   0  0  0  0  0  0
  -27.5588  -37.1793   24.8441 C   0  0  0  0  0  0
  -21.4132  -29.3036   22.3722 N   0  0  0  0  0  0
  -26.4273  -37.3802   23.9427 N   0  0  0  0  0  0
  -24.6692  -31.0762   22.0983 N   0  0  0  0  0  0
  -23.4177  -28.8204   23.3028 O   0  0  0  0  0  0
  -28.4142  -26.6862   20.1289 O   0  0  0  0  0  0
  -26.5617  -34.8923   22.4684 O   0  0  0  0  0  0
  -23.5352  -32.1432   23.7477 O   0  0  0  0  0  0
  -32.0270  -18.8264   25.5373 C   0  0  0  0  0  0
  -29.9666  -23.2702   19.4541 C   0  0  0  0  0  0
  -27.8628  -22.9055   20.7839 C   0  0  0  0  0  0
  -31.5599  -17.7598   24.5509 C   0  0  0  0  0  0
  -29.8700  -24.7905   19.7228 C   0  0  0  0  0  0
  -27.7684  -24.4392   21.0204 C   0  0  0  0  0  0
  -28.9469  -17.8153   20.1893 C   0  0  0  0  0  0
  -29.6167  -16.4835   19.7875 C   0  0  0  0  0  0
  -30.7802  -16.4425   21.9579 C   0  0  0  0  0  0
  -31.1203  -20.0243   25.2359 C   0  0  0  0  0  0
  -30.1791  -17.8382   22.3393 C   0  0  1  0  0  0
  -29.3114  -22.4054   20.5611 C   0  0  1  0  0  0
  -31.1486  -18.5732   23.3131 C   0  0  1  0  0  0
  -28.4117  -25.2623   19.8748 C   0  0  1  0  0  0
  -29.8923  -18.6622   21.0551 C   0  0  2  0  0  0
  -29.4047  -20.8864   20.2018 C   0  0  0  0  0  0
  -30.0809  -15.6445   20.9180 N   0  0  0  0  0  0
  -30.5987  -19.8284   23.8673 N   0  3  0  0  0  0
  -29.3602  -19.9822   21.3243 O   0  0  0  0  0  0
  -31.4503  -12.3870   19.1381 H   0  0  0  0  0  0
  -30.2829  -11.3239   19.8680 H   0  0  0  0  0  0
  -29.7305  -11.7608   17.4454 H   0  0  0  0  0  0
  -29.6432  -13.4757   17.7649 H   0  0  0  0  0  0
  -27.8301  -11.2935   18.8432 H   0  0  0  0  0  0
  -27.3554  -12.5992   17.7907 H   0  0  0  0  0  0
  -27.6510  -14.2420   19.5282 H   0  0  0  0  0  0
  -28.6767  -12.0666   21.4168 H   0  0  0  0  0  0
  -28.4675  -13.7530   21.8194 H   0  0  0  0  0  0
  -25.2764   -9.5699   22.4775 H   0  0  0  0  0  0
  -24.0009   -7.4641   22.7485 H   0  0  0  0  0  0
  -21.0832   -8.8747   19.8960 H   0  0  0  0  0  0
  -22.3673  -10.9665   19.6175 H   0  0  0  0  0  0
  -21.1971   -7.6144   23.9698 H   0  0  0  0  0  0
  -21.1475   -6.0540   25.9077 H   0  0  0  0  0  0
  -22.0609   -2.7603   23.2869 H   0  0  0  0  0  0
  -22.4070  -11.9825   22.4740 H   0  0  0  0  0  0
  -21.1087  -13.1217   22.2669 H   0  0  0  0  0  0
  -24.6672  -15.8524   20.5274 H   0  0  0  0  0  0
  -26.2971  -15.6236   20.1370 H   0  0  0  0  0  0
  -26.7121  -32.5503   23.1147 H   0  0  0  0  0  0
  -25.0047  -33.9779   25.0449 H   0  0  0  0  0  0
  -22.6913  -31.3076   21.4086 H   0  0  0  0  0  0
  -23.3757  -35.9619   23.3235 H   0  0  0  0  0  0
  -24.3594  -36.9000   22.2063 H   0  0  0  0  0  0
  -23.7186  -37.6471   23.6701 H   0  0  0  0  0  0
  -26.0522  -31.5946   20.5986 H   0  0  0  0  0  0
  -26.8188  -30.8760   21.9857 H   0  0  0  0  0  0
  -28.1002  -29.0915   21.1495 H   0  0  0  0  0  0
  -26.0081  -25.9630   19.0164 H   0  0  0  0  0  0
  -23.9707  -27.2952   19.0368 H   0  0  0  0  0  0
  -23.7183  -30.5992   19.4046 H   0  0  0  0  0  0
  -22.7352  -29.2429   19.8678 H   0  0  0  0  0  0
  -25.1279  -36.1951   25.0812 H   0  0  0  0  0  0
  -20.9945  -28.3214   24.1426 H   0  0  0  0  0  0
  -20.5626  -26.2273   23.3606 H   0  0  0  0  0  0
  -21.6629  -26.7414   22.1216 H   0  0  0  0  0  0
  -19.6900  -25.6279   21.1239 H   0  0  0  0  0  0
  -19.6694  -27.3192   20.6745 H   0  0  0  0  0  0
  -17.4189  -26.6664   21.4004 H   0  0  0  0  0  0
  -18.0317  -26.0044   22.8991 H   0  0  0  0  0  0
  -19.7927  -30.7242   24.2292 H   0  0  0  0  0  0
  -17.5003  -31.6264   24.5153 H   0  0  0  0  0  0
  -15.5340  -30.2988   23.7633 H   0  0  0  0  0  0
  -15.8652  -28.0813   22.7059 H   0  0  0  0  0  0
  -24.5904  -30.7066   25.7790 H   0  0  0  0  0  0
  -24.8967  -32.2851   26.4966 H   0  0  0  0  0  0
  -25.8096  -30.8817   27.0194 H   0  0  0  0  0  0
  -26.2860  -29.6784   24.1171 H   0  0  0  0  0  0
  -27.4053  -29.7277   25.4603 H   0  0  0  0  0  0
  -27.8708  -30.4332   23.9289 H   0  0  0  0  0  0
  -27.2650  -33.3615   26.2091 H   0  0  0  0  0  0
  -28.3860  -32.6890   25.0337 H   0  0  0  0  0  0
  -28.0697  -31.8433   26.5412 H   0  0  0  0  0  0
  -28.2524  -38.0174   24.7613 H   0  0  0  0  0  0
  -28.1163  -36.2713   24.6098 H   0  0  0  0  0  0
  -27.2333  -37.1232   25.8844 H   0  0  0  0  0  0
  -20.9277  -29.8771   21.6964 H   0  0  0  0  0  0
  -26.0144  -38.2848   24.1519 H   0  0  0  0  0  0
  -33.0677  -19.0860   25.3397 H   0  0  0  0  0  0
  -31.9592  -18.4973   26.5749 H   0  0  0  0  0  0
  -31.0174  -22.9973   19.3490 H   0  0  0  0  0  0
  -29.5004  -23.0472   18.4934 H   0  0  0  0  0  0
  -27.2526  -22.6479   19.9170 H   0  0  0  0  0  0
  -27.4204  -22.3776   21.6286 H   0  0  0  0  0  0
  -30.7007  -17.2286   24.9634 H   0  0  0  0  0  0
  -32.3386  -17.0251   24.3406 H   0  0  0  0  0  0
  -30.3490  -25.3357   18.9078 H   0  0  0  0  0  0
  -30.4331  -25.0352   20.6246 H   0  0  0  0  0  0
  -28.2617  -24.6872   21.9610 H   0  0  0  0  0  0
  -26.7232  -24.7195   21.1474 H   0  0  0  0  0  0
  -28.0123  -17.6283   20.7197 H   0  0  0  0  0  0
  -28.6764  -18.3532   19.2807 H   0  0  0  0  0  0
  -30.4687  -16.7142   19.1436 H   0  0  0  0  0  0
  -28.9281  -15.9237   19.1578 H   0  0  0  0  0  0
  -30.8390  -15.8180   22.8511 H   0  0  0  0  0  0
  -31.8134  -16.6059   21.6401 H   0  0  0  0  0  0
  -31.6580  -20.9698   25.3258 H   0  0  0  0  0  0
  -30.2815  -20.0566   25.9318 H   0  0  0  0  0  0
  -29.2354  -17.6646   22.8585 H   0  0  0  0  0  0
  -29.8787  -22.5710   21.4772 H   0  0  0  0  0  0
  -32.0602  -18.8389   22.7743 H   0  0  0  0  0  0
  -27.9111  -25.0519   18.9295 H   0  0  0  0  0  0
  -30.8420  -18.7792   20.5291 H   0  0  0  0  0  0
  -30.3455  -20.7309   19.6717 H   0  0  0  0  0  0
  -28.6177  -20.6282   19.4937 H   0  0  0  0  0  0
  -30.8339  -20.6081   23.2718 H   0  0  0  0  0  0
  -29.5942  -19.7698   23.9091 H   0  0  0  0  0  0
  1 25  1  0  0  0
  1 30  2  0  0  0
  1 87  1  0  0  0
  2  3  1  0  0  0
  2 25  1  0  0  0
  2 90  1  0  0  0
  2 91  1  0  0  0
  3  4  1  0  0  0
  3 92  1  0  0  0
  3 93  1  0  0  0
  4  5  1  0  0  0
  4 94  1  0  0  0
  4 95  1  0  0  0
  5  6  1  0  0  0
  5 26  1  0  0  0
  5 96  1  0  0  0
  6 25  1  0  0  0
  6 97  1  0  0  0
  6 98  1  0  0  0
  7  8  2  0  0  0
  7 26  1  0  0  0
  7 29  1  0  0  0
  8  9  1  0  0  0
  8 22  1  0  0  0
  9 10  1  0  0  0
  9 27  2  0  0  0
 10 11  2  0  0  0
 10 15  1  0  0  0
 11 12  1  0  0  0
 11 99  1  0  0  0
 12 13  2  0  0  0
 12100  1  0  0  0
 13 14  1  0  0  0
 13 31  1  0  0  0
 14 15  2  0  0  0
 14101  1  0  0  0
 15102  1  0  0  0
 16 17  2  0  0  0
 16 21  1  0  0  0
 16 31  1  0  0  0
 17 18  1  0  0  0
 17103  1  0  0  0
 18 19  2  0  0  0
 18104  1  0  0  0
 19 20  1  0  0  0
 19 24  1  0  0  0
 20 21  2  0  0  0
 20105  1  0  0  0
 21 23  1  0  0  0
 22 28  1  0  0  0
 22 32  2  0  0  0
 26 27  1  0  0  0
 28106  1  0  0  0
 28107  1  0  0  0
 29108  1  0  0  0
 29109  1  0  0  0
 33 34  1  0  0  0
 33 66  1  0  0  0
 33 70  2  0  0  0
 34 36  1  0  0  0
 34 59  1  0  0  0
 34110  1  0  0  0
 35 44  2  0  0  0
 35 45  1  0  0  0
 35 68  1  0  0  0
 36 56  1  0  0  0
 36111  1  0  0  0
 37 39  1  0  0  0
 37 47  1  0  0  0
 37 66  1  0  0  0
 37112  1  0  0  0
 38 43  2  0  0  0
 38 46  1  0  0  0
 38 47  1  0  0  0
 39 64  1  0  0  0
 39 67  2  0  0  0
 40 52  1  0  0  0
 40 53  2  0  0  0
 40 58  1  0  0  0
 41113  1  0  0  0
 41114  1  0  0  0
 41115  1  0  0  0
 41 48  1  0  0  0
 42 43  1  0  0  0
 42 66  1  0  0  0
 42116  1  0  0  0
 42117  1  0  0  0
 43 44  1  0  0  0
 44118  1  0  0  0
 45 46  2  0  0  0
 45119  1  0  0  0
 46120  1  0  0  0
 47121  1  0  0  0
 47122  1  0  0  0
 48 56  1  0  0  0
 48 65  1  0  0  0
 48123  1  0  0  0
 49 50  1  0  0  0
 49 53  1  0  0  0
 49 64  1  0  0  0
 49124  1  0  0  0
 50 51  1  0  0  0
 50125  1  0  0  0
 50126  1  0  0  0
 51 52  1  0  0  0
 51127  1  0  0  0
 51128  1  0  0  0
 52129  1  0  0  0
 52130  1  0  0  0
 53 54  1  0  0  0
 54 55  2  0  0  0
 54131  1  0  0  0
 55 57  1  0  0  0
 55132  1  0  0  0
 56 69  2  0  0  0
 57 58  2  0  0  0
 57133  1  0  0  0
 58134  1  0  0  0
 59 60  1  0  0  0
 59 61  1  0  0  0
 59 62  1  0  0  0
 60135  1  0  0  0
 60136  1  0  0  0
 60137  1  0  0  0
 61138  1  0  0  0
 61139  1  0  0  0
 61140  1  0  0  0
 62141  1  0  0  0
 62142  1  0  0  0
 62143  1  0  0  0
 63 65  1  0  0  0
 63144  1  0  0  0
 63145  1  0  0  0
 63146  1  0  0  0
 64147  1  0  0  0
 65148  1  0  0  0
 68 84  1  0  0  0
 71 74  1  0  0  0
 71 80  1  0  0  0
 71149  1  0  0  0
 71150  1  0  0  0
 72 75  1  0  0  0
 72 82  1  0  0  0
 72151  1  0  0  0
 72152  1  0  0  0
 73 76  1  0  0  0
 73 82  1  0  0  0
 73153  1  0  0  0
 73154  1  0  0  0
 74155  1  0  0  0
 74156  1  0  0  0
 74 83  1  0  0  0
 75 84  1  0  0  0
 75157  1  0  0  0
 75158  1  0  0  0
 76 84  1  0  0  0
 76159  1  0  0  0
 76160  1  0  0  0
 77 78  1  0  0  0
 77 85  1  0  0  0
 77161  1  0  0  0
 77162  1  0  0  0
 78 87  1  0  0  0
 78163  1  0  0  0
 78164  1  0  0  0
 79 87  1  0  0  0
 79165  1  0  0  0
 79166  1  0  0  0
 79 81  1  0  0  0
 80 88  1  0  0  0
 80167  1  0  0  0
 80168  1  0  0  0
 81 83  1  0  0  0
 81 85  1  0  0  0
 81169  1  0  0  0
 82 86  1  0  0  0
 82170  1  0  0  0
 83 88  1  0  0  0
 83171  1  0  0  0
 84172  1  0  0  0
 85 89  1  0  0  0
 85173  1  0  0  0
 86 89  1  0  0  0
 86174  1  0  0  0
 86175  1  0  0  0
 88176  1  0  0  0
 88177  1  0  0  0
M  CHG  1  88   1
M  ISO  4   1 100  68 101  84 101  87 100
M  END
> <chiral flag>
0

> <version>
0

> <s_m_source_file>
/data/baiqing/PycharmProjects/Reinvent-master-3.2/result/LINK_invent/BTK/process_docking_weight1_custom_sum_contain_oxygen_bond_distance_aromatic_linkinvent_7_9_3/rearranged_h_0133.sdf

> <i_m_source_file_index>
25

> <r_mmod_Potential_Energy-OPLS-2005>
149.252105712891

> <r_mmod_Stretch_Energy-OPLS-2005>
49.5681190490723

> <r_mmod_Bend_Energy-OPLS-2005>
155.751327514648

> <r_mmod_Torsional_Energy-OPLS-2005>
413.792236328125

> <r_mmod_Improper_Torsional_Energy-OPLS-2005>
8.5882568359375

> <r_mmod_Van_der_Waal_Energy-OPLS-2005>
139.0576171875

> <r_mmod_Electrostatic_Energy-OPLS-2005>
-216.969451904297

> <r_mmod_Solvation_Energy-OPLS-2005>
-421.494964599609

> <b_mmod_Minimization_Converged-OPLS-2005>
0

> <r_mmod_RMS_Derivative-OPLS-2005>
2.06742286682129

$$$$
25
                    3D
 Structure written by MMmdl.
165174  0  0  1  0            999 V2000
  -30.6785  -14.5757   20.4939 C   0  0  0  0  0  0
  -30.4183  -12.3524   19.4461 C   0  0  0  0  0  0
  -29.4989  -12.4897   18.2159 C   0  0  0  0  0  0
  -28.0206  -12.3476   18.6283 C   0  0  0  0  0  0
  -27.6474  -13.2190   19.8584 C   0  0  2  0  0  0
  -28.6923  -13.0919   20.9873 C   0  0  0  0  0  0
  -25.2542  -13.8170   20.5706 C   0  0  0  0  0  0
  -24.1809  -13.0434   20.9190 C   0  0  0  0  0  0
  -24.6376  -11.6904   20.8729 C   0  0  0  0  0  0
  -23.9044  -10.4291   21.0391 C   0  0  0  0  0  0
  -24.3603   -9.4214   21.9171 C   0  0  0  0  0  0
  -23.6291   -8.2244   22.0746 C   0  0  0  0  0  0
  -22.4272   -8.0271   21.3540 C   0  0  0  0  0  0
  -21.9901   -9.0239   20.4647 C   0  0  0  0  0  0
  -22.7216  -10.2127   20.3048 C   0  0  0  0  0  0
  -21.6861   -6.0721   22.5276 C   0  0  0  0  0  0
  -21.4014   -6.5617   23.8205 C   0  0  0  0  0  0
  -21.3661   -5.6772   24.9167 C   0  0  0  0  0  0
  -21.6050   -4.3039   24.7216 C   0  0  0  0  0  0
  -21.8824   -3.8131   23.4337 C   0  0  0  0  0  0
  -21.9201   -4.6951   22.3397 C   0  0  0  0  0  0
  -22.7837  -13.5239   21.1843 C   0  0  0  0  0  0
  -22.1675   -4.2137   21.0975 F   0  0  0  0  0  0
  -21.5628   -3.4521   25.7728 F   0  0  0  0  0  0
  -30.0077  -13.3897   20.4090 N   0  0  0  0  0  0
  -26.2959  -12.9359   20.3314 N   0  0  0  0  0  0
  -25.9303  -11.6507   20.5742 N   0  0  0  0  0  0
  -22.0467  -12.8239   22.0392 N   0  0  0  0  0  0
  -25.4259  -15.1890   20.4159 N   0  0  0  0  0  0
  -31.8681  -14.6667   20.1724 O   0  0  0  0  0  0
  -21.6643   -6.8865   21.4239 O   0  0  0  0  0  0
  -22.3534  -14.5546   20.6688 O   0  0  0  0  0  0
  -24.6200  -31.8643   23.2080 C   0  0  0  0  0  0
  -25.9069  -32.4803   23.8385 C   0  0  1  0  0  0
  -27.2210  -27.3761   20.1132 C   0  0  0  0  0  0
  -25.5916  -33.8602   24.2320 N   0  0  0  0  0  0
  -23.4122  -30.4881   21.5481 C   0  0  2  0  0  0
  -24.8596  -28.9482   20.1155 C   0  0  0  0  0  0
  -22.7452  -29.4636   22.4955 C   0  0  0  0  0  0
  -18.0281  -28.1389   22.8482 C   0  0  0  0  0  0
  -24.1487  -36.7293   23.2633 C   0  0  0  0  0  0
  -25.9472  -30.8119   21.3719 C   0  0  0  0  0  0
  -26.0233  -29.4404   20.7221 C   0  0  0  0  0  0
  -27.2103  -28.6604   20.7218 C   0  0  0  0  0  0
  -26.0467  -26.9204   19.4841 C   0  0  0  0  0  0
  -24.8684  -27.6895   19.4916 C   0  0  0  0  0  0
  -23.6260  -29.8232   20.1629 C   0  0  0  0  0  0
  -25.4103  -36.3098   24.0342 C   0  0  1  0  0  0
  -20.5877  -28.3678   23.1310 C   0  0  2  0  0  0
  -20.6766  -26.9402   22.5437 C   0  0  0  0  0  0
  -19.5764  -26.6395   21.5209 C   0  0  0  0  0  0
  -18.1930  -26.7943   22.1597 C   0  0  0  0  0  0
  -19.1533  -28.8849   23.2895 C   0  0  0  0  0  0
  -18.9453  -30.1449   23.8911 C   0  0  0  0  0  0
  -17.6455  -30.6590   24.0569 C   0  0  0  0  0  0
  -25.9039  -34.9466   23.5129 C   0  0  0  0  0  0
  -16.5344  -29.9094   23.6323 C   0  0  0  0  0  0
  -16.7269  -28.6514   23.0336 C   0  0  0  0  0  0
  -26.4483  -31.6592   25.0729 C   0  0  0  0  0  0
  -25.3733  -31.3729   26.1474 C   0  0  0  0  0  0
  -27.0303  -30.3022   24.6126 C   0  0  0  0  0  0
  -27.6068  -32.4304   25.7476 C   0  0  0  0  0  0
  -27.5596  -37.1784   24.8438 C   0  0  0  0  0  0
  -21.4167  -29.3035   22.3706 N   0  0  0  0  0  0
  -26.4275  -37.3799   23.9437 N   0  0  0  0  0  0
  -24.6776  -31.0704   22.1002 N   0  0  0  0  0  0
  -23.4204  -28.8158   23.2999 O   0  0  0  0  0  0
  -28.3295  -26.5452   20.0952 O   0  0  0  0  0  0
  -26.5594  -34.8923   22.4688 O   0  0  0  0  0  0
  -23.5376  -32.1411   23.7445 O   0  0  0  0  0  0
  -29.3998  -23.2384   21.5499 C   0  0  0  0  0  0
  -29.3265  -21.8200   21.4904 C   0  0  0  0  0  0
  -27.4818  -23.4152   20.1055 C   0  0  0  0  0  0
  -28.4578  -24.0691   20.8911 C   0  0  0  0  0  0
  -27.3982  -21.9950   20.0389 C   0  0  0  0  0  0
  -28.2926  -21.1637   20.7822 C   0  0  0  0  0  0
  -28.5919  -17.6391   19.6764 C   0  0  0  0  0  0
  -29.4658  -17.8858   21.9735 C   0  0  0  0  0  0
  -29.5989  -16.4724   19.4590 C   0  0  0  0  0  0
  -30.4317  -16.6895   21.6964 C   0  0  0  0  0  0
  -29.0811  -18.6908   20.7020 C   0  0  0  0  0  0
  -26.2942  -21.3983   19.1776 C   0  0  0  0  0  0
  -26.7934  -19.4194   21.5684 C   0  0  0  0  0  0
  -28.4133  -25.5980   21.1940 C   0  0  0  0  0  0
  -29.9400  -15.7176   20.6894 N   0  0  0  0  0  0
  -28.0703  -19.7599   20.9349 N   0  0  0  0  0  0
  -31.4642  -12.4451   19.1484 H   0  0  0  0  0  0
  -30.3206  -11.3619   19.8937 H   0  0  0  0  0  0
  -29.7525  -11.7348   17.4703 H   0  0  0  0  0  0
  -29.6607  -13.4571   17.7372 H   0  0  0  0  0  0
  -27.8444  -11.2959   18.8553 H   0  0  0  0  0  0
  -27.3711  -12.5879   17.7860 H   0  0  0  0  0  0
  -27.6569  -14.2522   19.5158 H   0  0  0  0  0  0
  -28.6876  -12.0864   21.4101 H   0  0  0  0  0  0
  -28.4571  -13.7727   21.8076 H   0  0  0  0  0  0
  -25.2749   -9.5702   22.4736 H   0  0  0  0  0  0
  -24.0013   -7.4641   22.7457 H   0  0  0  0  0  0
  -21.0834   -8.8747   19.8955 H   0  0  0  0  0  0
  -22.3663  -10.9655   19.6150 H   0  0  0  0  0  0
  -21.1996   -7.6124   23.9701 H   0  0  0  0  0  0
  -21.1479   -6.0497   25.9070 H   0  0  0  0  0  0
  -22.0602   -2.7595   23.2828 H   0  0  0  0  0  0
  -22.4083  -11.9906   22.4794 H   0  0  0  0  0  0
  -21.1081  -13.1277   22.2573 H   0  0  0  0  0  0
  -24.6629  -15.8457   20.5354 H   0  0  0  0  0  0
  -26.2919  -15.6284   20.1329 H   0  0  0  0  0  0
  -26.7134  -32.5507   23.1138 H   0  0  0  0  0  0
  -25.0095  -33.9762   25.0487 H   0  0  0  0  0  0
  -22.7028  -31.3066   21.4071 H   0  0  0  0  0  0
  -23.3777  -35.9592   23.3240 H   0  0  0  0  0  0
  -24.3603  -36.8961   22.2059 H   0  0  0  0  0  0
  -23.7193  -37.6464   23.6676 H   0  0  0  0  0  0
  -26.0678  -31.5747   20.6016 H   0  0  0  0  0  0
  -26.8325  -30.8654   21.9944 H   0  0  0  0  0  0
  -28.1068  -29.0321   21.1979 H   0  0  0  0  0  0
  -26.0385  -25.9629   18.9880 H   0  0  0  0  0  0
  -23.9779  -27.3090   19.0113 H   0  0  0  0  0  0
  -23.7451  -30.5995   19.4058 H   0  0  0  0  0  0
  -22.7481  -29.2501   19.8597 H   0  0  0  0  0  0
  -25.1270  -36.1946   25.0829 H   0  0  0  0  0  0
  -20.9975  -28.3248   24.1428 H   0  0  0  0  0  0
  -20.5643  -26.2280   23.3629 H   0  0  0  0  0  0
  -21.6641  -26.7429   22.1250 H   0  0  0  0  0  0
  -19.6927  -25.6312   21.1228 H   0  0  0  0  0  0
  -19.6730  -27.3205   20.6741 H   0  0  0  0  0  0
  -17.4225  -26.6732   21.3963 H   0  0  0  0  0  0
  -18.0287  -26.0068   22.8968 H   0  0  0  0  0  0
  -19.7935  -30.7249   24.2297 H   0  0  0  0  0  0
  -17.5016  -31.6267   24.5184 H   0  0  0  0  0  0
  -15.5341  -30.2994   23.7649 H   0  0  0  0  0  0
  -15.8674  -28.0836   22.7033 H   0  0  0  0  0  0
  -24.5948  -30.7005   25.7848 H   0  0  0  0  0  0
  -24.8857  -32.2885   26.4835 H   0  0  0  0  0  0
  -25.8094  -30.9004   27.0287 H   0  0  0  0  0  0
  -26.2852  -29.6799   24.1154 H   0  0  0  0  0  0
  -27.4026  -29.7249   25.4602 H   0  0  0  0  0  0
  -27.8713  -30.4329   23.9311 H   0  0  0  0  0  0
  -27.2707  -33.3601   26.2083 H   0  0  0  0  0  0
  -28.3856  -32.6870   25.0279 H   0  0  0  0  0  0
  -28.0760  -31.8400   26.5363 H   0  0  0  0  0  0
  -28.2552  -38.0145   24.7584 H   0  0  0  0  0  0
  -28.1151  -36.2684   24.6108 H   0  0  0  0  0  0
  -27.2353  -37.1265   25.8847 H   0  0  0  0  0  0
  -20.9331  -29.8766   21.6937 H   0  0  0  0  0  0
  -26.0154  -38.2856   24.1513 H   0  0  0  0  0  0
  -30.1586  -23.6887   22.1739 H   0  0  0  0  0  0
  -30.0280  -21.2374   22.0707 H   0  0  0  0  0  0
  -26.7421  -24.0052   19.5884 H   0  0  0  0  0  0
  -27.6407  -17.2148   19.9983 H   0  0  0  0  0  0
  -28.3947  -18.1277   18.7207 H   0  0  0  0  0  0
  -29.9170  -18.5560   22.7067 H   0  0  0  0  0  0
  -28.5738  -17.4757   22.4465 H   0  0  0  0  0  0
  -30.5165  -16.8733   19.0235 H   0  0  0  0  0  0
  -29.1905  -15.7910   18.7111 H   0  0  0  0  0  0
  -30.6173  -16.1625   22.6343 H   0  0  0  0  0  0
  -31.3991  -17.0804   21.3745 H   0  0  0  0  0  0
  -29.9830  -19.1614   20.3059 H   0  0  0  0  0  0
  -26.0955  -22.0272   18.3093 H   0  0  0  0  0  0
  -25.3699  -21.3111   19.7492 H   0  0  0  0  0  0
  -26.5672  -20.4102   18.8058 H   0  0  0  0  0  0
  -26.1839  -20.3000   21.7769 H   0  0  0  0  0  0
  -26.9474  -18.9237   22.5263 H   0  0  0  0  0  0
  -26.2059  -18.7568   20.9328 H   0  0  0  0  0  0
  -29.3166  -25.8561   21.7480 H   0  0  0  0  0  0
  -27.5947  -25.7573   21.8990 H   0  0  0  0  0  0
  1 25  1  0  0  0
  1 30  2  0  0  0
  1 85  1  0  0  0
  2  3  1  0  0  0
  2 25  1  0  0  0
  2 87  1  0  0  0
  2 88  1  0  0  0
  3  4  1  0  0  0
  3 89  1  0  0  0
  3 90  1  0  0  0
  4  5  1  0  0  0
  4 91  1  0  0  0
  4 92  1  0  0  0
  5  6  1  0  0  0
  5 26  1  0  0  0
  5 93  1  0  0  0
  6 25  1  0  0  0
  6 94  1  0  0  0
  6 95  1  0  0  0
  7  8  2  0  0  0
  7 26  1  0  0  0
  7 29  1  0  0  0
  8  9  1  0  0  0
  8 22  1  0  0  0
  9 10  1  0  0  0
  9 27  2  0  0  0
 10 11  2  0  0  0
 10 15  1  0  0  0
 11 12  1  0  0  0
 11 96  1  0  0  0
 12 13  2  0  0  0
 12 97  1  0  0  0
 13 14  1  0  0  0
 13 31  1  0  0  0
 14 15  2  0  0  0
 14 98  1  0  0  0
 15 99  1  0  0  0
 16 17  2  0  0  0
 16 21  1  0  0  0
 16 31  1  0  0  0
 17 18  1  0  0  0
 17100  1  0  0  0
 18 19  2  0  0  0
 18101  1  0  0  0
 19 20  1  0  0  0
 19 24  1  0  0  0
 20 21  2  0  0  0
 20102  1  0  0  0
 21 23  1  0  0  0
 22 28  1  0  0  0
 22 32  2  0  0  0
 26 27  1  0  0  0
 28103  1  0  0  0
 28104  1  0  0  0
 29105  1  0  0  0
 29106  1  0  0  0
 33 34  1  0  0  0
 33 66  1  0  0  0
 33 70  2  0  0  0
 34 36  1  0  0  0
 34 59  1  0  0  0
 34107  1  0  0  0
 35 44  2  0  0  0
 35 45  1  0  0  0
 35 68  1  0  0  0
 36 56  1  0  0  0
 36108  1  0  0  0
 37 39  1  0  0  0
 37 47  1  0  0  0
 37 66  1  0  0  0
 37109  1  0  0  0
 38 43  2  0  0  0
 38 46  1  0  0  0
 38 47  1  0  0  0
 39 64  1  0  0  0
 39 67  2  0  0  0
 40 52  1  0  0  0
 40 53  2  0  0  0
 40 58  1  0  0  0
 41110  1  0  0  0
 41111  1  0  0  0
 41112  1  0  0  0
 41 48  1  0  0  0
 42 43  1  0  0  0
 42 66  1  0  0  0
 42113  1  0  0  0
 42114  1  0  0  0
 43 44  1  0  0  0
 44115  1  0  0  0
 45 46  2  0  0  0
 45116  1  0  0  0
 46117  1  0  0  0
 47118  1  0  0  0
 47119  1  0  0  0
 48 56  1  0  0  0
 48 65  1  0  0  0
 48120  1  0  0  0
 49 50  1  0  0  0
 49 53  1  0  0  0
 49 64  1  0  0  0
 49121  1  0  0  0
 50 51  1  0  0  0
 50122  1  0  0  0
 50123  1  0  0  0
 51 52  1  0  0  0
 51124  1  0  0  0
 51125  1  0  0  0
 52126  1  0  0  0
 52127  1  0  0  0
 53 54  1  0  0  0
 54 55  2  0  0  0
 54128  1  0  0  0
 55 57  1  0  0  0
 55129  1  0  0  0
 56 69  2  0  0  0
 57 58  2  0  0  0
 57130  1  0  0  0
 58131  1  0  0  0
 59 60  1  0  0  0
 59 61  1  0  0  0
 59 62  1  0  0  0
 60132  1  0  0  0
 60133  1  0  0  0
 60134  1  0  0  0
 61135  1  0  0  0
 61136  1  0  0  0
 61137  1  0  0  0
 62138  1  0  0  0
 62139  1  0  0  0
 62140  1  0  0  0
 63 65  1  0  0  0
 63141  1  0  0  0
 63142  1  0  0  0
 63143  1  0  0  0
 64144  1  0  0  0
 65145  1  0  0  0
 68 84  1  0  0  0
 71 72  2  0  0  0
 71 74  1  0  0  0
 71146  1  0  0  0
 72 76  1  0  0  0
 72147  1  0  0  0
 73 74  2  0  0  0
 73 75  1  0  0  0
 73148  1  0  0  0
 74 84  1  0  0  0
 75 76  2  0  0  0
 75 82  1  0  0  0
 76 86  1  0  0  0
 77 79  1  0  0  0
 77 81  1  0  0  0
 77149  1  0  0  0
 77150  1  0  0  0
 78 80  1  0  0  0
 78 81  1  0  0  0
 78151  1  0  0  0
 78152  1  0  0  0
 79 85  1  0  0  0
 79153  1  0  0  0
 79154  1  0  0  0
 80 85  1  0  0  0
 80155  1  0  0  0
 80156  1  0  0  0
 81 86  1  0  0  0
 81157  1  0  0  0
 82158  1  0  0  0
 82159  1  0  0  0
 82160  1  0  0  0
 83 86  1  0  0  0
 83161  1  0  0  0
 83162  1  0  0  0
 83163  1  0  0  0
 84164  1  0  0  0
 84165  1  0  0  0
M  ISO  4   1 100  68 101  84 101  85 100
M  END
> <chiral flag>
0

> <version>
0

> <s_m_source_file>
/data/baiqing/PycharmProjects/Reinvent-master-3.2/result/LINK_invent/BTK/process_docking_weight1_custom_sum_contain_oxygen_bond_distance_aromatic_linkinvent_7_9_3/rearranged_h_0133.sdf

> <i_m_source_file_index>
26

> <r_mmod_Potential_Energy-OPLS-2005>
256.564239501953

> <r_mmod_Stretch_Energy-OPLS-2005>
58.0209465026855

> <r_mmod_Bend_Energy-OPLS-2005>
136.286041259766

> <r_mmod_Torsional_Energy-OPLS-2005>
387.378204345703

> <r_mmod_Improper_Torsional_Energy-OPLS-2005>
12.4538421630859

> <r_mmod_Van_der_Waal_Energy-OPLS-2005>
143.110000610352

> <r_mmod_Electrostatic_Energy-OPLS-2005>
-322.545135498047

> <r_mmod_Solvation_Energy-OPLS-2005>
-191.470565795898

> <b_mmod_Minimization_Converged-OPLS-2005>
0

> <r_mmod_RMS_Derivative-OPLS-2005>
1.44251012802124

$$$$
26
                    3D
 Structure written by MMmdl.
152160  0  0  1  0            999 V2000
  -30.3085  -15.6345   20.3399 C   0  0  0  0  0  0
  -30.4224  -13.0816   19.5451 C   0  0  0  0  0  0
  -29.5515  -12.6589   18.3270 C   0  0  0  0  0  0
  -28.1235  -12.3035   18.7673 C   0  0  0  0  0  0
  -27.5957  -13.3097   19.8150 C   0  0  2  0  0  0
  -28.6103  -13.6428   20.9353 C   0  0  0  0  0  0
  -25.2319  -13.8289   20.5801 C   0  0  0  0  0  0
  -24.1711  -13.0434   20.9291 C   0  0  0  0  0  0
  -24.6419  -11.6947   20.8768 C   0  0  0  0  0  0
  -23.9122  -10.4294   21.0401 C   0  0  0  0  0  0
  -24.3659   -9.4206   21.9183 C   0  0  0  0  0  0
  -23.6322   -8.2243   22.0750 C   0  0  0  0  0  0
  -22.4297   -8.0289   21.3548 C   0  0  0  0  0  0
  -21.9949   -9.0262   20.4641 C   0  0  0  0  0  0
  -22.7290  -10.2135   20.3051 C   0  0  0  0  0  0
  -21.6859   -6.0747   22.5281 C   0  0  0  0  0  0
  -21.4015   -6.5648   23.8216 C   0  0  0  0  0  0
  -21.3661   -5.6798   24.9177 C   0  0  0  0  0  0
  -21.6041   -4.3060   24.7224 C   0  0  0  0  0  0
  -21.8821   -3.8156   23.4344 C   0  0  0  0  0  0
  -21.9194   -4.6975   22.3403 C   0  0  0  0  0  0
  -22.7723  -13.5161   21.1928 C   0  0  0  0  0  0
  -22.1664   -4.2160   21.0981 F   0  0  0  0  0  0
  -21.5629   -3.4542   25.7737 F   0  0  0  0  0  0
  -29.7847  -14.2670   20.2825 N   0  0  0  0  0  0
  -26.2769  -12.9623   20.3239 N   0  0  0  0  0  0
  -25.9364  -11.6691   20.5701 N   0  0  0  0  0  0
  -22.0389  -12.8132   22.0475 N   0  0  0  0  0  0
  -25.3908  -15.2028   20.4241 N   0  0  0  0  0  0
  -31.5417  -15.5645   20.1722 O   0  0  0  0  0  0
  -21.6649   -6.8892   21.4245 O   0  0  0  0  0  0
  -22.3397  -14.5459   20.6762 O   0  0  0  0  0  0
  -24.6845  -31.7985   23.1522 C   0  0  0  0  0  0
  -25.9426  -32.4460   23.8067 C   0  0  1  0  0  0
  -27.2269  -26.6847   20.2269 C   0  0  0  0  0  0
  -25.6005  -33.8290   24.1946 N   0  0  0  0  0  0
  -23.5115  -30.3981   21.5069 C   0  0  2  0  0  0
  -24.9678  -28.7316   20.1261 C   0  0  0  0  0  0
  -22.7764  -29.4302   22.4734 C   0  0  0  0  0  0
  -18.0335  -28.1417   22.8455 C   0  0  0  0  0  0
  -24.1496  -36.7143   23.2651 C   0  0  0  0  0  0
  -26.0916  -30.5245   21.4209 C   0  0  0  0  0  0
  -26.1547  -29.0850   20.7776 C   0  0  0  0  0  0
  -27.2674  -28.0897   20.7952 C   0  0  0  0  0  0
  -26.0085  -26.5463   19.5132 C   0  0  0  0  0  0
  -24.9332  -27.4877   19.4711 C   0  0  0  0  0  0
  -23.7656  -29.6900   20.1444 C   0  0  0  0  0  0
  -25.4146  -36.2890   24.0277 C   0  0  1  0  0  0
  -20.5965  -28.3779   23.1145 C   0  0  2  0  0  0
  -20.6792  -26.9435   22.5409 C   0  0  0  0  0  0
  -19.5769  -26.6365   21.5216 C   0  0  0  0  0  0
  -18.1952  -26.7946   22.1619 C   0  0  0  0  0  0
  -19.1601  -28.8923   23.2781 C   0  0  0  0  0  0
  -18.9504  -30.1503   23.8824 C   0  0  0  0  0  0
  -17.6494  -30.6600   24.0546 C   0  0  0  0  0  0
  -25.9128  -34.9280   23.4947 C   0  0  0  0  0  0
  -16.5384  -29.9078   23.6346 C   0  0  0  0  0  0
  -16.7315  -28.6503   23.0364 C   0  0  0  0  0  0
  -26.4606  -31.6497   25.0688 C   0  0  0  0  0  0
  -25.3676  -31.3818   26.1303 C   0  0  0  0  0  0
  -27.0530  -30.2829   24.6595 C   0  0  0  0  0  0
  -27.6052  -32.4359   25.7514 C   0  0  0  0  0  0
  -27.5558  -37.1728   24.8467 C   0  0  0  0  0  0
  -21.4415  -29.3028   22.3477 N   0  0  0  0  0  0
  -26.4275  -37.3644   23.9397 N   0  0  0  0  0  0
  -24.7860  -30.9404   22.0793 N   0  0  0  0  0  0
  -23.4198  -28.7903   23.3091 O   0  0  0  0  0  0
  -28.2384  -25.5003   20.2318 O   0  0  0  0  0  0
  -26.5774  -34.8858   22.4566 O   0  0  0  0  0  0
  -23.5866  -32.1072   23.6465 O   0  0  0  0  0  0
  -28.0871  -22.8535   21.3300 C   0  0  0  0  0  0
  -29.2548  -21.6148   19.3133 C   0  0  0  0  0  0
  -28.4387  -21.3583   21.3588 C   0  0  0  0  0  0
  -29.0787  -20.5064   20.3096 C   0  0  0  0  0  0
  -28.2841  -23.8741   20.2684 C   0  0  0  0  0  0
  -29.0872  -20.2904   25.0602 C   0  0  0  0  0  0
  -28.1877  -20.6694   22.6892 C   0  0  0  0  0  0
  -29.8335  -18.7740   20.3040 C   0  0  0  0  0  0
  -29.3154  -20.9524   23.6959 C   0  0  0  0  0  0
  -28.9358  -23.0525   19.2970 N   0  0  0  0  0  0
  -29.5636  -17.0108   20.3966 N   0  0  0  0  0  0
  -31.4166  -13.3414   19.1806 H   0  0  0  0  0  0
  -30.5813  -12.2378   20.2188 H   0  0  0  0  0  0
  -30.0068  -11.8167   17.8042 H   0  0  0  0  0  0
  -29.5154  -13.4815   17.6114 H   0  0  0  0  0  0
  -28.1483  -11.3040   19.2030 H   0  0  0  0  0  0
  -27.4556  -12.2505   17.9066 H   0  0  0  0  0  0
  -27.4581  -14.2317   19.2484 H   0  0  0  0  0  0
  -28.8686  -12.7608   21.5236 H   0  0  0  0  0  0
  -28.1753  -14.3600   21.6329 H   0  0  0  0  0  0
  -25.2800   -9.5675   22.4767 H   0  0  0  0  0  0
  -24.0023   -7.4633   22.7474 H   0  0  0  0  0  0
  -21.0880   -8.8795   19.8946 H   0  0  0  0  0  0
  -22.3757  -10.9681   19.6163 H   0  0  0  0  0  0
  -21.2006   -7.6156   23.9723 H   0  0  0  0  0  0
  -21.1479   -6.0528   25.9080 H   0  0  0  0  0  0
  -22.0596   -2.7619   23.2843 H   0  0  0  0  0  0
  -22.4042  -11.9814   22.4874 H   0  0  0  0  0  0
  -21.0988  -13.1113   22.2662 H   0  0  0  0  0  0
  -24.6176  -15.8495   20.5347 H   0  0  0  0  0  0
  -26.2284  -15.6444   20.0689 H   0  0  0  0  0  0
  -26.7505  -32.4917   23.0780 H   0  0  0  0  0  0
  -25.0068  -33.9339   25.0042 H   0  0  0  0  0  0
  -22.8380  -31.2357   21.3142 H   0  0  0  0  0  0
  -23.3781  -35.9453   23.3285 H   0  0  0  0  0  0
  -24.3555  -36.8835   22.2070 H   0  0  0  0  0  0
  -23.7236  -37.6305   23.6751 H   0  0  0  0  0  0
  -26.2937  -31.2471   20.6290 H   0  0  0  0  0  0
  -26.9446  -30.5958   22.0836 H   0  0  0  0  0  0
  -28.1685  -28.3727   21.3208 H   0  0  0  0  0  0
  -25.8525  -25.6103   18.9955 H   0  0  0  0  0  0
  -24.0390  -27.2100   18.9301 H   0  0  0  0  0  0
  -23.9443  -30.4474   19.3808 H   0  0  0  0  0  0
  -22.8707  -29.1560   19.8207 H   0  0  0  0  0  0
  -25.1358  -36.1659   25.0768 H   0  0  0  0  0  0
  -21.0039  -28.3404   24.1274 H   0  0  0  0  0  0
  -20.5631  -26.2406   23.3675 H   0  0  0  0  0  0
  -21.6654  -26.7361   22.1234 H   0  0  0  0  0  0
  -19.6930  -25.6256   21.1284 H   0  0  0  0  0  0
  -19.6708  -27.3145   20.6724 H   0  0  0  0  0  0
  -17.4213  -26.6691   21.4029 H   0  0  0  0  0  0
  -18.0347  -26.0106   22.9034 H   0  0  0  0  0  0
  -19.7980  -30.7338   24.2162 H   0  0  0  0  0  0
  -17.5042  -31.6271   24.5164 H   0  0  0  0  0  0
  -15.5377  -30.2952   23.7717 H   0  0  0  0  0  0
  -15.8719  -28.0791   22.7122 H   0  0  0  0  0  0
  -24.5903  -30.7125   25.7605 H   0  0  0  0  0  0
  -24.8827  -32.3040   26.4519 H   0  0  0  0  0  0
  -25.7862  -30.9125   27.0215 H   0  0  0  0  0  0
  -26.3248  -29.6454   24.1578 H   0  0  0  0  0  0
  -27.3942  -29.7265   25.5334 H   0  0  0  0  0  0
  -27.9235  -30.3952   24.0132 H   0  0  0  0  0  0
  -27.2593  -33.3728   26.1900 H   0  0  0  0  0  0
  -28.3973  -32.6814   25.0427 H   0  0  0  0  0  0
  -28.0608  -31.8619   26.5598 H   0  0  0  0  0  0
  -28.2553  -38.0042   24.7487 H   0  0  0  0  0  0
  -28.1073  -36.2557   24.6336 H   0  0  0  0  0  0
  -27.2262  -37.1405   25.8867 H   0  0  0  0  0  0
  -20.9739  -29.8666   21.6514 H   0  0  0  0  0  0
  -26.0108  -38.2694   24.1411 H   0  0  0  0  0  0
  -27.6836  -23.2550   22.2502 H   0  0  0  0  0  0
  -29.7842  -21.3333   18.4150 H   0  0  0  0  0  0
  -29.9210  -20.4944   25.7329 H   0  0  0  0  0  0
  -28.9952  -19.2077   24.9660 H   0  0  0  0  0  0
  -28.1802  -20.6672   25.5350 H   0  0  0  0  0  0
  -28.0851  -19.5952   22.5329 H   0  0  0  0  0  0
  -27.2314  -21.0065   23.0911 H   0  0  0  0  0  0
  -30.5688  -18.8894   21.1009 H   0  0  0  0  0  0
  -30.4407  -18.8272   19.4003 H   0  0  0  0  0  0
  -30.2644  -20.6084   23.2819 H   0  0  0  0  0  0
  -29.4159  -22.0292   23.8391 H   0  0  0  0  0  0
  -28.5769  -16.8248   20.5034 H   0  0  0  0  0  0
  1 25  1  0  0  0
  1 30  2  0  0  0
  1 81  1  0  0  0
  2  3  1  0  0  0
  2 25  1  0  0  0
  2 82  1  0  0  0
  2 83  1  0  0  0
  3  4  1  0  0  0
  3 84  1  0  0  0
  3 85  1  0  0  0
  4  5  1  0  0  0
  4 86  1  0  0  0
  4 87  1  0  0  0
  5  6  1  0  0  0
  5 26  1  0  0  0
  5 88  1  0  0  0
  6 25  1  0  0  0
  6 89  1  0  0  0
  6 90  1  0  0  0
  7  8  2  0  0  0
  7 26  1  0  0  0
  7 29  1  0  0  0
  8  9  1  0  0  0
  8 22  1  0  0  0
  9 10  1  0  0  0
  9 27  2  0  0  0
 10 11  2  0  0  0
 10 15  1  0  0  0
 11 12  1  0  0  0
 11 91  1  0  0  0
 12 13  2  0  0  0
 12 92  1  0  0  0
 13 14  1  0  0  0
 13 31  1  0  0  0
 14 15  2  0  0  0
 14 93  1  0  0  0
 15 94  1  0  0  0
 16 17  2  0  0  0
 16 21  1  0  0  0
 16 31  1  0  0  0
 17 18  1  0  0  0
 17 95  1  0  0  0
 18 19  2  0  0  0
 18 96  1  0  0  0
 19 20  1  0  0  0
 19 24  1  0  0  0
 20 21  2  0  0  0
 20 97  1  0  0  0
 21 23  1  0  0  0
 22 28  1  0  0  0
 22 32  2  0  0  0
 26 27  1  0  0  0
 28 98  1  0  0  0
 28 99  1  0  0  0
 29100  1  0  0  0
 29101  1  0  0  0
 33 34  1  0  0  0
 33 66  1  0  0  0
 33 70  2  0  0  0
 34 36  1  0  0  0
 34 59  1  0  0  0
 34102  1  0  0  0
 35 44  2  0  0  0
 35 45  1  0  0  0
 35 68  1  0  0  0
 36 56  1  0  0  0
 36103  1  0  0  0
 37 39  1  0  0  0
 37 47  1  0  0  0
 37 66  1  0  0  0
 37104  1  0  0  0
 38 43  2  0  0  0
 38 46  1  0  0  0
 38 47  1  0  0  0
 39 64  1  0  0  0
 39 67  2  0  0  0
 40 52  1  0  0  0
 40 53  2  0  0  0
 40 58  1  0  0  0
 41105  1  0  0  0
 41106  1  0  0  0
 41107  1  0  0  0
 41 48  1  0  0  0
 42 43  1  0  0  0
 42 66  1  0  0  0
 42108  1  0  0  0
 42109  1  0  0  0
 43 44  1  0  0  0
 44110  1  0  0  0
 45 46  2  0  0  0
 45111  1  0  0  0
 46112  1  0  0  0
 47113  1  0  0  0
 47114  1  0  0  0
 48 56  1  0  0  0
 48 65  1  0  0  0
 48115  1  0  0  0
 49 50  1  0  0  0
 49 53  1  0  0  0
 49 64  1  0  0  0
 49116  1  0  0  0
 50 51  1  0  0  0
 50117  1  0  0  0
 50118  1  0  0  0
 51 52  1  0  0  0
 51119  1  0  0  0
 51120  1  0  0  0
 52121  1  0  0  0
 52122  1  0  0  0
 53 54  1  0  0  0
 54 55  2  0  0  0
 54123  1  0  0  0
 55 57  1  0  0  0
 55124  1  0  0  0
 56 69  2  0  0  0
 57 58  2  0  0  0
 57125  1  0  0  0
 58126  1  0  0  0
 59 60  1  0  0  0
 59 61  1  0  0  0
 59 62  1  0  0  0
 60127  1  0  0  0
 60128  1  0  0  0
 60129  1  0  0  0
 61130  1  0  0  0
 61131  1  0  0  0
 61132  1  0  0  0
 62133  1  0  0  0
 62134  1  0  0  0
 62135  1  0  0  0
 63 65  1  0  0  0
 63136  1  0  0  0
 63137  1  0  0  0
 63138  1  0  0  0
 64139  1  0  0  0
 65140  1  0  0  0
 68 75  1  0  0  0
 71 73  2  0  0  0
 71 75  1  0  0  0
 71141  1  0  0  0
 72 74  2  0  0  0
 72 80  1  0  0  0
 72142  1  0  0  0
 73 74  1  0  0  0
 73 77  1  0  0  0
 74 78  1  0  0  0
 75 80  2  0  0  0
 76 79  1  0  0  0
 76143  1  0  0  0
 76144  1  0  0  0
 76145  1  0  0  0
 77 79  1  0  0  0
 77146  1  0  0  0
 77147  1  0  0  0
 78 81  1  0  0  0
 78148  1  0  0  0
 78149  1  0  0  0
 79150  1  0  0  0
 79151  1  0  0  0
 81152  1  0  0  0
M  ISO  4   1 100  68 101  75 101  81 100
M  END
> <chiral flag>
0

> <version>
0

> <s_m_source_file>
/data/baiqing/PycharmProjects/Reinvent-master-3.2/result/LINK_invent/BTK/process_docking_weight1_custom_sum_contain_oxygen_bond_distance_aromatic_linkinvent_7_9_3/rearranged_h_0133.sdf

> <i_m_source_file_index>
27

> <r_mmod_Potential_Energy-OPLS-2005>
2202.5546875

> <r_mmod_Stretch_Energy-OPLS-2005>
939.130615234375

> <r_mmod_Bend_Energy-OPLS-2005>
679.248474121094

> <r_mmod_Torsional_Energy-OPLS-2005>
228.360580444336

> <r_mmod_Improper_Torsional_Energy-OPLS-2005>
9.23898220062256

> <r_mmod_Van_der_Waal_Energy-OPLS-2005>
131.492111206055

> <r_mmod_Electrostatic_Energy-OPLS-2005>
-458.467254638672

> <r_mmod_Solvation_Energy-OPLS-2005>
-225.885971069336

> <b_mmod_Minimization_Converged-OPLS-2005>
0

> <r_mmod_RMS_Derivative-OPLS-2005>
1.32692003250122

$$$$
27
                    3D
 Structure written by MMmdl.
155163  0  0  1  0            999 V2000
  -30.6229  -14.6511   20.4933 C   0  0  0  0  0  0
  -30.4293  -12.3986   19.4530 C   0  0  0  0  0  0
  -29.5009  -12.5054   18.2235 C   0  0  0  0  0  0
  -28.0266  -12.3354   18.6414 C   0  0  0  0  0  0
  -27.6459  -13.2191   19.8589 C   0  0  2  0  0  0
  -28.6896  -13.0962   20.9892 C   0  0  0  0  0  0
  -25.2516  -13.8166   20.5664 C   0  0  0  0  0  0
  -24.1801  -13.0420   20.9175 C   0  0  0  0  0  0
  -24.6381  -11.6895   20.8740 C   0  0  0  0  0  0
  -23.9045  -10.4279   21.0416 C   0  0  0  0  0  0
  -24.3605   -9.4204   21.9197 C   0  0  0  0  0  0
  -23.6288   -8.2237   22.0762 C   0  0  0  0  0  0
  -22.4277   -8.0265   21.3546 C   0  0  0  0  0  0
  -21.9902   -9.0233   20.4648 C   0  0  0  0  0  0
  -22.7222  -10.2119   20.3062 C   0  0  0  0  0  0
  -21.6848   -6.0724   22.5277 C   0  0  0  0  0  0
  -21.4012   -6.5633   23.8208 C   0  0  0  0  0  0
  -21.3660   -5.6792   24.9174 C   0  0  0  0  0  0
  -21.6055   -4.3056   24.7230 C   0  0  0  0  0  0
  -21.8812   -3.8145   23.4347 C   0  0  0  0  0  0
  -21.9190   -4.6957   22.3400 C   0  0  0  0  0  0
  -22.7831  -13.5219   21.1861 C   0  0  0  0  0  0
  -22.1661   -4.2139   21.0977 F   0  0  0  0  0  0
  -21.5632   -3.4543   25.7741 F   0  0  0  0  0  0
  -29.9984  -13.4340   20.4123 N   0  0  0  0  0  0
  -26.2951  -12.9360   20.3323 N   0  0  0  0  0  0
  -25.9313  -11.6508   20.5760 N   0  0  0  0  0  0
  -22.0489  -12.8196   22.0413 N   0  0  0  0  0  0
  -25.4188  -15.1888   20.4029 N   0  0  0  0  0  0
  -31.8063  -14.7851   20.1705 O   0  0  0  0  0  0
  -21.6638   -6.8873   21.4244 O   0  0  0  0  0  0
  -22.3514  -14.5532   20.6727 O   0  0  0  0  0  0
  -24.6291  -31.8574   23.2026 C   0  0  0  0  0  0
  -25.9136  -32.4755   23.8352 C   0  0  1  0  0  0
  -27.2146  -27.2981   20.1087 C   0  0  0  0  0  0
  -25.5959  -33.8554   24.2283 N   0  0  0  0  0  0
  -23.4208  -30.4864   21.5425 C   0  0  2  0  0  0
  -24.8641  -28.9405   20.1074 C   0  0  0  0  0  0
  -22.7473  -29.4612   22.4886 C   0  0  0  0  0  0
  -18.0290  -28.1392   22.8468 C   0  0  0  0  0  0
  -24.1477  -36.7255   23.2618 C   0  0  0  0  0  0
  -25.9641  -30.7831   21.3738 C   0  0  0  0  0  0
  -26.0346  -29.4083   20.7160 C   0  0  0  0  0  0
  -27.2081  -28.5965   20.7114 C   0  0  0  0  0  0
  -26.0089  -26.8769   19.4997 C   0  0  0  0  0  0
  -24.8547  -27.6800   19.4920 C   0  0  0  0  0  0
  -23.6375  -29.8283   20.1554 C   0  0  0  0  0  0
  -25.4087  -36.3039   24.0331 C   0  0  1  0  0  0
  -20.5888  -28.3678   23.1268 C   0  0  2  0  0  0
  -20.6773  -26.9395   22.5393 C   0  0  0  0  0  0
  -19.5750  -26.6384   21.5196 C   0  0  0  0  0  0
  -18.1929  -26.7940   22.1604 C   0  0  0  0  0  0
  -19.1545  -28.8863   23.2870 C   0  0  0  0  0  0
  -18.9480  -30.1467   23.8885 C   0  0  0  0  0  0
  -17.6474  -30.6594   24.0563 C   0  0  0  0  0  0
  -25.9058  -34.9430   23.5099 C   0  0  0  0  0  0
  -16.5365  -29.9084   23.6355 C   0  0  0  0  0  0
  -16.7278  -28.6516   23.0344 C   0  0  0  0  0  0
  -26.4539  -31.6562   25.0727 C   0  0  0  0  0  0
  -25.3776  -31.3634   26.1465 C   0  0  0  0  0  0
  -27.0397  -30.3008   24.6150 C   0  0  0  0  0  0
  -27.6137  -32.4281   25.7474 C   0  0  0  0  0  0
  -27.5632  -37.1678   24.8400 C   0  0  0  0  0  0
  -21.4187  -29.3043   22.3676 N   0  0  0  0  0  0
  -26.4205  -37.3805   23.9547 N   0  0  0  0  0  0
  -24.6908  -31.0581   22.0972 N   0  0  0  0  0  0
  -23.4201  -28.8144   23.2956 O   0  0  0  0  0  0
  -28.3319  -26.4463   20.1876 O   0  0  0  0  0  0
  -26.5607  -34.8914   22.4653 O   0  0  0  0  0  0
  -23.5461  -32.1379   23.7342 O   0  0  0  0  0  0
  -29.2264  -22.8194   18.9448 C   0  0  0  0  0  0
  -29.4044  -21.4464   19.2939 C   0  0  0  0  0  0
  -28.2845  -23.2938   21.0964 C   0  0  0  0  0  0
  -28.6813  -23.7919   19.8294 C   0  0  0  0  0  0
  -28.4428  -21.9115   21.4519 C   0  0  0  0  0  0
  -29.0341  -20.9509   20.5688 C   0  0  0  0  0  0
  -27.9433  -21.4579   22.8124 C   0  0  0  0  0  0
  -28.4841  -25.2697   19.3016 C   0  0  0  0  0  0
  -29.5590  -18.3665   20.2071 C   0  0  0  0  0  0
  -30.2271  -17.1711   21.0412 C   0  0  0  0  0  0
  -29.2393  -19.5937   21.0058 N   0  0  0  0  0  0
  -29.8354  -15.7404   20.7677 N   0  0  0  0  0  0
  -31.4730  -12.5166   19.1557 H   0  0  0  0  0  0
  -30.3550  -11.4076   19.9055 H   0  0  0  0  0  0
  -29.7683  -11.7540   17.4792 H   0  0  0  0  0  0
  -29.6364  -13.4760   17.7435 H   0  0  0  0  0  0
  -27.8768  -11.2844   18.8913 H   0  0  0  0  0  0
  -27.3651  -12.5455   17.7994 H   0  0  0  0  0  0
  -27.6568  -14.2498   19.5054 H   0  0  0  0  0  0
  -28.7045  -12.0816   21.3916 H   0  0  0  0  0  0
  -28.4384  -13.7465   21.8293 H   0  0  0  0  0  0
  -25.2751   -9.5678   22.4769 H   0  0  0  0  0  0
  -23.9990   -7.4636   22.7498 H   0  0  0  0  0  0
  -21.0830   -8.8755   19.8960 H   0  0  0  0  0  0
  -22.3687  -10.9658   19.6165 H   0  0  0  0  0  0
  -21.2000   -7.6142   23.9704 H   0  0  0  0  0  0
  -21.1498   -6.0528   25.9072 H   0  0  0  0  0  0
  -22.0591   -2.7603   23.2853 H   0  0  0  0  0  0
  -22.4107  -11.9823   22.4734 H   0  0  0  0  0  0
  -21.1130  -13.1238   22.2693 H   0  0  0  0  0  0
  -24.6391  -15.8324   20.4813 H   0  0  0  0  0  0
  -26.2569  -15.6281   20.0448 H   0  0  0  0  0  0
  -26.7199  -32.5421   23.1087 H   0  0  0  0  0  0
  -25.0213  -33.9698   25.0494 H   0  0  0  0  0  0
  -22.7152  -31.3086   21.4023 H   0  0  0  0  0  0
  -23.3807  -35.9500   23.3080 H   0  0  0  0  0  0
  -24.3630  -36.9071   22.2078 H   0  0  0  0  0  0
  -23.7117  -37.6347   23.6759 H   0  0  0  0  0  0
  -26.0950  -31.5408   20.6009 H   0  0  0  0  0  0
  -26.8467  -30.8340   21.9991 H   0  0  0  0  0  0
  -28.1067  -28.9470   21.2007 H   0  0  0  0  0  0
  -25.9041  -25.8977   19.0598 H   0  0  0  0  0  0
  -23.9500  -27.3129   19.0272 H   0  0  0  0  0  0
  -23.7653  -30.6129   19.4089 H   0  0  0  0  0  0
  -22.7529  -29.2694   19.8438 H   0  0  0  0  0  0
  -25.1198  -36.1820   25.0790 H   0  0  0  0  0  0
  -20.9991  -28.3249   24.1377 H   0  0  0  0  0  0
  -20.5670  -26.2257   23.3576 H   0  0  0  0  0  0
  -21.6640  -26.7407   22.1187 H   0  0  0  0  0  0
  -19.6901  -25.6292   21.1231 H   0  0  0  0  0  0
  -19.6723  -27.3187   20.6724 H   0  0  0  0  0  0
  -17.4184  -26.6697   21.4014 H   0  0  0  0  0  0
  -18.0347  -26.0068   22.9002 H   0  0  0  0  0  0
  -19.7949  -30.7315   24.2211 H   0  0  0  0  0  0
  -17.5020  -31.6273   24.5167 H   0  0  0  0  0  0
  -15.5365  -30.2978   23.7700 H   0  0  0  0  0  0
  -15.8672  -28.0860   22.7023 H   0  0  0  0  0  0
  -24.6062  -30.6823   25.7822 H   0  0  0  0  0  0
  -24.8826  -32.2732   26.4859 H   0  0  0  0  0  0
  -25.8163  -30.8909   27.0260 H   0  0  0  0  0  0
  -26.2954  -29.6706   24.1268 H   0  0  0  0  0  0
  -27.4244  -29.7304   25.4612 H   0  0  0  0  0  0
  -27.8736  -30.4330   23.9252 H   0  0  0  0  0  0
  -27.2859  -33.3662   26.1940 H   0  0  0  0  0  0
  -28.4008  -32.6670   25.0305 H   0  0  0  0  0  0
  -28.0712  -31.8428   26.5458 H   0  0  0  0  0  0
  -28.2285  -38.0310   24.7997 H   0  0  0  0  0  0
  -28.1475  -36.2934   24.5512 H   0  0  0  0  0  0
  -27.2468  -37.0435   25.8766 H   0  0  0  0  0  0
  -20.9340  -29.8796   21.6929 H   0  0  0  0  0  0
  -26.0044  -38.2757   24.1925 H   0  0  0  0  0  0
  -29.5231  -23.1338   17.9537 H   0  0  0  0  0  0
  -29.8394  -20.7823   18.5596 H   0  0  0  0  0  0
  -27.8369  -23.9787   21.8015 H   0  0  0  0  0  0
  -27.3581  -22.2340   23.3079 H   0  0  0  0  0  0
  -28.7842  -21.1959   23.4551 H   0  0  0  0  0  0
  -27.3023  -20.5804   22.7071 H   0  0  0  0  0  0
  -27.7492  -25.2338   18.5009 H   0  0  0  0  0  0
  -29.4089  -25.4834   18.7668 H   0  0  0  0  0  0
  -28.6314  -18.0205   19.7497 H   0  0  0  0  0  0
  -30.2177  -18.6318   19.3785 H   0  0  0  0  0  0
  -29.9850  -17.3164   22.0947 H   0  0  0  0  0  0
  -31.3143  -17.2651   20.9963 H   0  0  0  0  0  0
  -28.9166  -19.3971   21.9484 H   0  0  0  0  0  0
  -28.8660  -15.5206   20.9378 H   0  0  0  0  0  0
  1 25  1  0  0  0
  1 30  2  0  0  0
  1 82  1  0  0  0
  2  3  1  0  0  0
  2 25  1  0  0  0
  2 83  1  0  0  0
  2 84  1  0  0  0
  3  4  1  0  0  0
  3 85  1  0  0  0
  3 86  1  0  0  0
  4  5  1  0  0  0
  4 87  1  0  0  0
  4 88  1  0  0  0
  5  6  1  0  0  0
  5 26  1  0  0  0
  5 89  1  0  0  0
  6 25  1  0  0  0
  6 90  1  0  0  0
  6 91  1  0  0  0
  7  8  2  0  0  0
  7 26  1  0  0  0
  7 29  1  0  0  0
  8  9  1  0  0  0
  8 22  1  0  0  0
  9 10  1  0  0  0
  9 27  2  0  0  0
 10 11  2  0  0  0
 10 15  1  0  0  0
 11 12  1  0  0  0
 11 92  1  0  0  0
 12 13  2  0  0  0
 12 93  1  0  0  0
 13 14  1  0  0  0
 13 31  1  0  0  0
 14 15  2  0  0  0
 14 94  1  0  0  0
 15 95  1  0  0  0
 16 17  2  0  0  0
 16 21  1  0  0  0
 16 31  1  0  0  0
 17 18  1  0  0  0
 17 96  1  0  0  0
 18 19  2  0  0  0
 18 97  1  0  0  0
 19 20  1  0  0  0
 19 24  1  0  0  0
 20 21  2  0  0  0
 20 98  1  0  0  0
 21 23  1  0  0  0
 22 28  1  0  0  0
 22 32  2  0  0  0
 26 27  1  0  0  0
 28 99  1  0  0  0
 28100  1  0  0  0
 29101  1  0  0  0
 29102  1  0  0  0
 33 34  1  0  0  0
 33 66  1  0  0  0
 33 70  2  0  0  0
 34 36  1  0  0  0
 34 59  1  0  0  0
 34103  1  0  0  0
 35 44  2  0  0  0
 35 45  1  0  0  0
 35 68  1  0  0  0
 36 56  1  0  0  0
 36104  1  0  0  0
 37 39  1  0  0  0
 37 47  1  0  0  0
 37 66  1  0  0  0
 37105  1  0  0  0
 38 43  2  0  0  0
 38 46  1  0  0  0
 38 47  1  0  0  0
 39 64  1  0  0  0
 39 67  2  0  0  0
 40 52  1  0  0  0
 40 53  2  0  0  0
 40 58  1  0  0  0
 41106  1  0  0  0
 41107  1  0  0  0
 41108  1  0  0  0
 41 48  1  0  0  0
 42 43  1  0  0  0
 42 66  1  0  0  0
 42109  1  0  0  0
 42110  1  0  0  0
 43 44  1  0  0  0
 44111  1  0  0  0
 45 46  2  0  0  0
 45112  1  0  0  0
 46113  1  0  0  0
 47114  1  0  0  0
 47115  1  0  0  0
 48 56  1  0  0  0
 48 65  1  0  0  0
 48116  1  0  0  0
 49 50  1  0  0  0
 49 53  1  0  0  0
 49 64  1  0  0  0
 49117  1  0  0  0
 50 51  1  0  0  0
 50118  1  0  0  0
 50119  1  0  0  0
 51 52  1  0  0  0
 51120  1  0  0  0
 51121  1  0  0  0
 52122  1  0  0  0
 52123  1  0  0  0
 53 54  1  0  0  0
 54 55  2  0  0  0
 54124  1  0  0  0
 55 57  1  0  0  0
 55125  1  0  0  0
 56 69  2  0  0  0
 57 58  2  0  0  0
 57126  1  0  0  0
 58127  1  0  0  0
 59 60  1  0  0  0
 59 61  1  0  0  0
 59 62  1  0  0  0
 60128  1  0  0  0
 60129  1  0  0  0
 60130  1  0  0  0
 61131  1  0  0  0
 61132  1  0  0  0
 61133  1  0  0  0
 62134  1  0  0  0
 62135  1  0  0  0
 62136  1  0  0  0
 63 65  1  0  0  0
 63137  1  0  0  0
 63138  1  0  0  0
 63139  1  0  0  0
 64140  1  0  0  0
 65141  1  0  0  0
 68 78  1  0  0  0
 71 72  2  0  0  0
 71 74  1  0  0  0
 71142  1  0  0  0
 72 76  1  0  0  0
 72143  1  0  0  0
 73 74  2  0  0  0
 73 75  1  0  0  0
 73144  1  0  0  0
 74 78  1  0  0  0
 75 76  2  0  0  0
 75 77  1  0  0  0
 76 81  1  0  0  0
 77145  1  0  0  0
 77146  1  0  0  0
 77147  1  0  0  0
 78148  1  0  0  0
 78149  1  0  0  0
 79 80  1  0  0  0
 79 81  1  0  0  0
 79150  1  0  0  0
 79151  1  0  0  0
 80 82  1  0  0  0
 80152  1  0  0  0
 80153  1  0  0  0
 81154  1  0  0  0
 82155  1  0  0  0
M  ISO  4   1 100  68 101  78 101  82 100
M  END
> <chiral flag>
0

> <version>
0

> <s_m_source_file>
/data/baiqing/PycharmProjects/Reinvent-master-3.2/result/LINK_invent/BTK/process_docking_weight1_custom_sum_contain_oxygen_bond_distance_aromatic_linkinvent_7_9_3/rearranged_h_0133.sdf

> <i_m_source_file_index>
28

> <r_mmod_Potential_Energy-OPLS-2005>
2.75107836723328

> <r_mmod_Stretch_Energy-OPLS-2005>
82.9481582641602

> <r_mmod_Bend_Energy-OPLS-2005>
169.712844848633

> <r_mmod_Torsional_Energy-OPLS-2005>
206.219131469727

> <r_mmod_Improper_Torsional_Energy-OPLS-2005>
5.20110940933228

> <r_mmod_Van_der_Waal_Energy-OPLS-2005>
144.788864135742

> <r_mmod_Electrostatic_Energy-OPLS-2005>
-444.659606933594

> <r_mmod_Solvation_Energy-OPLS-2005>
-218.855834960938

> <b_mmod_Minimization_Converged-OPLS-2005>
0

> <r_mmod_RMS_Derivative-OPLS-2005>
3.17561507225037

$$$$
28
                    3D
 Structure written by MMmdl.
171180  0  0  1  0            999 V2000
  -30.6427  -14.5095   20.5756 C   0  0  0  0  0  0
  -30.4323  -12.3408   19.4032 C   0  0  0  0  0  0
  -29.4952  -12.5584   18.1948 C   0  0  0  0  0  0
  -28.0176  -12.3966   18.6034 C   0  0  0  0  0  0
  -27.6636  -13.2103   19.8743 C   0  0  2  0  0  0
  -28.7056  -12.9595   20.9860 C   0  0  0  0  0  0
  -25.2612  -13.8155   20.5678 C   0  0  0  0  0  0
  -24.1879  -13.0432   20.9186 C   0  0  0  0  0  0
  -24.6441  -11.6891   20.8754 C   0  0  0  0  0  0
  -23.9105  -10.4280   21.0435 C   0  0  0  0  0  0
  -24.3654   -9.4185   21.9205 C   0  0  0  0  0  0
  -23.6305   -8.2247   22.0741 C   0  0  0  0  0  0
  -22.4275   -8.0313   21.3545 C   0  0  0  0  0  0
  -21.9926   -9.0296   20.4642 C   0  0  0  0  0  0
  -22.7285  -10.2146   20.3061 C   0  0  0  0  0  0
  -21.6870   -6.0771   22.5297 C   0  0  0  0  0  0
  -21.4038   -6.5671   23.8225 C   0  0  0  0  0  0
  -21.3641   -5.6796   24.9179 C   0  0  0  0  0  0
  -21.6027   -4.3060   24.7219 C   0  0  0  0  0  0
  -21.8821   -3.8161   23.4344 C   0  0  0  0  0  0
  -21.9188   -4.7000   22.3398 C   0  0  0  0  0  0
  -22.7906  -13.5234   21.1861 C   0  0  0  0  0  0
  -22.1651   -4.2173   21.0980 F   0  0  0  0  0  0
  -21.5582   -3.4528   25.7722 F   0  0  0  0  0  0
  -30.0332  -13.2969   20.4471 N   0  0  0  0  0  0
  -26.3049  -12.9329   20.3337 N   0  0  0  0  0  0
  -25.9354  -11.6481   20.5724 N   0  0  0  0  0  0
  -22.0535  -12.8217   22.0406 N   0  0  0  0  0  0
  -25.4315  -15.1862   20.4026 N   0  0  0  0  0  0
  -31.7672  -14.7558   20.1290 O   0  0  0  0  0  0
  -21.6622   -6.8932   21.4262 O   0  0  0  0  0  0
  -22.3600  -14.5556   20.6730 O   0  0  0  0  0  0
  -24.6189  -31.8679   23.2111 C   0  0  0  0  0  0
  -25.9075  -32.4828   23.8406 C   0  0  1  0  0  0
  -27.2131  -27.3774   20.0890 C   0  0  0  0  0  0
  -25.5985  -33.8623   24.2335 N   0  0  0  0  0  0
  -23.4074  -30.5009   21.5514 C   0  0  2  0  0  0
  -24.8453  -28.9713   20.1172 C   0  0  0  0  0  0
  -22.7467  -29.4675   22.4936 C   0  0  0  0  0  0
  -18.0291  -28.1351   22.8473 C   0  0  0  0  0  0
  -24.1511  -36.7299   23.2645 C   0  0  0  0  0  0
  -25.9491  -30.8135   21.3777 C   0  0  0  0  0  0
  -26.0171  -29.4516   20.7110 C   0  0  0  0  0  0
  -27.2022  -28.6711   20.6815 C   0  0  0  0  0  0
  -25.9965  -26.9281   19.5222 C   0  0  0  0  0  0
  -24.8330  -27.7075   19.5202 C   0  0  0  0  0  0
  -23.6188  -29.8489   20.1625 C   0  0  0  0  0  0
  -25.4134  -36.3109   24.0338 C   0  0  1  0  0  0
  -20.5913  -28.3640   23.1274 C   0  0  2  0  0  0
  -20.6785  -26.9367   22.5371 C   0  0  0  0  0  0
  -19.5773  -26.6346   21.5172 C   0  0  0  0  0  0
  -18.1947  -26.7910   22.1585 C   0  0  0  0  0  0
  -19.1552  -28.8797   23.2880 C   0  0  0  0  0  0
  -18.9490  -30.1421   23.8874 C   0  0  0  0  0  0
  -17.6503  -30.6554   24.0565 C   0  0  0  0  0  0
  -25.9061  -34.9487   23.5096 C   0  0  0  0  0  0
  -16.5386  -29.9054   23.6345 C   0  0  0  0  0  0
  -16.7289  -28.6478   23.0326 C   0  0  0  0  0  0
  -26.4457  -31.6630   25.0763 C   0  0  0  0  0  0
  -25.3722  -31.3748   26.1515 C   0  0  0  0  0  0
  -27.0291  -30.3074   24.6169 C   0  0  0  0  0  0
  -27.6039  -32.4359   25.7533 C   0  0  0  0  0  0
  -27.5580  -37.1804   24.8464 C   0  0  0  0  0  0
  -21.4186  -29.3034   22.3706 N   0  0  0  0  0  0
  -26.4297  -37.3807   23.9429 N   0  0  0  0  0  0
  -24.6769  -31.0788   22.1006 N   0  0  0  0  0  0
  -23.4240  -28.8142   23.2924 O   0  0  0  0  0  0
  -28.3970  -26.6398   20.0514 O   0  0  0  0  0  0
  -26.5576  -34.8944   22.4637 O   0  0  0  0  0  0
  -23.5365  -32.1427   23.7483 O   0  0  0  0  0  0
  -31.6574  -19.9160   16.3783 C   0  0  0  0  0  0
  -30.0791  -23.1199   20.1528 C   0  0  0  0  0  0
  -28.4817  -23.3639   18.1968 C   0  0  0  0  0  0
  -31.0503  -19.1074   17.5316 C   0  0  0  0  0  0
  -29.8688  -24.6751   20.2166 C   0  0  0  0  0  0
  -27.7131  -24.4892   18.8849 C   0  0  0  0  0  0
  -30.8087  -21.1387   16.0458 C   0  0  0  0  0  0
  -29.1845  -22.3486   19.1369 C   0  0  1  0  0  0
  -29.8311  -21.2154   18.2441 C   0  0  2  0  0  0
  -30.6605  -19.9749   18.7766 C   0  0  1  0  0  0
  -28.4021  -25.1798   20.0882 C   0  0  2  0  0  0
  -29.9417  -16.9415   21.1643 C   0  0  0  0  0  0
  -30.2972  -17.6736   19.8455 C   0  0  0  0  0  0
  -30.6727  -21.9149   17.2674 N   0  0  0  0  0  0
  -29.8307  -15.4681   21.0727 N   0  0  0  0  0  0
  -29.9885  -19.1474   19.8308 N   0  3  0  0  0  0
  -31.4732  -12.4653   19.1065 H   0  0  0  0  0  0
  -30.3452  -11.3172   19.7701 H   0  0  0  0  0  0
  -29.7433  -11.8694   17.3878 H   0  0  0  0  0  0
  -29.6444  -13.5647   17.7948 H   0  0  0  0  0  0
  -27.8363  -11.3369   18.7829 H   0  0  0  0  0  0
  -27.3636  -12.6885   17.7811 H   0  0  0  0  0  0
  -27.7098  -14.2622   19.5955 H   0  0  0  0  0  0
  -28.6921  -11.9101   21.2839 H   0  0  0  0  0  0
  -28.4589  -13.5196   21.8886 H   0  0  0  0  0  0
  -25.2801   -9.5594   22.4791 H   0  0  0  0  0  0
  -23.9970   -7.4611   22.7465 H   0  0  0  0  0  0
  -21.0843   -8.8876   19.8954 H   0  0  0  0  0  0
  -22.3808  -10.9716   19.6164 H   0  0  0  0  0  0
  -21.2065   -7.6176   23.9757 H   0  0  0  0  0  0
  -21.1437   -6.0511   25.9087 H   0  0  0  0  0  0
  -22.0605   -2.7628   23.2825 H   0  0  0  0  0  0
  -22.4123  -11.9818   22.4677 H   0  0  0  0  0  0
  -21.1186  -13.1292   22.2690 H   0  0  0  0  0  0
  -24.6527  -15.8321   20.4708 H   0  0  0  0  0  0
  -26.2734  -15.6198   20.0452 H   0  0  0  0  0  0
  -26.7136  -32.5477   23.1157 H   0  0  0  0  0  0
  -25.0311  -33.9785   25.0586 H   0  0  0  0  0  0
  -22.6981  -31.3198   21.4140 H   0  0  0  0  0  0
  -23.3797  -35.9603   23.3305 H   0  0  0  0  0  0
  -24.3596  -36.8871   22.2049 H   0  0  0  0  0  0
  -23.7214  -37.6487   23.6638 H   0  0  0  0  0  0
  -26.1001  -31.5898   20.6271 H   0  0  0  0  0  0
  -26.8261  -30.8360   22.0132 H   0  0  0  0  0  0
  -28.1127  -29.0549   21.1195 H   0  0  0  0  0  0
  -25.8624  -25.9822   19.0437 H   0  0  0  0  0  0
  -23.9329  -27.3249   19.0588 H   0  0  0  0  0  0
  -23.7477  -30.6326   19.4154 H   0  0  0  0  0  0
  -22.7401  -29.2831   19.8481 H   0  0  0  0  0  0
  -25.1306  -36.1983   25.0822 H   0  0  0  0  0  0
  -20.9991  -28.3144   24.1402 H   0  0  0  0  0  0
  -20.5687  -26.2212   23.3527 H   0  0  0  0  0  0
  -21.6645  -26.7356   22.1185 H   0  0  0  0  0  0
  -19.6957  -25.6243   21.1197 H   0  0  0  0  0  0
  -19.6772  -27.3156   20.6720 H   0  0  0  0  0  0
  -17.4224  -26.6657   21.3977 H   0  0  0  0  0  0
  -18.0365  -26.0017   22.8954 H   0  0  0  0  0  0
  -19.7980  -30.7231   24.2216 H   0  0  0  0  0  0
  -17.5065  -31.6249   24.5145 H   0  0  0  0  0  0
  -15.5394  -30.2961   23.7673 H   0  0  0  0  0  0
  -15.8687  -28.0810   22.7039 H   0  0  0  0  0  0
  -24.5972  -30.7004   25.7858 H   0  0  0  0  0  0
  -24.8859  -32.2884   26.4942 H   0  0  0  0  0  0
  -25.8113  -30.8964   27.0288 H   0  0  0  0  0  0
  -26.2813  -29.6909   24.1165 H   0  0  0  0  0  0
  -27.3974  -29.7270   25.4635 H   0  0  0  0  0  0
  -27.8713  -30.4423   23.9394 H   0  0  0  0  0  0
  -27.2675  -33.3688   26.2099 H   0  0  0  0  0  0
  -28.3864  -32.6873   25.0362 H   0  0  0  0  0  0
  -28.0711  -31.8499   26.5453 H   0  0  0  0  0  0
  -28.2590  -38.0119   24.7515 H   0  0  0  0  0  0
  -28.1078  -36.2627   24.6283 H   0  0  0  0  0  0
  -27.2278  -37.1408   25.8863 H   0  0  0  0  0  0
  -20.9298  -29.8834   21.7029 H   0  0  0  0  0  0
  -26.0193  -38.2885   24.1449 H   0  0  0  0  0  0
  -31.7495  -19.2867   15.4920 H   0  0  0  0  0  0
  -32.6695  -20.2322   16.6347 H   0  0  0  0  0  0
  -29.8881  -22.7156   21.1480 H   0  0  0  0  0  0
  -31.1318  -22.9100   19.9612 H   0  0  0  0  0  0
  -29.1991  -23.8656   17.5480 H   0  0  0  0  0  0
  -27.7929  -22.8359   17.5355 H   0  0  0  0  0  0
  -31.7844  -18.3450   17.7871 H   0  0  0  0  0  0
  -30.1693  -18.5884   17.1546 H   0  0  0  0  0  0
  -30.4597  -25.1406   19.4301 H   0  0  0  0  0  0
  -30.2922  -25.0501   21.1493 H   0  0  0  0  0  0
  -26.7498  -24.0870   19.2052 H   0  0  0  0  0  0
  -27.5239  -25.2224   18.1007 H   0  0  0  0  0  0
  -29.8307  -20.8623   15.6427 H   0  0  0  0  0  0
  -31.3051  -21.7415   15.2836 H   0  0  0  0  0  0
  -28.3964  -21.8776   19.7263 H   0  0  0  0  0  0
  -28.9805  -20.7943   17.6995 H   0  0  0  0  0  0
  -31.5800  -20.3492   19.2275 H   0  0  0  0  0  0
  -27.8702  -24.8790   20.9917 H   0  0  0  0  0  0
  -28.9711  -17.2930   21.5146 H   0  0  0  0  0  0
  -30.6640  -17.2030   21.9401 H   0  0  0  0  0  0
  -29.7692  -17.2045   19.0130 H   0  0  0  0  0  0
  -31.3643  -17.5161   19.6960 H   0  0  0  0  0  0
  -30.2031  -22.7848   17.0339 H   0  0  0  0  0  0
  -28.9474  -15.1019   21.3952 H   0  0  0  0  0  0
  -28.9923  -19.2562   19.7318 H   0  0  0  0  0  0
  -30.2400  -19.5437   20.7228 H   0  0  0  0  0  0
  1 25  1  0  0  0
  1 30  2  0  0  0
  1 85  1  0  0  0
  2  3  1  0  0  0
  2 25  1  0  0  0
  2 87  1  0  0  0
  2 88  1  0  0  0
  3  4  1  0  0  0
  3 89  1  0  0  0
  3 90  1  0  0  0
  4  5  1  0  0  0
  4 91  1  0  0  0
  4 92  1  0  0  0
  5  6  1  0  0  0
  5 26  1  0  0  0
  5 93  1  0  0  0
  6 25  1  0  0  0
  6 94  1  0  0  0
  6 95  1  0  0  0
  7  8  2  0  0  0
  7 26  1  0  0  0
  7 29  1  0  0  0
  8  9  1  0  0  0
  8 22  1  0  0  0
  9 10  1  0  0  0
  9 27  2  0  0  0
 10 11  2  0  0  0
 10 15  1  0  0  0
 11 12  1  0  0  0
 11 96  1  0  0  0
 12 13  2  0  0  0
 12 97  1  0  0  0
 13 14  1  0  0  0
 13 31  1  0  0  0
 14 15  2  0  0  0
 14 98  1  0  0  0
 15 99  1  0  0  0
 16 17  2  0  0  0
 16 21  1  0  0  0
 16 31  1  0  0  0
 17 18  1  0  0  0
 17100  1  0  0  0
 18 19  2  0  0  0
 18101  1  0  0  0
 19 20  1  0  0  0
 19 24  1  0  0  0
 20 21  2  0  0  0
 20102  1  0  0  0
 21 23  1  0  0  0
 22 28  1  0  0  0
 22 32  2  0  0  0
 26 27  1  0  0  0
 28103  1  0  0  0
 28104  1  0  0  0
 29105  1  0  0  0
 29106  1  0  0  0
 33 34  1  0  0  0
 33 66  1  0  0  0
 33 70  2  0  0  0
 34 36  1  0  0  0
 34 59  1  0  0  0
 34107  1  0  0  0
 35 44  2  0  0  0
 35 45  1  0  0  0
 35 68  1  0  0  0
 36 56  1  0  0  0
 36108  1  0  0  0
 37 39  1  0  0  0
 37 47  1  0  0  0
 37 66  1  0  0  0
 37109  1  0  0  0
 38 43  2  0  0  0
 38 46  1  0  0  0
 38 47  1  0  0  0
 39 64  1  0  0  0
 39 67  2  0  0  0
 40 52  1  0  0  0
 40 53  2  0  0  0
 40 58  1  0  0  0
 41110  1  0  0  0
 41111  1  0  0  0
 41112  1  0  0  0
 41 48  1  0  0  0
 42 43  1  0  0  0
 42 66  1  0  0  0
 42113  1  0  0  0
 42114  1  0  0  0
 43 44  1  0  0  0
 44115  1  0  0  0
 45 46  2  0  0  0
 45116  1  0  0  0
 46117  1  0  0  0
 47118  1  0  0  0
 47119  1  0  0  0
 48 56  1  0  0  0
 48 65  1  0  0  0
 48120  1  0  0  0
 49 50  1  0  0  0
 49 53  1  0  0  0
 49 64  1  0  0  0
 49121  1  0  0  0
 50 51  1  0  0  0
 50122  1  0  0  0
 50123  1  0  0  0
 51 52  1  0  0  0
 51124  1  0  0  0
 51125  1  0  0  0
 52126  1  0  0  0
 52127  1  0  0  0
 53 54  1  0  0  0
 54 55  2  0  0  0
 54128  1  0  0  0
 55 57  1  0  0  0
 55129  1  0  0  0
 56 69  2  0  0  0
 57 58  2  0  0  0
 57130  1  0  0  0
 58131  1  0  0  0
 59 60  1  0  0  0
 59 61  1  0  0  0
 59 62  1  0  0  0
 60132  1  0  0  0
 60133  1  0  0  0
 60134  1  0  0  0
 61135  1  0  0  0
 61136  1  0  0  0
 61137  1  0  0  0
 62138  1  0  0  0
 62139  1  0  0  0
 62140  1  0  0  0
 63 65  1  0  0  0
 63141  1  0  0  0
 63142  1  0  0  0
 63143  1  0  0  0
 64144  1  0  0  0
 65145  1  0  0  0
 68 81  1  0  0  0
 71 74  1  0  0  0
 71 77  1  0  0  0
 71146  1  0  0  0
 71147  1  0  0  0
 72 75  1  0  0  0
 72148  1  0  0  0
 72149  1  0  0  0
 72 78  1  0  0  0
 73 76  1  0  0  0
 73 78  1  0  0  0
 73150  1  0  0  0
 73151  1  0  0  0
 74 80  1  0  0  0
 74152  1  0  0  0
 74153  1  0  0  0
 75 81  1  0  0  0
 75154  1  0  0  0
 75155  1  0  0  0
 76 81  1  0  0  0
 76156  1  0  0  0
 76157  1  0  0  0
 77 84  1  0  0  0
 77158  1  0  0  0
 77159  1  0  0  0
 78 79  1  0  0  0
 78160  1  0  0  0
 79 80  1  0  0  0
 79 84  1  0  0  0
 79161  1  0  0  0
 80 86  1  0  0  0
 80162  1  0  0  0
 81163  1  0  0  0
 82 83  1  0  0  0
 82 85  1  0  0  0
 82164  1  0  0  0
 82165  1  0  0  0
 83 86  1  0  0  0
 83166  1  0  0  0
 83167  1  0  0  0
 84168  1  0  0  0
 85169  1  0  0  0
 86170  1  0  0  0
 86171  1  0  0  0
M  CHG  1  86   1
M  ISO  4   1 100  68 101  81 101  85 100
M  END
> <chiral flag>
0

> <version>
0

> <s_m_source_file>
/data/baiqing/PycharmProjects/Reinvent-master-3.2/result/LINK_invent/BTK/process_docking_weight1_custom_sum_contain_oxygen_bond_distance_aromatic_linkinvent_7_9_3/rearranged_h_0133.sdf

> <i_m_source_file_index>
29

> <r_mmod_Potential_Energy-OPLS-2005>
-59.474796295166

> <r_mmod_Stretch_Energy-OPLS-2005>
55.2334289550781

> <r_mmod_Bend_Energy-OPLS-2005>
160.342529296875

> <r_mmod_Torsional_Energy-OPLS-2005>
320.743927001953

> <r_mmod_Improper_Torsional_Energy-OPLS-2005>
4.45845603942871

> <r_mmod_Van_der_Waal_Energy-OPLS-2005>
170.631149291992

> <r_mmod_Electrostatic_Energy-OPLS-2005>
-325.3994140625

> <r_mmod_Solvation_Energy-OPLS-2005>
-465.641235351562

> <b_mmod_Minimization_Converged-OPLS-2005>
0

> <r_mmod_RMS_Derivative-OPLS-2005>
5.00214529037476

$$$$
29
                    3D
 Structure written by MMmdl.
167176  0  0  1  0            999 V2000
  -30.7415  -14.3603   20.7313 C   0  0  0  0  0  0
  -30.4157  -12.3124   19.3844 C   0  0  0  0  0  0
  -29.4804  -12.5465   18.1834 C   0  0  0  0  0  0
  -28.0057  -12.3797   18.5976 C   0  0  0  0  0  0
  -27.6537  -13.1948   19.8679 C   0  0  2  0  0  0
  -28.6832  -12.9177   20.9809 C   0  0  0  0  0  0
  -25.2505  -13.8114   20.5622 C   0  0  0  0  0  0
  -24.1755  -13.0401   20.9127 C   0  0  0  0  0  0
  -24.6296  -11.6866   20.8644 C   0  0  0  0  0  0
  -23.8960  -10.4270   21.0330 C   0  0  0  0  0  0
  -24.3540   -9.4230   21.9126 C   0  0  0  0  0  0
  -23.6263   -8.2251   22.0723 C   0  0  0  0  0  0
  -22.4247   -8.0253   21.3531 C   0  0  0  0  0  0
  -21.9833   -9.0187   20.4614 C   0  0  0  0  0  0
  -22.7113  -10.2093   20.3016 C   0  0  0  0  0  0
  -21.6851   -6.0707   22.5274 C   0  0  0  0  0  0
  -21.4009   -6.5624   23.8202 C   0  0  0  0  0  0
  -21.3669   -5.6782   24.9166 C   0  0  0  0  0  0
  -21.6051   -4.3046   24.7216 C   0  0  0  0  0  0
  -21.8826   -3.8127   23.4344 C   0  0  0  0  0  0
  -21.9198   -4.6937   22.3399 C   0  0  0  0  0  0
  -22.7799  -13.5216   21.1868 C   0  0  0  0  0  0
  -22.1676   -4.2136   21.0973 F   0  0  0  0  0  0
  -21.5630   -3.4535   25.7727 F   0  0  0  0  0  0
  -30.0279  -13.2348   20.4609 N   0  0  0  0  0  0
  -26.2921  -12.9270   20.3242 N   0  0  0  0  0  0
  -25.9209  -11.6439   20.5596 N   0  0  0  0  0  0
  -22.0469  -12.8184   22.0427 N   0  0  0  0  0  0
  -25.4250  -15.1836   20.4124 N   0  0  0  0  0  0
  -31.7875  -14.6582   20.1433 O   0  0  0  0  0  0
  -21.6649   -6.8839   21.4230 O   0  0  0  0  0  0
  -22.3476  -14.5542   20.6746 O   0  0  0  0  0  0
  -24.6116  -31.8696   23.2119 C   0  0  0  0  0  0
  -25.9041  -32.4811   23.8381 C   0  0  1  0  0  0
  -27.2443  -27.4887   20.0610 C   0  0  0  0  0  0
  -25.5897  -33.8626   24.2306 N   0  0  0  0  0  0
  -23.3968  -30.4947   21.5532 C   0  0  2  0  0  0
  -24.8395  -28.9677   20.1200 C   0  0  0  0  0  0
  -22.7407  -29.4690   22.5015 C   0  0  0  0  0  0
  -18.0277  -28.1389   22.8498 C   0  0  0  0  0  0
  -24.1507  -36.7327   23.2626 C   0  0  0  0  0  0
  -25.9177  -30.8556   21.3509 C   0  0  0  0  0  0
  -26.0000  -29.4921   20.7028 C   0  0  0  0  0  0
  -27.2044  -28.7618   20.6636 C   0  0  0  0  0  0
  -26.0592  -26.9637   19.4891 C   0  0  0  0  0  0
  -24.8617  -27.7008   19.5159 C   0  0  0  0  0  0
  -23.5990  -29.8261   20.1677 C   0  0  0  0  0  0
  -25.4121  -36.3114   24.0315 C   0  0  1  0  0  0
  -20.5864  -28.3670   23.1345 C   0  0  2  0  0  0
  -20.6773  -26.9414   22.5427 C   0  0  0  0  0  0
  -19.5753  -26.6402   21.5231 C   0  0  0  0  0  0
  -18.1924  -26.7917   22.1620 C   0  0  0  0  0  0
  -19.1520  -28.8840   23.2923 C   0  0  0  0  0  0
  -18.9456  -30.1436   23.8917 C   0  0  0  0  0  0
  -17.6465  -30.6585   24.0579 C   0  0  0  0  0  0
  -25.9030  -34.9465   23.5104 C   0  0  0  0  0  0
  -16.5348  -29.9096   23.6333 C   0  0  0  0  0  0
  -16.7267  -28.6526   23.0335 C   0  0  0  0  0  0
  -26.4493  -31.6538   25.0683 C   0  0  0  0  0  0
  -25.3812  -31.3607   26.1479 C   0  0  0  0  0  0
  -27.0286  -30.3001   24.5976 C   0  0  0  0  0  0
  -27.6052  -32.4230   25.7513 C   0  0  0  0  0  0
  -27.5571  -37.1794   24.8467 C   0  0  0  0  0  0
  -21.4147  -29.3054   22.3788 N   0  0  0  0  0  0
  -26.4305  -37.3793   23.9412 N   0  0  0  0  0  0
  -24.6627  -31.0837   22.1005 N   0  0  0  0  0  0
  -23.4224  -28.8248   23.3035 O   0  0  0  0  0  0
  -28.4459  -26.8121   20.0651 O   0  0  0  0  0  0
  -26.5596  -34.8942   22.4667 O   0  0  0  0  0  0
  -23.5349  -32.1431   23.7564 O   0  0  0  0  0  0
  -30.0239  -21.2079   23.1414 C   0  0  0  0  0  0
  -29.1214  -22.0645   22.4941 C   0  0  0  0  0  0
  -27.2978  -21.0793   23.7606 C   0  0  0  0  0  0
  -29.5716  -20.2375   24.0600 C   0  0  0  0  0  0
  -28.1955  -20.1911   24.3870 C   0  0  0  0  0  0
  -27.7406  -21.9963   22.7853 C   0  0  0  0  0  0
  -31.8062  -18.8866   23.9439 C   0  0  0  0  0  0
  -30.5686  -19.3179   24.6982 C   0  0  2  0  0  0
  -30.7740  -17.8606   24.3160 C   0  0  2  0  0  0
  -27.6586  -19.1937   25.3997 C   0  0  0  0  0  0
  -30.0203  -17.1287   23.2158 C   0  0  0  0  0  0
  -27.7426  -24.7900   21.2135 C   0  0  0  0  0  0
  -30.9551  -16.1927   22.4102 C   0  0  0  0  0  0
  -28.4080  -25.3941   19.9643 C   0  0  0  0  0  0
  -27.1435  -23.4069   20.9446 C   0  0  0  0  0  0
  -30.2521  -15.1026   21.7370 N   0  0  0  0  0  0
  -26.7863  -22.7688   22.1647 O   0  0  0  0  0  0
  -31.4564  -12.4394   19.0838 H   0  0  0  0  0  0
  -30.3333  -11.2854   19.7374 H   0  0  0  0  0  0
  -29.7224  -11.8545   17.3744 H   0  0  0  0  0  0
  -29.6337  -13.5518   17.7857 H   0  0  0  0  0  0
  -27.8256  -11.3191   18.7709 H   0  0  0  0  0  0
  -27.3537  -12.6637   17.7707 H   0  0  0  0  0  0
  -27.7175  -14.2504   19.6029 H   0  0  0  0  0  0
  -28.6504  -11.8632   21.2633 H   0  0  0  0  0  0
  -28.4130  -13.4614   21.8862 H   0  0  0  0  0  0
  -25.2705   -9.5755   22.4655 H   0  0  0  0  0  0
  -24.0012   -7.4662   22.7441 H   0  0  0  0  0  0
  -21.0779   -8.8647   19.8914 H   0  0  0  0  0  0
  -22.3538  -10.9599   19.6113 H   0  0  0  0  0  0
  -21.2008   -7.6138   23.9699 H   0  0  0  0  0  0
  -21.1485   -6.0512   25.9067 H   0  0  0  0  0  0
  -22.0600   -2.7592   23.2836 H   0  0  0  0  0  0
  -22.4131  -11.9877   22.4832 H   0  0  0  0  0  0
  -21.1068  -13.1133   22.2669 H   0  0  0  0  0  0
  -24.6473  -15.8279   20.5085 H   0  0  0  0  0  0
  -26.2874  -15.6340   20.1289 H   0  0  0  0  0  0
  -26.7061  -32.5524   23.1106 H   0  0  0  0  0  0
  -25.0180  -33.9849   25.0531 H   0  0  0  0  0  0
  -22.6877  -31.3120   21.4164 H   0  0  0  0  0  0
  -23.3771  -35.9657   23.3313 H   0  0  0  0  0  0
  -24.3579  -36.8948   22.2032 H   0  0  0  0  0  0
  -23.7269  -37.6520   23.6656 H   0  0  0  0  0  0
  -26.0011  -31.6220   20.5779 H   0  0  0  0  0  0
  -26.8225  -30.9270   21.9426 H   0  0  0  0  0  0
  -28.1056  -29.1704   21.1002 H   0  0  0  0  0  0
  -26.0271  -25.9908   19.0216 H   0  0  0  0  0  0
  -23.9678  -27.2865   19.0726 H   0  0  0  0  0  0
  -23.7097  -30.6026   19.4082 H   0  0  0  0  0  0
  -22.7244  -29.2457   19.8682 H   0  0  0  0  0  0
  -25.1302  -36.1950   25.0803 H   0  0  0  0  0  0
  -20.9957  -28.3215   24.1471 H   0  0  0  0  0  0
  -20.5717  -26.2247   23.3575 H   0  0  0  0  0  0
  -21.6642  -26.7488   22.1207 H   0  0  0  0  0  0
  -19.6935  -25.6326   21.1250 H   0  0  0  0  0  0
  -19.6699  -27.3209   20.6770 H   0  0  0  0  0  0
  -17.4214  -26.6669   21.3998 H   0  0  0  0  0  0
  -18.0311  -26.0040   22.9003 H   0  0  0  0  0  0
  -19.7944  -30.7274   24.2260 H   0  0  0  0  0  0
  -17.5037  -31.6256   24.5176 H   0  0  0  0  0  0
  -15.5353  -30.3035   23.7648 H   0  0  0  0  0  0
  -15.8664  -28.0901   22.6996 H   0  0  0  0  0  0
  -24.5995  -30.6925   25.7903 H   0  0  0  0  0  0
  -24.9043  -32.2755   26.4958 H   0  0  0  0  0  0
  -25.8270  -30.8817   27.0209 H   0  0  0  0  0  0
  -26.2712  -29.6722   24.1278 H   0  0  0  0  0  0
  -27.4353  -29.7289   25.4340 H   0  0  0  0  0  0
  -27.8444  -30.4328   23.8856 H   0  0  0  0  0  0
  -27.2633  -33.3490   26.2145 H   0  0  0  0  0  0
  -28.3878  -32.6799   25.0365 H   0  0  0  0  0  0
  -28.0692  -31.8351   26.5444 H   0  0  0  0  0  0
  -28.2587  -38.0089   24.7465 H   0  0  0  0  0  0
  -28.1045  -36.2592   24.6328 H   0  0  0  0  0  0
  -27.2283  -37.1494   25.8874 H   0  0  0  0  0  0
  -20.9296  -29.8818   21.7033 H   0  0  0  0  0  0
  -26.0180  -38.2873   24.1420 H   0  0  0  0  0  0
  -31.0726  -21.2965   22.9129 H   0  0  0  0  0  0
  -29.5205  -22.7648   21.7739 H   0  0  0  0  0  0
  -26.2466  -21.0403   24.0047 H   0  0  0  0  0  0
  -32.7469  -18.8542   24.4905 H   0  0  0  0  0  0
  -31.8831  -19.0904   22.8779 H   0  0  0  0  0  0
  -30.7061  -19.5889   25.7427 H   0  0  0  0  0  0
  -31.0752  -17.2049   25.1313 H   0  0  0  0  0  0
  -27.7410  -18.1766   25.0156 H   0  0  0  0  0  0
  -26.6053  -19.3732   25.6212 H   0  0  0  0  0  0
  -28.2128  -19.2668   26.3359 H   0  0  0  0  0  0
  -29.2229  -16.5614   23.6973 H   0  0  0  0  0  0
  -29.5347  -17.8526   22.5586 H   0  0  0  0  0  0
  -26.9358  -25.4213   21.5866 H   0  0  0  0  0  0
  -28.4731  -24.7611   22.0190 H   0  0  0  0  0  0
  -31.6788  -15.7304   23.0825 H   0  0  0  0  0  0
  -31.5252  -16.7809   21.6901 H   0  0  0  0  0  0
  -27.9384  -25.0793   19.0338 H   0  0  0  0  0  0
  -29.4288  -25.0184   19.8899 H   0  0  0  0  0  0
  -27.8040  -22.7859   20.3363 H   0  0  0  0  0  0
  -26.2385  -23.5236   20.3472 H   0  0  0  0  0  0
  -29.3844  -14.7876   22.1463 H   0  0  0  0  0  0
  1 25  1  0  0  0
  1 30  2  0  0  0
  1 86  1  0  0  0
  2  3  1  0  0  0
  2 25  1  0  0  0
  2 88  1  0  0  0
  2 89  1  0  0  0
  3  4  1  0  0  0
  3 90  1  0  0  0
  3 91  1  0  0  0
  4  5  1  0  0  0
  4 92  1  0  0  0
  4 93  1  0  0  0
  5  6  1  0  0  0
  5 26  1  0  0  0
  5 94  1  0  0  0
  6 25  1  0  0  0
  6 95  1  0  0  0
  6 96  1  0  0  0
  7  8  2  0  0  0
  7 26  1  0  0  0
  7 29  1  0  0  0
  8  9  1  0  0  0
  8 22  1  0  0  0
  9 10  1  0  0  0
  9 27  2  0  0  0
 10 11  2  0  0  0
 10 15  1  0  0  0
 11 12  1  0  0  0
 11 97  1  0  0  0
 12 13  2  0  0  0
 12 98  1  0  0  0
 13 14  1  0  0  0
 13 31  1  0  0  0
 14 15  2  0  0  0
 14 99  1  0  0  0
 15100  1  0  0  0
 16 17  2  0  0  0
 16 21  1  0  0  0
 16 31  1  0  0  0
 17 18  1  0  0  0
 17101  1  0  0  0
 18 19  2  0  0  0
 18102  1  0  0  0
 19 20  1  0  0  0
 19 24  1  0  0  0
 20 21  2  0  0  0
 20103  1  0  0  0
 21 23  1  0  0  0
 22 28  1  0  0  0
 22 32  2  0  0  0
 26 27  1  0  0  0
 28104  1  0  0  0
 28105  1  0  0  0
 29106  1  0  0  0
 29107  1  0  0  0
 33 34  1  0  0  0
 33 66  1  0  0  0
 33 70  2  0  0  0
 34 36  1  0  0  0
 34 59  1  0  0  0
 34108  1  0  0  0
 35 44  2  0  0  0
 35 45  1  0  0  0
 35 68  1  0  0  0
 36 56  1  0  0  0
 36109  1  0  0  0
 37 39  1  0  0  0
 37 47  1  0  0  0
 37 66  1  0  0  0
 37110  1  0  0  0
 38 43  2  0  0  0
 38 46  1  0  0  0
 38 47  1  0  0  0
 39 64  1  0  0  0
 39 67  2  0  0  0
 40 52  1  0  0  0
 40 53  2  0  0  0
 40 58  1  0  0  0
 41111  1  0  0  0
 41112  1  0  0  0
 41113  1  0  0  0
 41 48  1  0  0  0
 42 43  1  0  0  0
 42 66  1  0  0  0
 42114  1  0  0  0
 42115  1  0  0  0
 43 44  1  0  0  0
 44116  1  0  0  0
 45 46  2  0  0  0
 45117  1  0  0  0
 46118  1  0  0  0
 47119  1  0  0  0
 47120  1  0  0  0
 48 56  1  0  0  0
 48 65  1  0  0  0
 48121  1  0  0  0
 49 50  1  0  0  0
 49 53  1  0  0  0
 49 64  1  0  0  0
 49122  1  0  0  0
 50 51  1  0  0  0
 50123  1  0  0  0
 50124  1  0  0  0
 51 52  1  0  0  0
 51125  1  0  0  0
 51126  1  0  0  0
 52127  1  0  0  0
 52128  1  0  0  0
 53 54  1  0  0  0
 54 55  2  0  0  0
 54129  1  0  0  0
 55 57  1  0  0  0
 55130  1  0  0  0
 56 69  2  0  0  0
 57 58  2  0  0  0
 57131  1  0  0  0
 58132  1  0  0  0
 59 60  1  0  0  0
 59 61  1  0  0  0
 59 62  1  0  0  0
 60133  1  0  0  0
 60134  1  0  0  0
 60135  1  0  0  0
 61136  1  0  0  0
 61137  1  0  0  0
 61138  1  0  0  0
 62139  1  0  0  0
 62140  1  0  0  0
 62141  1  0  0  0
 63 65  1  0  0  0
 63142  1  0  0  0
 63143  1  0  0  0
 63144  1  0  0  0
 64145  1  0  0  0
 65146  1  0  0  0
 68 84  1  0  0  0
 71 72  2  0  0  0
 71 74  1  0  0  0
 71147  1  0  0  0
 72 76  1  0  0  0
 72148  1  0  0  0
 73 75  1  0  0  0
 73 76  2  0  0  0
 73149  1  0  0  0
 74 75  2  0  0  0
 74 78  1  0  0  0
 75 80  1  0  0  0
 76 87  1  0  0  0
 77 78  1  0  0  0
 77 79  1  0  0  0
 77150  1  0  0  0
 77151  1  0  0  0
 78 79  1  0  0  0
 78152  1  0  0  0
 79 81  1  0  0  0
 79153  1  0  0  0
 80154  1  0  0  0
 80155  1  0  0  0
 80156  1  0  0  0
 81 83  1  0  0  0
 81157  1  0  0  0
 81158  1  0  0  0
 82 84  1  0  0  0
 82 85  1  0  0  0
 82159  1  0  0  0
 82160  1  0  0  0
 83 86  1  0  0  0
 83161  1  0  0  0
 83162  1  0  0  0
 84163  1  0  0  0
 84164  1  0  0  0
 85 87  1  0  0  0
 85165  1  0  0  0
 85166  1  0  0  0
 86167  1  0  0  0
M  ISO  4   1 100  68 101  84 101  86 100
M  END
> <chiral flag>
0

> <version>
0

> <s_m_source_file>
/data/baiqing/PycharmProjects/Reinvent-master-3.2/result/LINK_invent/BTK/process_docking_weight1_custom_sum_contain_oxygen_bond_distance_aromatic_linkinvent_7_9_3/rearranged_h_0133.sdf

> <i_m_source_file_index>
30

> <r_mmod_Potential_Energy-OPLS-2005>
-54.2919464111328

> <r_mmod_Stretch_Energy-OPLS-2005>
31.797534942627

> <r_mmod_Bend_Energy-OPLS-2005>
102.40323638916

> <r_mmod_Torsional_Energy-OPLS-2005>
232.162460327148

> <r_mmod_Improper_Torsional_Energy-OPLS-2005>
1.98662352561951

> <r_mmod_Van_der_Waal_Energy-OPLS-2005>
166.025283813477

> <r_mmod_Electrostatic_Energy-OPLS-2005>
-388.560455322266

> <r_mmod_Solvation_Energy-OPLS-2005>
-209.68229675293

> <b_mmod_Minimization_Converged-OPLS-2005>
0

> <r_mmod_RMS_Derivative-OPLS-2005>
5.55584955215454

$$$$
30
                    3D
 Structure written by MMmdl.
151159  0  0  1  0            999 V2000
  -30.6308  -14.6771   20.4929 C   0  0  0  0  0  0
  -30.4327  -12.4164   19.4650 C   0  0  0  0  0  0
  -29.5024  -12.4832   18.2355 C   0  0  0  0  0  0
  -28.0302  -12.3121   18.6585 C   0  0  0  0  0  0
  -27.6455  -13.2174   19.8581 C   0  0  2  0  0  0
  -28.6901  -13.1305   20.9914 C   0  0  0  0  0  0
  -25.2533  -13.8182   20.5702 C   0  0  0  0  0  0
  -24.1813  -13.0449   20.9213 C   0  0  0  0  0  0
  -24.6384  -11.6920   20.8787 C   0  0  0  0  0  0
  -23.9066  -10.4300   21.0442 C   0  0  0  0  0  0
  -24.3605   -9.4207   21.9212 C   0  0  0  0  0  0
  -23.6283   -8.2241   22.0765 C   0  0  0  0  0  0
  -22.4275   -8.0275   21.3544 C   0  0  0  0  0  0
  -21.9914   -9.0261   20.4650 C   0  0  0  0  0  0
  -22.7249  -10.2144   20.3078 C   0  0  0  0  0  0
  -21.6850   -6.0739   22.5275 C   0  0  0  0  0  0
  -21.4013   -6.5638   23.8208 C   0  0  0  0  0  0
  -21.3656   -5.6792   24.9165 C   0  0  0  0  0  0
  -21.6039   -4.3058   24.7226 C   0  0  0  0  0  0
  -21.8817   -3.8157   23.4346 C   0  0  0  0  0  0
  -21.9187   -4.6967   22.3400 C   0  0  0  0  0  0
  -22.7837  -13.5231   21.1863 C   0  0  0  0  0  0
  -22.1661   -4.2152   21.0980 F   0  0  0  0  0  0
  -21.5626   -3.4542   25.7741 F   0  0  0  0  0  0
  -29.9954  -13.4657   20.4075 N   0  0  0  0  0  0
  -26.2951  -12.9360   20.3340 N   0  0  0  0  0  0
  -25.9309  -11.6523   20.5814 N   0  0  0  0  0  0
  -22.0484  -12.8213   22.0423 N   0  0  0  0  0  0
  -25.4276  -15.1891   20.4097 N   0  0  0  0  0  0
  -31.8179  -14.7917   20.1771 O   0  0  0  0  0  0
  -21.6631   -6.8885   21.4237 O   0  0  0  0  0  0
  -22.3530  -14.5545   20.6726 O   0  0  0  0  0  0
  -24.6286  -31.8576   23.2031 C   0  0  0  0  0  0
  -25.9138  -32.4759   23.8381 C   0  0  1  0  0  0
  -27.2326  -27.3111   20.1140 C   0  0  0  0  0  0
  -25.5935  -33.8559   24.2296 N   0  0  0  0  0  0
  -23.4224  -30.4840   21.5435 C   0  0  2  0  0  0
  -24.8697  -28.9352   20.1130 C   0  0  0  0  0  0
  -22.7476  -29.4632   22.4889 C   0  0  0  0  0  0
  -18.0291  -28.1394   22.8478 C   0  0  0  0  0  0
  -24.1474  -36.7282   23.2629 C   0  0  0  0  0  0
  -25.9656  -30.7853   21.3771 C   0  0  0  0  0  0
  -26.0393  -29.4126   20.7165 C   0  0  0  0  0  0
  -27.2170  -28.6100   20.7140 C   0  0  0  0  0  0
  -26.0308  -26.8767   19.5068 C   0  0  0  0  0  0
  -24.8665  -27.6704   19.5066 C   0  0  0  0  0  0
  -23.6398  -29.8195   20.1598 C   0  0  0  0  0  0
  -25.4090  -36.3068   24.0332 C   0  0  1  0  0  0
  -20.5900  -28.3712   23.1250 C   0  0  2  0  0  0
  -20.6782  -26.9420   22.5397 C   0  0  0  0  0  0
  -19.5755  -26.6384   21.5205 C   0  0  0  0  0  0
  -18.1920  -26.7941   22.1602 C   0  0  0  0  0  0
  -19.1552  -28.8860   23.2858 C   0  0  0  0  0  0
  -18.9482  -30.1459   23.8871 C   0  0  0  0  0  0
  -17.6487  -30.6585   24.0577 C   0  0  0  0  0  0
  -25.9030  -34.9441   23.5112 C   0  0  0  0  0  0
  -16.5376  -29.9085   23.6352 C   0  0  0  0  0  0
  -16.7287  -28.6518   23.0349 C   0  0  0  0  0  0
  -26.4535  -31.6603   25.0761 C   0  0  0  0  0  0
  -25.3780  -31.3718   26.1500 C   0  0  0  0  0  0
  -27.0438  -30.3034   24.6244 C   0  0  0  0  0  0
  -27.6086  -32.4391   25.7509 C   0  0  0  0  0  0
  -27.5612  -37.1720   24.8411 C   0  0  0  0  0  0
  -21.4188  -29.3058   22.3631 N   0  0  0  0  0  0
  -26.4238  -37.3804   23.9478 N   0  0  0  0  0  0
  -24.6910  -31.0581   22.0970 N   0  0  0  0  0  0
  -23.4192  -28.8158   23.2968 O   0  0  0  0  0  0
  -28.3646  -26.4828   20.1961 O   0  0  0  0  0  0
  -26.5596  -34.8906   22.4671 O   0  0  0  0  0  0
  -23.5453  -32.1405   23.7336 O   0  0  0  0  0  0
  -29.8955  -22.2188   21.4449 C   0  0  0  0  0  0
  -29.5657  -23.5611   21.1008 C   0  0  0  0  0  0
  -28.5492  -21.4788   19.6238 C   0  0  0  0  0  0
  -29.4174  -21.1087   20.6891 C   0  0  0  0  0  0
  -28.7303  -23.8290   19.9942 C   0  0  0  0  0  0
  -28.5273  -25.2673   19.3677 C   0  0  0  0  0  0
  -29.4158  -18.4440   20.4820 C   0  0  0  0  0  0
  -30.3150  -17.2119   20.9775 C   0  0  0  0  0  0
  -28.2284  -22.7705   19.2907 N   0  0  0  0  0  0
  -29.8456  -19.7725   21.0315 N   0  0  0  0  0  0
  -29.8607  -15.7879   20.7557 N   0  0  0  0  0  0
  -31.4720  -12.5417   19.1586 H   0  0  0  0  0  0
  -30.3794  -11.4375   19.9435 H   0  0  0  0  0  0
  -29.7743  -11.7097   17.5163 H   0  0  0  0  0  0
  -29.6281  -13.4391   17.7247 H   0  0  0  0  0  0
  -27.8900  -11.2652   18.9320 H   0  0  0  0  0  0
  -27.3647  -12.4959   17.8136 H   0  0  0  0  0  0
  -27.6506  -14.2394   19.4779 H   0  0  0  0  0  0
  -28.7139  -12.1307   21.4260 H   0  0  0  0  0  0
  -28.4324  -13.8084   21.8071 H   0  0  0  0  0  0
  -25.2741   -9.5672   22.4800 H   0  0  0  0  0  0
  -23.9985   -7.4630   22.7487 H   0  0  0  0  0  0
  -21.0845   -8.8791   19.8954 H   0  0  0  0  0  0
  -22.3714  -10.9687   19.6191 H   0  0  0  0  0  0
  -21.2016   -7.6142   23.9708 H   0  0  0  0  0  0
  -21.1474   -6.0526   25.9065 H   0  0  0  0  0  0
  -22.0601   -2.7623   23.2846 H   0  0  0  0  0  0
  -22.4089  -11.9832   22.4738 H   0  0  0  0  0  0
  -21.1128  -13.1259   22.2689 H   0  0  0  0  0  0
  -24.6649  -15.8487   20.5173 H   0  0  0  0  0  0
  -26.2720  -15.6205   20.0571 H   0  0  0  0  0  0
  -26.7210  -32.5436   23.1132 H   0  0  0  0  0  0
  -25.0148  -33.9715   25.0502 H   0  0  0  0  0  0
  -22.7199  -31.3066   21.3991 H   0  0  0  0  0  0
  -23.3779  -35.9556   23.3143 H   0  0  0  0  0  0
  -24.3610  -36.9076   22.2077 H   0  0  0  0  0  0
  -23.7171  -37.6409   23.6759 H   0  0  0  0  0  0
  -26.1008  -31.5462   20.6078 H   0  0  0  0  0  0
  -26.8442  -30.8334   22.0092 H   0  0  0  0  0  0
  -28.1134  -28.9677   21.2016 H   0  0  0  0  0  0
  -25.9372  -25.8968   19.0683 H   0  0  0  0  0  0
  -23.9607  -27.2861   19.0552 H   0  0  0  0  0  0
  -23.7726  -30.5989   19.4088 H   0  0  0  0  0  0
  -22.7581  -29.2565   19.8488 H   0  0  0  0  0  0
  -25.1245  -36.1873   25.0815 H   0  0  0  0  0  0
  -21.0015  -28.3321   24.1364 H   0  0  0  0  0  0
  -20.5709  -26.2305   23.3601 H   0  0  0  0  0  0
  -21.6638  -26.7437   22.1189 H   0  0  0  0  0  0
  -19.6901  -25.6295   21.1238 H   0  0  0  0  0  0
  -19.6707  -27.3179   20.6718 H   0  0  0  0  0  0
  -17.4208  -26.6721   21.3971 H   0  0  0  0  0  0
  -18.0295  -26.0070   22.8970 H   0  0  0  0  0  0
  -19.7965  -30.7276   24.2223 H   0  0  0  0  0  0
  -17.5048  -31.6262   24.5181 H   0  0  0  0  0  0
  -15.5375  -30.2977   23.7693 H   0  0  0  0  0  0
  -15.8690  -28.0842   22.7057 H   0  0  0  0  0  0
  -24.5930  -30.7091   25.7852 H   0  0  0  0  0  0
  -24.8980  -32.2856   26.5003 H   0  0  0  0  0  0
  -25.8125  -30.8868   27.0247 H   0  0  0  0  0  0
  -26.3046  -29.6685   24.1341 H   0  0  0  0  0  0
  -27.4251  -29.7389   25.4774 H   0  0  0  0  0  0
  -27.8841  -30.4362   23.9424 H   0  0  0  0  0  0
  -27.2713  -33.3734   26.2029 H   0  0  0  0  0  0
  -28.3899  -32.6918   25.0324 H   0  0  0  0  0  0
  -28.0747  -31.8566   26.5473 H   0  0  0  0  0  0
  -28.2406  -38.0226   24.7819 H   0  0  0  0  0  0
  -28.1348  -36.2809   24.5805 H   0  0  0  0  0  0
  -27.2393  -37.0838   25.8799 H   0  0  0  0  0  0
  -20.9363  -29.8811   21.6871 H   0  0  0  0  0  0
  -26.0094  -38.2818   24.1716 H   0  0  0  0  0  0
  -30.5512  -22.0548   22.2894 H   0  0  0  0  0  0
  -29.9940  -24.3802   21.6609 H   0  0  0  0  0  0
  -28.1159  -20.7210   18.9875 H   0  0  0  0  0  0
  -27.8013  -25.2034   18.5611 H   0  0  0  0  0  0
  -29.4572  -25.4469   18.8286 H   0  0  0  0  0  0
  -28.3773  -18.2805   20.7798 H   0  0  0  0  0  0
  -29.4164  -18.4879   19.3908 H   0  0  0  0  0  0
  -30.4206  -17.3015   22.0585 H   0  0  0  0  0  0
  -31.3245  -17.3339   20.5795 H   0  0  0  0  0  0
  -30.5677  -19.7172   21.7481 H   0  0  0  0  0  0
  -28.8785  -15.6083   20.9033 H   0  0  0  0  0  0
  1 25  1  0  0  0
  1 30  2  0  0  0
  1 81  1  0  0  0
  2  3  1  0  0  0
  2 25  1  0  0  0
  2 82  1  0  0  0
  2 83  1  0  0  0
  3  4  1  0  0  0
  3 84  1  0  0  0
  3 85  1  0  0  0
  4  5  1  0  0  0
  4 86  1  0  0  0
  4 87  1  0  0  0
  5  6  1  0  0  0
  5 26  1  0  0  0
  5 88  1  0  0  0
  6 25  1  0  0  0
  6 89  1  0  0  0
  6 90  1  0  0  0
  7  8  2  0  0  0
  7 26  1  0  0  0
  7 29  1  0  0  0
  8  9  1  0  0  0
  8 22  1  0  0  0
  9 10  1  0  0  0
  9 27  2  0  0  0
 10 11  2  0  0  0
 10 15  1  0  0  0
 11 12  1  0  0  0
 11 91  1  0  0  0
 12 13  2  0  0  0
 12 92  1  0  0  0
 13 14  1  0  0  0
 13 31  1  0  0  0
 14 15  2  0  0  0
 14 93  1  0  0  0
 15 94  1  0  0  0
 16 17  2  0  0  0
 16 21  1  0  0  0
 16 31  1  0  0  0
 17 18  1  0  0  0
 17 95  1  0  0  0
 18 19  2  0  0  0
 18 96  1  0  0  0
 19 20  1  0  0  0
 19 24  1  0  0  0
 20 21  2  0  0  0
 20 97  1  0  0  0
 21 23  1  0  0  0
 22 28  1  0  0  0
 22 32  2  0  0  0
 26 27  1  0  0  0
 28 98  1  0  0  0
 28 99  1  0  0  0
 29100  1  0  0  0
 29101  1  0  0  0
 33 34  1  0  0  0
 33 66  1  0  0  0
 33 70  2  0  0  0
 34 36  1  0  0  0
 34 59  1  0  0  0
 34102  1  0  0  0
 35 44  2  0  0  0
 35 45  1  0  0  0
 35 68  1  0  0  0
 36 56  1  0  0  0
 36103  1  0  0  0
 37 39  1  0  0  0
 37 47  1  0  0  0
 37 66  1  0  0  0
 37104  1  0  0  0
 38 43  2  0  0  0
 38 46  1  0  0  0
 38 47  1  0  0  0
 39 64  1  0  0  0
 39 67  2  0  0  0
 40 52  1  0  0  0
 40 53  2  0  0  0
 40 58  1  0  0  0
 41105  1  0  0  0
 41106  1  0  0  0
 41107  1  0  0  0
 41 48  1  0  0  0
 42 43  1  0  0  0
 42 66  1  0  0  0
 42108  1  0  0  0
 42109  1  0  0  0
 43 44  1  0  0  0
 44110  1  0  0  0
 45 46  2  0  0  0
 45111  1  0  0  0
 46112  1  0  0  0
 47113  1  0  0  0
 47114  1  0  0  0
 48 56  1  0  0  0
 48 65  1  0  0  0
 48115  1  0  0  0
 49 50  1  0  0  0
 49 53  1  0  0  0
 49 64  1  0  0  0
 49116  1  0  0  0
 50 51  1  0  0  0
 50117  1  0  0  0
 50118  1  0  0  0
 51 52  1  0  0  0
 51119  1  0  0  0
 51120  1  0  0  0
 52121  1  0  0  0
 52122  1  0  0  0
 53 54  1  0  0  0
 54 55  2  0  0  0
 54123  1  0  0  0
 55 57  1  0  0  0
 55124  1  0  0  0
 56 69  2  0  0  0
 57 58  2  0  0  0
 57125  1  0  0  0
 58126  1  0  0  0
 59 60  1  0  0  0
 59 61  1  0  0  0
 59 62  1  0  0  0
 60127  1  0  0  0
 60128  1  0  0  0
 60129  1  0  0  0
 61130  1  0  0  0
 61131  1  0  0  0
 61132  1  0  0  0
 62133  1  0  0  0
 62134  1  0  0  0
 62135  1  0  0  0
 63 65  1  0  0  0
 63136  1  0  0  0
 63137  1  0  0  0
 63138  1  0  0  0
 64139  1  0  0  0
 65140  1  0  0  0
 68 76  1  0  0  0
 71 72  2  0  0  0
 71 74  1  0  0  0
 71141  1  0  0  0
 72 75  1  0  0  0
 72142  1  0  0  0
 73 74  2  0  0  0
 73 79  1  0  0  0
 73143  1  0  0  0
 74 80  1  0  0  0
 75 76  1  0  0  0
 75 79  2  0  0  0
 76144  1  0  0  0
 76145  1  0  0  0
 77 78  1  0  0  0
 77 80  1  0  0  0
 77146  1  0  0  0
 77147  1  0  0  0
 78 81  1  0  0  0
 78148  1  0  0  0
 78149  1  0  0  0
 80150  1  0  0  0
 81151  1  0  0  0
M  ISO  4   1 100  68 101  76 101  81 100
M  END
> <chiral flag>
0

> <version>
0

> <s_m_source_file>
/data/baiqing/PycharmProjects/Reinvent-master-3.2/result/LINK_invent/BTK/process_docking_weight1_custom_sum_contain_oxygen_bond_distance_aromatic_linkinvent_7_9_3/rearranged_h_0133.sdf

> <i_m_source_file_index>
31

> <r_mmod_Potential_Energy-OPLS-2005>
-26.3264942169189

> <r_mmod_Stretch_Energy-OPLS-2005>
83.3218994140625

> <r_mmod_Bend_Energy-OPLS-2005>
169.710510253906

> <r_mmod_Torsional_Energy-OPLS-2005>
200.112640380859

> <r_mmod_Improper_Torsional_Energy-OPLS-2005>
5.22166347503662

> <r_mmod_Van_der_Waal_Energy-OPLS-2005>
143.583999633789

> <r_mmod_Electrostatic_Energy-OPLS-2005>
-451.024017333984

> <r_mmod_Solvation_Energy-OPLS-2005>
-237.070678710938

> <b_mmod_Minimization_Converged-OPLS-2005>
0

> <r_mmod_RMS_Derivative-OPLS-2005>
3.18300986289978

$$$$
31
                    3D
 Structure written by MMmdl.
163172  0  0  1  0            999 V2000
  -30.7156  -14.4278   20.6353 C   0  0  0  0  0  0
  -30.4247  -12.3083   19.3942 C   0  0  0  0  0  0
  -29.4860  -12.5192   18.1892 C   0  0  0  0  0  0
  -28.0079  -12.3802   18.6059 C   0  0  0  0  0  0
  -27.6637  -13.2018   19.8766 C   0  0  2  0  0  0
  -28.7059  -12.9443   20.9869 C   0  0  0  0  0  0
  -25.2600  -13.8148   20.5678 C   0  0  0  0  0  0
  -24.1845  -13.0434   20.9168 C   0  0  0  0  0  0
  -24.6388  -11.6894   20.8726 C   0  0  0  0  0  0
  -23.9052  -10.4286   21.0402 C   0  0  0  0  0  0
  -24.3611   -9.4210   21.9181 C   0  0  0  0  0  0
  -23.6298   -8.2247   22.0754 C   0  0  0  0  0  0
  -22.4281   -8.0277   21.3546 C   0  0  0  0  0  0
  -21.9906   -9.0246   20.4648 C   0  0  0  0  0  0
  -22.7228  -10.2126   20.3053 C   0  0  0  0  0  0
  -21.6844   -6.0739   22.5280 C   0  0  0  0  0  0
  -21.4013   -6.5641   23.8218 C   0  0  0  0  0  0
  -21.3654   -5.6791   24.9178 C   0  0  0  0  0  0
  -21.6042   -4.3055   24.7229 C   0  0  0  0  0  0
  -21.8821   -3.8149   23.4346 C   0  0  0  0  0  0
  -21.9199   -4.6969   22.3404 C   0  0  0  0  0  0
  -22.7874  -13.5248   21.1836 C   0  0  0  0  0  0
  -22.1666   -4.2153   21.0979 F   0  0  0  0  0  0
  -21.5626   -3.4536   25.7737 F   0  0  0  0  0  0
  -30.0387  -13.2633   20.4434 N   0  0  0  0  0  0
  -26.3030  -12.9310   20.3363 N   0  0  0  0  0  0
  -25.9313  -11.6467   20.5755 N   0  0  0  0  0  0
  -22.0499  -12.8247   22.0378 N   0  0  0  0  0  0
  -25.4349  -15.1871   20.4089 N   0  0  0  0  0  0
  -31.7994  -14.6787   20.0998 O   0  0  0  0  0  0
  -21.6637   -6.8881   21.4242 O   0  0  0  0  0  0
  -22.3565  -14.5559   20.6686 O   0  0  0  0  0  0
  -24.6172  -31.8661   23.2091 C   0  0  0  0  0  0
  -25.9076  -32.4813   23.8380 C   0  0  1  0  0  0
  -27.2423  -27.4332   20.1084 C   0  0  0  0  0  0
  -25.5953  -33.8602   24.2357 N   0  0  0  0  0  0
  -23.4040  -30.4903   21.5464 C   0  0  2  0  0  0
  -24.8524  -28.9448   20.1187 C   0  0  0  0  0  0
  -22.7419  -29.4667   22.4969 C   0  0  0  0  0  0
  -18.0284  -28.1383   22.8502 C   0  0  0  0  0  0
  -24.1473  -36.7259   23.2635 C   0  0  0  0  0  0
  -25.9299  -30.8329   21.3588 C   0  0  0  0  0  0
  -26.0081  -29.4621   20.7165 C   0  0  0  0  0  0
  -27.2060  -28.7104   20.7096 C   0  0  0  0  0  0
  -26.0720  -26.9266   19.5048 C   0  0  0  0  0  0
  -24.8767  -27.6751   19.5118 C   0  0  0  0  0  0
  -23.6141  -29.8147   20.1639 C   0  0  0  0  0  0
  -25.4098  -36.3092   24.0358 C   0  0  1  0  0  0
  -20.5867  -28.3675   23.1312 C   0  0  2  0  0  0
  -20.6773  -26.9403   22.5412 C   0  0  0  0  0  0
  -19.5752  -26.6391   21.5210 C   0  0  0  0  0  0
  -18.1931  -26.7939   22.1618 C   0  0  0  0  0  0
  -19.1529  -28.8849   23.2914 C   0  0  0  0  0  0
  -18.9446  -30.1449   23.8918 C   0  0  0  0  0  0
  -17.6450  -30.6583   24.0555 C   0  0  0  0  0  0
  -25.9022  -34.9468   23.5131 C   0  0  0  0  0  0
  -16.5341  -29.9071   23.6333 C   0  0  0  0  0  0
  -16.7273  -28.6492   23.0354 C   0  0  0  0  0  0
  -26.4518  -31.6583   25.0698 C   0  0  0  0  0  0
  -25.3793  -31.3657   26.1452 C   0  0  0  0  0  0
  -27.0348  -30.3039   24.6039 C   0  0  0  0  0  0
  -27.6117  -32.4274   25.7468 C   0  0  0  0  0  0
  -27.5570  -37.1790   24.8487 C   0  0  0  0  0  0
  -21.4144  -29.3031   22.3704 N   0  0  0  0  0  0
  -26.4277  -37.3786   23.9430 N   0  0  0  0  0  0
  -24.6678  -31.0773   22.0985 N   0  0  0  0  0  0
  -23.4202  -28.8211   23.3006 O   0  0  0  0  0  0
  -28.4302  -26.7352   20.0463 O   0  0  0  0  0  0
  -26.5524  -34.8929   22.4665 O   0  0  0  0  0  0
  -23.5374  -32.1395   23.7508 O   0  0  0  0  0  0
  -29.3822  -24.5339   19.8826 C   0  0  0  0  0  0
  -27.9425  -25.0519   21.7631 C   0  0  0  0  0  0
  -29.6046  -23.2308   20.3883 C   0  0  0  0  0  0
  -28.9694  -22.8187   21.5869 C   0  0  0  0  0  0
  -28.1542  -23.7535   22.2835 C   0  0  0  0  0  0
  -28.5464  -25.4539   20.5527 C   0  0  0  0  0  0
  -30.5470  -22.3043   19.6236 C   0  0  0  0  0  0
  -29.2061  -21.4090   22.1538 C   0  0  0  0  0  0
  -30.9494  -21.0172   20.3695 C   0  0  0  0  0  0
  -29.7854  -20.3818   21.1467 C   0  0  1  0  0  0
  -27.5255  -23.3929   23.6196 C   0  0  0  0  0  0
  -30.5835  -16.6403   21.8512 C   0  0  0  0  0  0
  -29.8516  -17.8408   21.1905 C   0  0  0  0  0  0
  -30.0909  -15.3262   21.4153 N   0  0  0  0  0  0
  -30.2205  -19.1311   21.8314 N   0  3  0  0  0  0
  -31.4648  -12.4239   19.0844 H   0  0  0  0  0  0
  -30.3394  -11.2873   19.7689 H   0  0  0  0  0  0
  -29.7182  -11.8047   17.3979 H   0  0  0  0  0  0
  -29.6534  -13.5100   17.7642 H   0  0  0  0  0  0
  -27.8086  -11.3223   18.7831 H   0  0  0  0  0  0
  -27.3572  -12.6750   17.7816 H   0  0  0  0  0  0
  -27.7195  -14.2562   19.6028 H   0  0  0  0  0  0
  -28.6807  -11.8958   21.2876 H   0  0  0  0  0  0
  -28.4577  -13.5039   21.8892 H   0  0  0  0  0  0
  -25.2752   -9.5686   22.4745 H   0  0  0  0  0  0
  -24.0003   -7.4637   22.7464 H   0  0  0  0  0  0
  -21.0836   -8.8766   19.8947 H   0  0  0  0  0  0
  -22.3690  -10.9667   19.6155 H   0  0  0  0  0  0
  -21.1997   -7.6149   23.9721 H   0  0  0  0  0  0
  -21.1471   -6.0519   25.9078 H   0  0  0  0  0  0
  -22.0603   -2.7614   23.2843 H   0  0  0  0  0  0
  -22.4096  -11.9897   22.4772 H   0  0  0  0  0  0
  -21.1114  -13.1282   22.2575 H   0  0  0  0  0  0
  -24.6694  -15.8443   20.5132 H   0  0  0  0  0  0
  -26.2917  -15.6216   20.0895 H   0  0  0  0  0  0
  -26.7156  -32.5551   23.1153 H   0  0  0  0  0  0
  -25.0347  -33.9747   25.0673 H   0  0  0  0  0  0
  -22.6912  -31.3055   21.4037 H   0  0  0  0  0  0
  -23.3746  -35.9571   23.3316 H   0  0  0  0  0  0
  -24.3573  -36.8818   22.2035 H   0  0  0  0  0  0
  -23.7202  -37.6478   23.6609 H   0  0  0  0  0  0
  -26.0347  -31.5936   20.5837 H   0  0  0  0  0  0
  -26.8231  -30.8953   21.9699 H   0  0  0  0  0  0
  -28.1044  -29.1103   21.1580 H   0  0  0  0  0  0
  -26.0888  -25.9597   19.0263 H   0  0  0  0  0  0
  -23.9870  -27.2731   19.0468 H   0  0  0  0  0  0
  -23.7257  -30.5847   19.3999 H   0  0  0  0  0  0
  -22.7375  -29.2352   19.8712 H   0  0  0  0  0  0
  -25.1270  -36.1944   25.0846 H   0  0  0  0  0  0
  -20.9987  -28.3230   24.1423 H   0  0  0  0  0  0
  -20.5683  -26.2261   23.3595 H   0  0  0  0  0  0
  -21.6643  -26.7450   22.1183 H   0  0  0  0  0  0
  -19.6892  -25.6308   21.1230 H   0  0  0  0  0  0
  -19.6703  -27.3202   20.6742 H   0  0  0  0  0  0
  -17.4209  -26.6715   21.4001 H   0  0  0  0  0  0
  -18.0296  -26.0080   22.9008 H   0  0  0  0  0  0
  -19.7912  -30.7271   24.2284 H   0  0  0  0  0  0
  -17.4992  -31.6269   24.5143 H   0  0  0  0  0  0
  -15.5333  -30.2958   23.7672 H   0  0  0  0  0  0
  -15.8676  -28.0812   22.7046 H   0  0  0  0  0  0
  -24.6000  -30.6966   25.7791 H   0  0  0  0  0  0
  -24.8945  -32.2781   26.4924 H   0  0  0  0  0  0
  -25.8173  -30.8840   27.0194 H   0  0  0  0  0  0
  -26.2856  -29.6769   24.1188 H   0  0  0  0  0  0
  -27.4245  -29.7324   25.4470 H   0  0  0  0  0  0
  -27.8643  -30.4385   23.9090 H   0  0  0  0  0  0
  -27.2788  -33.3589   26.2055 H   0  0  0  0  0  0
  -28.3949  -32.6775   25.0297 H   0  0  0  0  0  0
  -28.0757  -31.8365   26.5379 H   0  0  0  0  0  0
  -28.2623  -38.0055   24.7521 H   0  0  0  0  0  0
  -28.1029  -36.2593   24.6329 H   0  0  0  0  0  0
  -27.2289  -37.1450   25.8892 H   0  0  0  0  0  0
  -20.9301  -29.8743   21.6928 H   0  0  0  0  0  0
  -26.0159  -38.2862   24.1444 H   0  0  0  0  0  0
  -29.8764  -24.8455   18.9728 H   0  0  0  0  0  0
  -27.3342  -25.7599   22.3101 H   0  0  0  0  0  0
  -31.4522  -22.8593   19.3700 H   0  0  0  0  0  0
  -30.0723  -22.0437   18.6772 H   0  0  0  0  0  0
  -28.2667  -21.0184   22.5458 H   0  0  0  0  0  0
  -29.8765  -21.5156   23.0088 H   0  0  0  0  0  0
  -31.7454  -21.2613   21.0755 H   0  0  0  0  0  0
  -31.3779  -20.3073   19.6612 H   0  0  0  0  0  0
  -28.9945  -20.1395   20.4343 H   0  0  0  0  0  0
  -26.9873  -24.2370   24.0526 H   0  0  0  0  0  0
  -28.2919  -23.0907   24.3352 H   0  0  0  0  0  0
  -26.8162  -22.5728   23.5046 H   0  0  0  0  0  0
  -30.4574  -16.6801   22.9348 H   0  0  0  0  0  0
  -31.6576  -16.7210   21.6696 H   0  0  0  0  0  0
  -28.7709  -17.7101   21.2563 H   0  0  0  0  0  0
  -30.0964  -17.8767   20.1280 H   0  0  0  0  0  0
  -29.2031  -15.0264   21.7924 H   0  0  0  0  0  0
  -29.8268  -19.1258   22.7593 H   0  0  0  0  0  0
  -31.2206  -19.1682   21.9386 H   0  0  0  0  0  0
  1 25  1  0  0  0
  1 30  2  0  0  0
  1 84  1  0  0  0
  2  3  1  0  0  0
  2 25  1  0  0  0
  2 86  1  0  0  0
  2 87  1  0  0  0
  3  4  1  0  0  0
  3 88  1  0  0  0
  3 89  1  0  0  0
  4  5  1  0  0  0
  4 90  1  0  0  0
  4 91  1  0  0  0
  5  6  1  0  0  0
  5 26  1  0  0  0
  5 92  1  0  0  0
  6 25  1  0  0  0
  6 93  1  0  0  0
  6 94  1  0  0  0
  7  8  2  0  0  0
  7 26  1  0  0  0
  7 29  1  0  0  0
  8  9  1  0  0  0
  8 22  1  0  0  0
  9 10  1  0  0  0
  9 27  2  0  0  0
 10 11  2  0  0  0
 10 15  1  0  0  0
 11 12  1  0  0  0
 11 95  1  0  0  0
 12 13  2  0  0  0
 12 96  1  0  0  0
 13 14  1  0  0  0
 13 31  1  0  0  0
 14 15  2  0  0  0
 14 97  1  0  0  0
 15 98  1  0  0  0
 16 17  2  0  0  0
 16 21  1  0  0  0
 16 31  1  0  0  0
 17 18  1  0  0  0
 17 99  1  0  0  0
 18 19  2  0  0  0
 18100  1  0  0  0
 19 20  1  0  0  0
 19 24  1  0  0  0
 20 21  2  0  0  0
 20101  1  0  0  0
 21 23  1  0  0  0
 22 28  1  0  0  0
 22 32  2  0  0  0
 26 27  1  0  0  0
 28102  1  0  0  0
 28103  1  0  0  0
 29104  1  0  0  0
 29105  1  0  0  0
 33 34  1  0  0  0
 33 66  1  0  0  0
 33 70  2  0  0  0
 34 36  1  0  0  0
 34 59  1  0  0  0
 34106  1  0  0  0
 35 44  2  0  0  0
 35 45  1  0  0  0
 35 68  1  0  0  0
 36 56  1  0  0  0
 36107  1  0  0  0
 37 39  1  0  0  0
 37 47  1  0  0  0
 37 66  1  0  0  0
 37108  1  0  0  0
 38 43  2  0  0  0
 38 46  1  0  0  0
 38 47  1  0  0  0
 39 64  1  0  0  0
 39 67  2  0  0  0
 40 52  1  0  0  0
 40 53  2  0  0  0
 40 58  1  0  0  0
 41109  1  0  0  0
 41110  1  0  0  0
 41111  1  0  0  0
 41 48  1  0  0  0
 42 43  1  0  0  0
 42 66  1  0  0  0
 42112  1  0  0  0
 42113  1  0  0  0
 43 44  1  0  0  0
 44114  1  0  0  0
 45 46  2  0  0  0
 45115  1  0  0  0
 46116  1  0  0  0
 47117  1  0  0  0
 47118  1  0  0  0
 48 56  1  0  0  0
 48 65  1  0  0  0
 48119  1  0  0  0
 49 50  1  0  0  0
 49 53  1  0  0  0
 49 64  1  0  0  0
 49120  1  0  0  0
 50 51  1  0  0  0
 50121  1  0  0  0
 50122  1  0  0  0
 51 52  1  0  0  0
 51123  1  0  0  0
 51124  1  0  0  0
 52125  1  0  0  0
 52126  1  0  0  0
 53 54  1  0  0  0
 54 55  2  0  0  0
 54127  1  0  0  0
 55 57  1  0  0  0
 55128  1  0  0  0
 56 69  2  0  0  0
 57 58  2  0  0  0
 57129  1  0  0  0
 58130  1  0  0  0
 59 60  1  0  0  0
 59 61  1  0  0  0
 59 62  1  0  0  0
 60131  1  0  0  0
 60132  1  0  0  0
 60133  1  0  0  0
 61134  1  0  0  0
 61135  1  0  0  0
 61136  1  0  0  0
 62137  1  0  0  0
 62138  1  0  0  0
 62139  1  0  0  0
 63 65  1  0  0  0
 63140  1  0  0  0
 63141  1  0  0  0
 63142  1  0  0  0
 64143  1  0  0  0
 65144  1  0  0  0
 68 76  1  0  0  0
 71 73  2  0  0  0
 71 76  1  0  0  0
 71145  1  0  0  0
 72 75  1  0  0  0
 72 76  2  0  0  0
 72146  1  0  0  0
 73 74  1  0  0  0
 73 77  1  0  0  0
 74 75  2  0  0  0
 74 78  1  0  0  0
 75 81  1  0  0  0
 77 79  1  0  0  0
 77147  1  0  0  0
 77148  1  0  0  0
 78 80  1  0  0  0
 78149  1  0  0  0
 78150  1  0  0  0
 79 80  1  0  0  0
 79151  1  0  0  0
 79152  1  0  0  0
 80 85  1  0  0  0
 80153  1  0  0  0
 81154  1  0  0  0
 81155  1  0  0  0
 81156  1  0  0  0
 82 83  1  0  0  0
 82 84  1  0  0  0
 82157  1  0  0  0
 82158  1  0  0  0
 83 85  1  0  0  0
 83159  1  0  0  0
 83160  1  0  0  0
 84161  1  0  0  0
 85162  1  0  0  0
 85163  1  0  0  0
M  CHG  1  85   1
M  ISO  4   1 100  68 101  76 101  84 100
M  END
> <chiral flag>
0

> <version>
0

> <s_m_source_file>
/data/baiqing/PycharmProjects/Reinvent-master-3.2/result/LINK_invent/BTK/process_docking_weight1_custom_sum_contain_oxygen_bond_distance_aromatic_linkinvent_7_9_3/rearranged_h_0133.sdf

> <i_m_source_file_index>
32

> <r_mmod_Potential_Energy-OPLS-2005>
-290.574768066406

> <r_mmod_Stretch_Energy-OPLS-2005>
38.1955871582031

> <r_mmod_Bend_Energy-OPLS-2005>
96.1169891357422

> <r_mmod_Torsional_Energy-OPLS-2005>
210.980377197266

> <r_mmod_Improper_Torsional_Energy-OPLS-2005>
2.44146728515625

> <r_mmod_Van_der_Waal_Energy-OPLS-2005>
150.041091918945

> <r_mmod_Electrostatic_Energy-OPLS-2005>
-314.891815185547

> <r_mmod_Solvation_Energy-OPLS-2005>
-482.289428710938

> <b_mmod_Minimization_Converged-OPLS-2005>
0

> <r_mmod_RMS_Derivative-OPLS-2005>
2.78850483894348

$$$$
32
                    3D
 Structure written by MMmdl.
169178  0  0  1  0            999 V2000
  -30.6515  -14.6045   20.5214 C   0  0  0  0  0  0
  -30.4346  -12.3785   19.4469 C   0  0  0  0  0  0
  -29.5034  -12.4992   18.2208 C   0  0  0  0  0  0
  -28.0265  -12.3531   18.6355 C   0  0  0  0  0  0
  -27.6565  -13.2175   19.8703 C   0  0  2  0  0  0
  -28.7021  -13.0597   20.9967 C   0  0  0  0  0  0
  -25.2570  -13.8178   20.5684 C   0  0  0  0  0  0
  -24.1852  -13.0458   20.9210 C   0  0  0  0  0  0
  -24.6423  -11.6922   20.8754 C   0  0  0  0  0  0
  -23.9086  -10.4307   21.0398 C   0  0  0  0  0  0
  -24.3630   -9.4213   21.9167 C   0  0  0  0  0  0
  -23.6306   -8.2248   22.0736 C   0  0  0  0  0  0
  -22.4286   -8.0293   21.3533 C   0  0  0  0  0  0
  -21.9935   -9.0270   20.4632 C   0  0  0  0  0  0
  -22.7259  -10.2146   20.3050 C   0  0  0  0  0  0
  -21.6864   -6.0758   22.5289 C   0  0  0  0  0  0
  -21.4015   -6.5655   23.8223 C   0  0  0  0  0  0
  -21.3654   -5.6798   24.9176 C   0  0  0  0  0  0
  -21.6047   -4.3065   24.7233 C   0  0  0  0  0  0
  -21.8818   -3.8170   23.4351 C   0  0  0  0  0  0
  -21.9198   -4.6990   22.3414 C   0  0  0  0  0  0
  -22.7870  -13.5233   21.1864 C   0  0  0  0  0  0
  -22.1653   -4.2182   21.0987 F   0  0  0  0  0  0
  -21.5631   -3.4537   25.7741 F   0  0  0  0  0  0
  -30.0164  -13.3959   20.4306 N   0  0  0  0  0  0
  -26.3021  -12.9367   20.3376 N   0  0  0  0  0  0
  -25.9360  -11.6524   20.5812 N   0  0  0  0  0  0
  -22.0510  -12.8211   22.0410 N   0  0  0  0  0  0
  -25.4241  -15.1895   20.3981 N   0  0  0  0  0  0
  -31.8095  -14.7592   20.1243 O   0  0  0  0  0  0
  -21.6634   -6.8906   21.4253 O   0  0  0  0  0  0
  -22.3559  -14.5553   20.6731 O   0  0  0  0  0  0
  -24.6248  -31.8598   23.2033 C   0  0  0  0  0  0
  -25.9104  -32.4778   23.8356 C   0  0  1  0  0  0
  -27.2310  -27.3402   20.1051 C   0  0  0  0  0  0
  -25.5922  -33.8576   24.2299 N   0  0  0  0  0  0
  -23.4169  -30.4839   21.5455 C   0  0  2  0  0  0
  -24.8614  -28.9396   20.1143 C   0  0  0  0  0  0
  -22.7468  -29.4627   22.4953 C   0  0  0  0  0  0
  -18.0284  -28.1370   22.8495 C   0  0  0  0  0  0
  -24.1479  -36.7298   23.2642 C   0  0  0  0  0  0
  -25.9563  -30.7976   21.3706 C   0  0  0  0  0  0
  -26.0296  -29.4264   20.7144 C   0  0  0  0  0  0
  -27.2142  -28.6374   20.6990 C   0  0  0  0  0  0
  -26.0348  -26.8958   19.4945 C   0  0  0  0  0  0
  -24.8658  -27.6792   19.4992 C   0  0  0  0  0  0
  -23.6296  -29.8171   20.1618 C   0  0  0  0  0  0
  -25.4100  -36.3089   24.0345 C   0  0  1  0  0  0
  -20.5882  -28.3669   23.1296 C   0  0  2  0  0  0
  -20.6767  -26.9399   22.5407 C   0  0  0  0  0  0
  -19.5738  -26.6377   21.5219 C   0  0  0  0  0  0
  -18.1917  -26.7914   22.1629 C   0  0  0  0  0  0
  -19.1532  -28.8839   23.2883 C   0  0  0  0  0  0
  -18.9460  -30.1444   23.8894 C   0  0  0  0  0  0
  -17.6460  -30.6570   24.0564 C   0  0  0  0  0  0
  -25.9039  -34.9455   23.5122 C   0  0  0  0  0  0
  -16.5354  -29.9068   23.6329 C   0  0  0  0  0  0
  -16.7274  -28.6486   23.0352 C   0  0  0  0  0  0
  -26.4485  -31.6572   25.0713 C   0  0  0  0  0  0
  -25.3725  -31.3700   26.1452 C   0  0  0  0  0  0
  -27.0341  -30.3003   24.6156 C   0  0  0  0  0  0
  -27.6053  -32.4303   25.7475 C   0  0  0  0  0  0
  -27.5578  -37.1801   24.8475 C   0  0  0  0  0  0
  -21.4180  -29.3038   22.3701 N   0  0  0  0  0  0
  -26.4287  -37.3777   23.9420 N   0  0  0  0  0  0
  -24.6846  -31.0638   22.0969 N   0  0  0  0  0  0
  -23.4208  -28.8174   23.3026 O   0  0  0  0  0  0
  -28.3860  -26.5477   20.1257 O   0  0  0  0  0  0
  -26.5600  -34.8923   22.4685 O   0  0  0  0  0  0
  -23.5413  -32.1386   23.7382 O   0  0  0  0  0  0
  -24.2603  -20.5238   19.8432 C   0  0  0  0  0  0
  -24.8653  -21.8697   20.1561 C   0  0  0  0  0  0
  -28.0177  -22.8586   21.3798 C   0  0  0  0  0  0
  -29.6670  -22.8457   19.4968 C   0  0  0  0  0  0
  -27.6514  -24.3722   21.1762 C   0  0  0  0  0  0
  -29.6932  -24.4117   19.7059 C   0  0  0  0  0  0
  -25.7207  -20.7805   19.5436 C   0  0  0  0  0  0
  -28.4063  -22.1357   20.0659 C   0  0  1  0  0  0
  -28.3098  -25.0832   19.9549 C   0  0  2  0  0  0
  -26.8163  -20.0755   20.3320 C   0  0  0  0  0  0
  -30.2584  -17.1373   20.8910 C   0  0  0  0  0  0
  -29.0671  -18.1392   20.5865 C   0  0  0  0  0  0
  -28.2727  -20.5287   19.9836 C   0  0  2  0  0  0
  -29.8894  -15.6762   20.8884 N   0  0  0  0  0  0
  -29.3098  -19.6440   20.6611 N   0  3  0  0  0  0
  -31.4744  -12.5041   19.1403 H   0  0  0  0  0  0
  -30.3707  -11.3797   19.8827 H   0  0  0  0  0  0
  -29.7585  -11.7402   17.4791 H   0  0  0  0  0  0
  -29.6566  -13.4645   17.7352 H   0  0  0  0  0  0
  -27.8520  -11.2993   18.8567 H   0  0  0  0  0  0
  -27.3754  -12.5990   17.7954 H   0  0  0  0  0  0
  -27.6814  -14.2566   19.5450 H   0  0  0  0  0  0
  -28.7088  -12.0329   21.3656 H   0  0  0  0  0  0
  -28.4561  -13.6854   21.8567 H   0  0  0  0  0  0
  -25.2771   -9.5705   22.4738 H   0  0  0  0  0  0
  -24.0047   -7.4632   22.7431 H   0  0  0  0  0  0
  -21.0881   -8.8789   19.8908 H   0  0  0  0  0  0
  -22.3724  -10.9688   19.6154 H   0  0  0  0  0  0
  -21.1993   -7.6162   23.9742 H   0  0  0  0  0  0
  -21.1460   -6.0513   25.9072 H   0  0  0  0  0  0
  -22.0600   -2.7643   23.2842 H   0  0  0  0  0  0
  -22.4150  -11.9890   22.4832 H   0  0  0  0  0  0
  -21.1093  -13.1169   22.2561 H   0  0  0  0  0  0
  -24.6432  -15.8339   20.4739 H   0  0  0  0  0  0
  -26.2482  -15.6127   19.9932 H   0  0  0  0  0  0
  -26.7168  -32.5465   23.1106 H   0  0  0  0  0  0
  -25.0104  -33.9708   25.0473 H   0  0  0  0  0  0
  -22.7091  -31.3026   21.4013 H   0  0  0  0  0  0
  -23.3744  -35.9628   23.3307 H   0  0  0  0  0  0
  -24.3575  -36.8904   22.2054 H   0  0  0  0  0  0
  -23.7216  -37.6499   23.6652 H   0  0  0  0  0  0
  -26.0850  -31.5613   20.6018 H   0  0  0  0  0  0
  -26.8387  -30.8452   21.9976 H   0  0  0  0  0  0
  -28.1150  -29.0072   21.1673 H   0  0  0  0  0  0
  -25.9701  -25.9386   19.0030 H   0  0  0  0  0  0
  -23.9708  -27.3005   19.0251 H   0  0  0  0  0  0
  -23.7436  -30.5892   19.4002 H   0  0  0  0  0  0
  -22.7504  -29.2410   19.8659 H   0  0  0  0  0  0
  -25.1261  -36.1954   25.0834 H   0  0  0  0  0  0
  -20.9961  -28.3240   24.1421 H   0  0  0  0  0  0
  -20.5657  -26.2283   23.3601 H   0  0  0  0  0  0
  -21.6634  -26.7423   22.1205 H   0  0  0  0  0  0
  -19.6894  -25.6294   21.1231 H   0  0  0  0  0  0
  -19.6667  -27.3198   20.6760 H   0  0  0  0  0  0
  -17.4184  -26.6677   21.4025 H   0  0  0  0  0  0
  -18.0304  -26.0046   22.9011 H   0  0  0  0  0  0
  -19.7937  -30.7256   24.2251 H   0  0  0  0  0  0
  -17.5016  -31.6251   24.5160 H   0  0  0  0  0  0
  -15.5347  -30.2963   23.7648 H   0  0  0  0  0  0
  -15.8680  -28.0801   22.7063 H   0  0  0  0  0  0
  -24.5904  -30.7036   25.7799 H   0  0  0  0  0  0
  -24.8908  -32.2858   26.4886 H   0  0  0  0  0  0
  -25.8055  -30.8880   27.0227 H   0  0  0  0  0  0
  -26.2911  -29.6722   24.1223 H   0  0  0  0  0  0
  -27.4099  -29.7275   25.4641 H   0  0  0  0  0  0
  -27.8746  -30.4297   23.9333 H   0  0  0  0  0  0
  -27.2678  -33.3610   26.2047 H   0  0  0  0  0  0
  -28.3865  -32.6842   25.0304 H   0  0  0  0  0  0
  -28.0714  -31.8420   26.5389 H   0  0  0  0  0  0
  -28.2605  -38.0087   24.7525 H   0  0  0  0  0  0
  -28.1050  -36.2622   24.6290 H   0  0  0  0  0  0
  -27.2302  -37.1453   25.8877 H   0  0  0  0  0  0
  -20.9345  -29.8787   21.6950 H   0  0  0  0  0  0
  -26.0177  -38.2859   24.1403 H   0  0  0  0  0  0
  -23.5757  -20.4646   18.9980 H   0  0  0  0  0  0
  -24.0144  -19.8816   20.6866 H   0  0  0  0  0  0
  -24.9880  -22.1088   21.2097 H   0  0  0  0  0  0
  -24.5971  -22.7111   19.5204 H   0  0  0  0  0  0
  -27.1908  -22.3607   21.8816 H   0  0  0  0  0  0
  -28.8569  -22.7859   22.0719 H   0  0  0  0  0  0
  -30.5655  -22.4252   19.9496 H   0  0  0  0  0  0
  -29.7438  -22.6219   18.4319 H   0  0  0  0  0  0
  -27.9250  -24.9081   22.0852 H   0  0  0  0  0  0
  -26.5690  -24.4771   21.0957 H   0  0  0  0  0  0
  -30.1788  -24.8785   18.8469 H   0  0  0  0  0  0
  -30.3326  -24.6367   20.5592 H   0  0  0  0  0  0
  -25.9506  -20.8818   18.4846 H   0  0  0  0  0  0
  -27.6383  -22.4593   19.3629 H   0  0  0  0  0  0
  -27.7407  -24.8550   19.0558 H   0  0  0  0  0  0
  -26.6791  -19.0175   20.1117 H   0  0  0  0  0  0
  -26.6245  -20.1795   21.4005 H   0  0  0  0  0  0
  -30.6915  -17.3694   21.8652 H   0  0  0  0  0  0
  -31.0532  -17.3041   20.1599 H   0  0  0  0  0  0
  -28.2593  -17.9078   21.2806 H   0  0  0  0  0  0
  -28.6938  -17.9044   19.5889 H   0  0  0  0  0  0
  -28.4036  -20.2944   18.9244 H   0  0  0  0  0  0
  -28.9546  -15.4472   21.1923 H   0  0  0  0  0  0
  -30.2012  -19.8408   20.2348 H   0  0  0  0  0  0
  -29.3839  -19.9094   21.6304 H   0  0  0  0  0  0
  1 25  1  0  0  0
  1 30  2  0  0  0
  1 84  1  0  0  0
  2  3  1  0  0  0
  2 25  1  0  0  0
  2 86  1  0  0  0
  2 87  1  0  0  0
  3  4  1  0  0  0
  3 88  1  0  0  0
  3 89  1  0  0  0
  4  5  1  0  0  0
  4 90  1  0  0  0
  4 91  1  0  0  0
  5  6  1  0  0  0
  5 26  1  0  0  0
  5 92  1  0  0  0
  6 25  1  0  0  0
  6 93  1  0  0  0
  6 94  1  0  0  0
  7  8  2  0  0  0
  7 26  1  0  0  0
  7 29  1  0  0  0
  8  9  1  0  0  0
  8 22  1  0  0  0
  9 10  1  0  0  0
  9 27  2  0  0  0
 10 11  2  0  0  0
 10 15  1  0  0  0
 11 12  1  0  0  0
 11 95  1  0  0  0
 12 13  2  0  0  0
 12 96  1  0  0  0
 13 14  1  0  0  0
 13 31  1  0  0  0
 14 15  2  0  0  0
 14 97  1  0  0  0
 15 98  1  0  0  0
 16 17  2  0  0  0
 16 21  1  0  0  0
 16 31  1  0  0  0
 17 18  1  0  0  0
 17 99  1  0  0  0
 18 19  2  0  0  0
 18100  1  0  0  0
 19 20  1  0  0  0
 19 24  1  0  0  0
 20 21  2  0  0  0
 20101  1  0  0  0
 21 23  1  0  0  0
 22 28  1  0  0  0
 22 32  2  0  0  0
 26 27  1  0  0  0
 28102  1  0  0  0
 28103  1  0  0  0
 29104  1  0  0  0
 29105  1  0  0  0
 33 34  1  0  0  0
 33 66  1  0  0  0
 33 70  2  0  0  0
 34 36  1  0  0  0
 34 59  1  0  0  0
 34106  1  0  0  0
 35 44  2  0  0  0
 35 45  1  0  0  0
 35 68  1  0  0  0
 36 56  1  0  0  0
 36107  1  0  0  0
 37 39  1  0  0  0
 37 47  1  0  0  0
 37 66  1  0  0  0
 37108  1  0  0  0
 38 43  2  0  0  0
 38 46  1  0  0  0
 38 47  1  0  0  0
 39 64  1  0  0  0
 39 67  2  0  0  0
 40 52  1  0  0  0
 40 53  2  0  0  0
 40 58  1  0  0  0
 41109  1  0  0  0
 41110  1  0  0  0
 41111  1  0  0  0
 41 48  1  0  0  0
 42 43  1  0  0  0
 42 66  1  0  0  0
 42112  1  0  0  0
 42113  1  0  0  0
 43 44  1  0  0  0
 44114  1  0  0  0
 45 46  2  0  0  0
 45115  1  0  0  0
 46116  1  0  0  0
 47117  1  0  0  0
 47118  1  0  0  0
 48 56  1  0  0  0
 48 65  1  0  0  0
 48119  1  0  0  0
 49 50  1  0  0  0
 49 53  1  0  0  0
 49 64  1  0  0  0
 49120  1  0  0  0
 50 51  1  0  0  0
 50121  1  0  0  0
 50122  1  0  0  0
 51 52  1  0  0  0
 51123  1  0  0  0
 51124  1  0  0  0
 52125  1  0  0  0
 52126  1  0  0  0
 53 54  1  0  0  0
 54 55  2  0  0  0
 54127  1  0  0  0
 55 57  1  0  0  0
 55128  1  0  0  0
 56 69  2  0  0  0
 57 58  2  0  0  0
 57129  1  0  0  0
 58130  1  0  0  0
 59 60  1  0  0  0
 59 61  1  0  0  0
 59 62  1  0  0  0
 60131  1  0  0  0
 60132  1  0  0  0
 60133  1  0  0  0
 61134  1  0  0  0
 61135  1  0  0  0
 61136  1  0  0  0
 62137  1  0  0  0
 62138  1  0  0  0
 62139  1  0  0  0
 63 65  1  0  0  0
 63140  1  0  0  0
 63141  1  0  0  0
 63142  1  0  0  0
 64143  1  0  0  0
 65144  1  0  0  0
 68 79  1  0  0  0
 71 72  1  0  0  0
 71 77  1  0  0  0
 71145  1  0  0  0
 71146  1  0  0  0
 72 77  1  0  0  0
 72147  1  0  0  0
 72148  1  0  0  0
 73 75  1  0  0  0
 73149  1  0  0  0
 73150  1  0  0  0
 73 78  1  0  0  0
 74 76  1  0  0  0
 74 78  1  0  0  0
 74151  1  0  0  0
 74152  1  0  0  0
 75 79  1  0  0  0
 75153  1  0  0  0
 75154  1  0  0  0
 76 79  1  0  0  0
 76155  1  0  0  0
 76156  1  0  0  0
 77 80  1  0  0  0
 77157  1  0  0  0
 78 83  1  0  0  0
 78158  1  0  0  0
 79159  1  0  0  0
 80160  1  0  0  0
 80161  1  0  0  0
 80 83  1  0  0  0
 81 82  1  0  0  0
 81 84  1  0  0  0
 81162  1  0  0  0
 81163  1  0  0  0
 82 85  1  0  0  0
 82164  1  0  0  0
 82165  1  0  0  0
 83 85  1  0  0  0
 83166  1  0  0  0
 84167  1  0  0  0
 85168  1  0  0  0
 85169  1  0  0  0
M  CHG  1  85   1
M  ISO  4   1 100  68 101  79 101  84 100
M  END
> <chiral flag>
0

> <version>
0

> <s_m_source_file>
/data/baiqing/PycharmProjects/Reinvent-master-3.2/result/LINK_invent/BTK/process_docking_weight1_custom_sum_contain_oxygen_bond_distance_aromatic_linkinvent_7_9_3/rearranged_h_0133.sdf

> <i_m_source_file_index>
33

> <r_mmod_Potential_Energy-OPLS-2005>
-46.7635879516602

> <r_mmod_Stretch_Energy-OPLS-2005>
78.3163070678711

> <r_mmod_Bend_Energy-OPLS-2005>
153.874526977539

> <r_mmod_Torsional_Energy-OPLS-2005>
304.713775634766

> <r_mmod_Improper_Torsional_Energy-OPLS-2005>
4.52698802947998

> <r_mmod_Van_der_Waal_Energy-OPLS-2005>
129.120819091797

> <r_mmod_Electrostatic_Energy-OPLS-2005>
-277.259002685547

> <r_mmod_Solvation_Energy-OPLS-2005>
-476.139282226562

> <b_mmod_Minimization_Converged-OPLS-2005>
0

> <r_mmod_RMS_Derivative-OPLS-2005>
2.5922646522522

$$$$
33
                    3D
 Structure written by MMmdl.
156164  0  0  1  0            999 V2000
  -30.6926  -14.4629   20.5043 C   0  0  0  0  0  0
  -30.4177  -12.2839   19.4010 C   0  0  0  0  0  0
  -29.4877  -12.4930   18.1885 C   0  0  0  0  0  0
  -28.0080  -12.3700   18.6035 C   0  0  0  0  0  0
  -27.6613  -13.2013   19.8689 C   0  0  2  0  0  0
  -28.7128  -12.9855   20.9813 C   0  0  0  0  0  0
  -25.2626  -13.8175   20.5720 C   0  0  0  0  0  0
  -24.1861  -13.0452   20.9203 C   0  0  0  0  0  0
  -24.6388  -11.6913   20.8730 C   0  0  0  0  0  0
  -23.9031  -10.4301   21.0388 C   0  0  0  0  0  0
  -24.3594   -9.4218   21.9168 C   0  0  0  0  0  0
  -23.6282   -8.2238   22.0751 C   0  0  0  0  0  0
  -22.4258   -8.0265   21.3543 C   0  0  0  0  0  0
  -21.9875   -9.0228   20.4637 C   0  0  0  0  0  0
  -22.7200  -10.2118   20.3036 C   0  0  0  0  0  0
  -21.6860   -6.0724   22.5277 C   0  0  0  0  0  0
  -21.4031   -6.5640   23.8208 C   0  0  0  0  0  0
  -21.3661   -5.6791   24.9166 C   0  0  0  0  0  0
  -21.6030   -4.3051   24.7222 C   0  0  0  0  0  0
  -21.8813   -3.8142   23.4345 C   0  0  0  0  0  0
  -21.9201   -4.6953   22.3399 C   0  0  0  0  0  0
  -22.7881  -13.5252   21.1832 C   0  0  0  0  0  0
  -22.1671   -4.2141   21.0973 F   0  0  0  0  0  0
  -21.5597   -3.4531   25.7730 F   0  0  0  0  0  0
  -30.0348  -13.2794   20.4109 N   0  0  0  0  0  0
  -26.3043  -12.9319   20.3377 N   0  0  0  0  0  0
  -25.9318  -11.6485   20.5759 N   0  0  0  0  0  0
  -22.0507  -12.8250   22.0388 N   0  0  0  0  0  0
  -25.4387  -15.1891   20.4121 N   0  0  0  0  0  0
  -31.8627  -14.6166   20.1512 O   0  0  0  0  0  0
  -21.6640   -6.8856   21.4236 O   0  0  0  0  0  0
  -22.3564  -14.5552   20.6684 O   0  0  0  0  0  0
  -24.6131  -31.8671   23.2143 C   0  0  0  0  0  0
  -25.9031  -32.4820   23.8438 C   0  0  1  0  0  0
  -27.2397  -27.4262   20.0724 C   0  0  0  0  0  0
  -25.5899  -33.8623   24.2370 N   0  0  0  0  0  0
  -23.4008  -30.4922   21.5532 C   0  0  2  0  0  0
  -24.8476  -28.9526   20.1174 C   0  0  0  0  0  0
  -22.7397  -29.4660   22.5000 C   0  0  0  0  0  0
  -18.0265  -28.1422   22.8656 C   0  0  0  0  0  0
  -24.1477  -36.7318   23.2647 C   0  0  0  0  0  0
  -25.9308  -30.8222   21.3716 C   0  0  0  0  0  0
  -26.0073  -29.4550   20.7192 C   0  0  0  0  0  0
  -27.1996  -28.6960   20.7006 C   0  0  0  0  0  0
  -26.0590  -26.9402   19.4639 C   0  0  0  0  0  0
  -24.8694  -27.6969   19.4861 C   0  0  0  0  0  0
  -23.6140  -29.8266   20.1658 C   0  0  0  0  0  0
  -25.4101  -36.3118   24.0349 C   0  0  1  0  0  0
  -20.5872  -28.3701   23.1392 C   0  0  2  0  0  0
  -20.6664  -26.9322   22.5799 C   0  0  0  0  0  0
  -19.5739  -26.6418   21.5452 C   0  0  0  0  0  0
  -18.1938  -26.7901   22.1936 C   0  0  0  0  0  0
  -19.1531  -28.8938   23.2929 C   0  0  0  0  0  0
  -18.9480  -30.1612   23.8786 C   0  0  0  0  0  0
  -17.6493  -30.6758   24.0433 C   0  0  0  0  0  0
  -25.9031  -34.9475   23.5160 C   0  0  0  0  0  0
  -16.5375  -29.9227   23.6356 C   0  0  0  0  0  0
  -16.7271  -28.6555   23.0542 C   0  0  0  0  0  0
  -26.4460  -31.6602   25.0760 C   0  0  0  0  0  0
  -25.3735  -31.3668   26.1514 C   0  0  0  0  0  0
  -27.0278  -30.3056   24.6100 C   0  0  0  0  0  0
  -27.6062  -32.4298   25.7503 C   0  0  0  0  0  0
  -27.5575  -37.1812   24.8476 C   0  0  0  0  0  0
  -21.4156  -29.2885   22.3601 N   0  0  0  0  0  0
  -26.4289  -37.3799   23.9416 N   0  0  0  0  0  0
  -24.6664  -31.0756   22.1053 N   0  0  0  0  0  0
  -23.4118  -28.8340   23.3181 O   0  0  0  0  0  0
  -28.4355  -26.7290   20.0771 O   0  0  0  0  0  0
  -26.5578  -34.8891   22.4709 O   0  0  0  0  0  0
  -23.5328  -32.1448   23.7548 O   0  0  0  0  0  0
  -28.2376  -18.0743   20.4961 C   0  0  0  0  0  0
  -29.9818  -18.9040   21.9668 C   0  0  0  0  0  0
  -27.7941  -19.3972   20.2745 C   0  0  0  0  0  0
  -29.5367  -20.2289   21.7493 C   0  0  0  0  0  0
  -29.3140  -17.8108   21.3707 C   0  0  0  0  0  0
  -28.4189  -20.4887   20.9229 C   0  0  0  0  0  0
  -29.7075  -16.3712   21.7139 C   0  0  0  0  0  0
  -27.7950  -21.8920   20.8599 C   0  0  0  0  0  0
  -27.9656  -24.2934   20.3283 C   0  0  0  0  0  0
  -28.5601  -25.4318   19.4607 C   0  0  0  0  0  0
  -29.8938  -15.5376   20.5336 N   0  0  0  0  0  0
  -28.5209  -22.9253   20.0796 N   0  3  0  0  0  0
  -31.4634  -12.3680   19.1016 H   0  0  0  0  0  0
  -30.3038  -11.2741   19.7983 H   0  0  0  0  0  0
  -29.7133  -11.7639   17.4095 H   0  0  0  0  0  0
  -29.6643  -13.4750   17.7455 H   0  0  0  0  0  0
  -27.8021  -11.3158   18.7833 H   0  0  0  0  0  0
  -27.3608  -12.6702   17.7765 H   0  0  0  0  0  0
  -27.6972  -14.2484   19.5722 H   0  0  0  0  0  0
  -28.6876  -11.9551   21.3378 H   0  0  0  0  0  0
  -28.5078  -13.6108   21.8497 H   0  0  0  0  0  0
  -25.2738   -9.5701   22.4750 H   0  0  0  0  0  0
  -23.9992   -7.4637   22.7489 H   0  0  0  0  0  0
  -21.0799   -8.8730   19.8959 H   0  0  0  0  0  0
  -22.3644  -10.9640   19.6136 H   0  0  0  0  0  0
  -21.2046   -7.6155   23.9713 H   0  0  0  0  0  0
  -21.1497   -6.0522   25.9068 H   0  0  0  0  0  0
  -22.0605   -2.7606   23.2845 H   0  0  0  0  0  0
  -22.4125  -11.9897   22.4759 H   0  0  0  0  0  0
  -21.1116  -13.1275   22.2593 H   0  0  0  0  0  0
  -24.6852  -15.8607   20.5145 H   0  0  0  0  0  0
  -26.3036  -15.6105   20.0986 H   0  0  0  0  0  0
  -26.7071  -32.5496   23.1171 H   0  0  0  0  0  0
  -25.0069  -33.9831   25.0526 H   0  0  0  0  0  0
  -22.6885  -31.3092   21.4144 H   0  0  0  0  0  0
  -23.3732  -35.9661   23.3327 H   0  0  0  0  0  0
  -24.3582  -36.8902   22.2058 H   0  0  0  0  0  0
  -23.7199  -37.6517   23.6640 H   0  0  0  0  0  0
  -26.0450  -31.5838   20.6008 H   0  0  0  0  0  0
  -26.8214  -30.8817   21.9838 H   0  0  0  0  0  0
  -28.0950  -29.0795   21.1692 H   0  0  0  0  0  0
  -26.0339  -25.9898   18.9546 H   0  0  0  0  0  0
  -23.9806  -27.3160   19.0011 H   0  0  0  0  0  0
  -23.7435  -30.6072   19.4165 H   0  0  0  0  0  0
  -22.7341  -29.2595   19.8550 H   0  0  0  0  0  0
  -25.1261  -36.2016   25.0840 H   0  0  0  0  0  0
  -20.9970  -28.3424   24.1522 H   0  0  0  0  0  0
  -20.5138  -26.2384   23.4122 H   0  0  0  0  0  0
  -21.6607  -26.7047   22.1974 H   0  0  0  0  0  0
  -19.6658  -27.3342   20.7069 H   0  0  0  0  0  0
  -19.6936  -25.6369   21.1407 H   0  0  0  0  0  0
  -17.4109  -26.6382   21.4516 H   0  0  0  0  0  0
  -18.0536  -26.0214   22.9562 H   0  0  0  0  0  0
  -19.7943  -30.7501   24.2037 H   0  0  0  0  0  0
  -17.5069  -31.6547   24.4856 H   0  0  0  0  0  0
  -15.5386  -30.3194   23.7680 H   0  0  0  0  0  0
  -15.8638  -28.0845   22.7420 H   0  0  0  0  0  0
  -24.5962  -30.6956   25.7837 H   0  0  0  0  0  0
  -24.8872  -32.2791   26.4979 H   0  0  0  0  0  0
  -25.8132  -30.8839   27.0256 H   0  0  0  0  0  0
  -26.2822  -29.6836   24.1128 H   0  0  0  0  0  0
  -27.4022  -29.7274   25.4554 H   0  0  0  0  0  0
  -27.8670  -30.4385   23.9272 H   0  0  0  0  0  0
  -27.2747  -33.3620   26.2090 H   0  0  0  0  0  0
  -28.3870  -32.6805   25.0316 H   0  0  0  0  0  0
  -28.0712  -31.8385   26.5394 H   0  0  0  0  0  0
  -28.2605  -38.0097   24.7512 H   0  0  0  0  0  0
  -28.1056  -36.2628   24.6326 H   0  0  0  0  0  0
  -27.2309  -37.1483   25.8883 H   0  0  0  0  0  0
  -20.9377  -29.8223   21.6465 H   0  0  0  0  0  0
  -26.0193  -38.2889   24.1387 H   0  0  0  0  0  0
  -27.7141  -17.2552   20.0219 H   0  0  0  0  0  0
  -30.8175  -18.7240   22.6292 H   0  0  0  0  0  0
  -26.9278  -19.5549   19.6447 H   0  0  0  0  0  0
  -30.0243  -21.0445   22.2660 H   0  0  0  0  0  0
  -28.9120  -15.9365   22.3233 H   0  0  0  0  0  0
  -30.6083  -16.3616   22.3307 H   0  0  0  0  0  0
  -27.6751  -22.2421   21.8866 H   0  0  0  0  0  0
  -26.7843  -21.8109   20.4537 H   0  0  0  0  0  0
  -26.8855  -24.2670   20.1855 H   0  0  0  0  0  0
  -28.1298  -24.5288   21.3800 H   0  0  0  0  0  0
  -28.1575  -25.4245   18.4466 H   0  0  0  0  0  0
  -29.6303  -25.2652   19.3423 H   0  0  0  0  0  0
  -30.1053  -16.1375   19.7523 H   0  0  0  0  0  0
  -28.4565  -22.6861   19.1020 H   0  0  0  0  0  0
  -29.4989  -22.8958   20.3281 H   0  0  0  0  0  0
  1 25  1  0  0  0
  1 30  2  0  0  0
  1 81  1  0  0  0
  2  3  1  0  0  0
  2 25  1  0  0  0
  2 83  1  0  0  0
  2 84  1  0  0  0
  3  4  1  0  0  0
  3 85  1  0  0  0
  3 86  1  0  0  0
  4  5  1  0  0  0
  4 87  1  0  0  0
  4 88  1  0  0  0
  5  6  1  0  0  0
  5 26  1  0  0  0
  5 89  1  0  0  0
  6 25  1  0  0  0
  6 90  1  0  0  0
  6 91  1  0  0  0
  7  8  2  0  0  0
  7 26  1  0  0  0
  7 29  1  0  0  0
  8  9  1  0  0  0
  8 22  1  0  0  0
  9 10  1  0  0  0
  9 27  2  0  0  0
 10 11  2  0  0  0
 10 15  1  0  0  0
 11 12  1  0  0  0
 11 92  1  0  0  0
 12 13  2  0  0  0
 12 93  1  0  0  0
 13 14  1  0  0  0
 13 31  1  0  0  0
 14 15  2  0  0  0
 14 94  1  0  0  0
 15 95  1  0  0  0
 16 17  2  0  0  0
 16 21  1  0  0  0
 16 31  1  0  0  0
 17 18  1  0  0  0
 17 96  1  0  0  0
 18 19  2  0  0  0
 18 97  1  0  0  0
 19 20  1  0  0  0
 19 24  1  0  0  0
 20 21  2  0  0  0
 20 98  1  0  0  0
 21 23  1  0  0  0
 22 28  1  0  0  0
 22 32  2  0  0  0
 26 27  1  0  0  0
 28 99  1  0  0  0
 28100  1  0  0  0
 29101  1  0  0  0
 29102  1  0  0  0
 33 34  1  0  0  0
 33 66  1  0  0  0
 33 70  2  0  0  0
 34 36  1  0  0  0
 34 59  1  0  0  0
 34103  1  0  0  0
 35 44  2  0  0  0
 35 45  1  0  0  0
 35 68  1  0  0  0
 36 56  1  0  0  0
 36104  1  0  0  0
 37 39  1  0  0  0
 37 47  1  0  0  0
 37 66  1  0  0  0
 37105  1  0  0  0
 38 43  2  0  0  0
 38 46  1  0  0  0
 38 47  1  0  0  0
 39 64  1  0  0  0
 39 67  2  0  0  0
 40 52  1  0  0  0
 40 53  2  0  0  0
 40 58  1  0  0  0
 41106  1  0  0  0
 41107  1  0  0  0
 41108  1  0  0  0
 41 48  1  0  0  0
 42 43  1  0  0  0
 42 66  1  0  0  0
 42109  1  0  0  0
 42110  1  0  0  0
 43 44  1  0  0  0
 44111  1  0  0  0
 45 46  2  0  0  0
 45112  1  0  0  0
 46113  1  0  0  0
 47114  1  0  0  0
 47115  1  0  0  0
 48 56  1  0  0  0
 48 65  1  0  0  0
 48116  1  0  0  0
 49 50  1  0  0  0
 49 53  1  0  0  0
 49 64  1  0  0  0
 49117  1  0  0  0
 50 51  1  0  0  0
 50118  1  0  0  0
 50119  1  0  0  0
 51 52  1  0  0  0
 51120  1  0  0  0
 51121  1  0  0  0
 52122  1  0  0  0
 52123  1  0  0  0
 53 54  1  0  0  0
 54 55  2  0  0  0
 54124  1  0  0  0
 55 57  1  0  0  0
 55125  1  0  0  0
 56 69  2  0  0  0
 57 58  2  0  0  0
 57126  1  0  0  0
 58127  1  0  0  0
 59 60  1  0  0  0
 59 61  1  0  0  0
 59 62  1  0  0  0
 60128  1  0  0  0
 60129  1  0  0  0
 60130  1  0  0  0
 61131  1  0  0  0
 61132  1  0  0  0
 61133  1  0  0  0
 62134  1  0  0  0
 62135  1  0  0  0
 62136  1  0  0  0
 63 65  1  0  0  0
 63137  1  0  0  0
 63138  1  0  0  0
 63139  1  0  0  0
 64140  1  0  0  0
 65141  1  0  0  0
 68 80  1  0  0  0
 71 73  2  0  0  0
 71 75  1  0  0  0
 71142  1  0  0  0
 72 74  1  0  0  0
 72 75  2  0  0  0
 72143  1  0  0  0
 73 76  1  0  0  0
 73144  1  0  0  0
 74 76  2  0  0  0
 74145  1  0  0  0
 75 77  1  0  0  0
 76 78  1  0  0  0
 77 81  1  0  0  0
 77146  1  0  0  0
 77147  1  0  0  0
 78 82  1  0  0  0
 78148  1  0  0  0
 78149  1  0  0  0
 79 80  1  0  0  0
 79 82  1  0  0  0
 79150  1  0  0  0
 79151  1  0  0  0
 80152  1  0  0  0
 80153  1  0  0  0
 81154  1  0  0  0
 82155  1  0  0  0
 82156  1  0  0  0
M  CHG  1  82   1
M  ISO  4   1 100  68 101  80 101  81 100
M  END
> <chiral flag>
0

> <version>
0

> <s_m_source_file>
/data/baiqing/PycharmProjects/Reinvent-master-3.2/result/LINK_invent/BTK/process_docking_weight1_custom_sum_contain_oxygen_bond_distance_aromatic_linkinvent_7_9_3/rearranged_h_0133.sdf

> <i_m_source_file_index>
34

> <r_mmod_Potential_Energy-OPLS-2005>
-202.220474243164

> <r_mmod_Stretch_Energy-OPLS-2005>
37.0215187072754

> <r_mmod_Bend_Energy-OPLS-2005>
111.59415435791

> <r_mmod_Torsional_Energy-OPLS-2005>
255.336517333984

> <r_mmod_Improper_Torsional_Energy-OPLS-2005>
20.0457649230957

> <r_mmod_Van_der_Waal_Energy-OPLS-2005>
143.251159667969

> <r_mmod_Electrostatic_Energy-OPLS-2005>
-327.447845458984

> <r_mmod_Solvation_Energy-OPLS-2005>
-458.637969970703

> <b_mmod_Minimization_Converged-OPLS-2005>
0

> <r_mmod_RMS_Derivative-OPLS-2005>
4.54406356811523

$$$$
34
                    3D
 Structure written by MMmdl.
165173  0  0  1  0            999 V2000
  -30.5987  -14.8271   20.4050 C   0  0  0  0  0  0
  -30.4304  -12.5056   19.4728 C   0  0  0  0  0  0
  -29.5058  -12.5058   18.2354 C   0  0  0  0  0  0
  -28.0344  -12.3285   18.6533 C   0  0  0  0  0  0
  -27.6334  -13.2451   19.8392 C   0  0  2  0  0  0
  -28.6836  -13.2310   20.9707 C   0  0  0  0  0  0
  -25.2470  -13.8219   20.5710 C   0  0  0  0  0  0
  -24.1789  -13.0441   20.9225 C   0  0  0  0  0  0
  -24.6409  -11.6925   20.8780 C   0  0  0  0  0  0
  -23.9097  -10.4295   21.0444 C   0  0  0  0  0  0
  -24.3651   -9.4197   21.9205 C   0  0  0  0  0  0
  -23.6320   -8.2235   22.0764 C   0  0  0  0  0  0
  -22.4295   -8.0285   21.3555 C   0  0  0  0  0  0
  -21.9945   -9.0263   20.4651 C   0  0  0  0  0  0
  -22.7279  -10.2137   20.3078 C   0  0  0  0  0  0
  -21.6848   -6.0752   22.5284 C   0  0  0  0  0  0
  -21.4008   -6.5656   23.8214 C   0  0  0  0  0  0
  -21.3661   -5.6808   24.9178 C   0  0  0  0  0  0
  -21.6041   -4.3072   24.7223 C   0  0  0  0  0  0
  -21.8818   -3.8162   23.4347 C   0  0  0  0  0  0
  -21.9189   -4.6983   22.3401 C   0  0  0  0  0  0
  -22.7805  -13.5205   21.1878 C   0  0  0  0  0  0
  -22.1662   -4.2175   21.0980 F   0  0  0  0  0  0
  -21.5633   -3.4552   25.7734 F   0  0  0  0  0  0
  -29.9690  -13.5964   20.3673 N   0  0  0  0  0  0
  -26.2912  -12.9462   20.3271 N   0  0  0  0  0  0
  -25.9347  -11.6594   20.5774 N   0  0  0  0  0  0
  -22.0470  -12.8182   22.0435 N   0  0  0  0  0  0
  -25.4100  -15.1950   20.4117 N   0  0  0  0  0  0
  -31.8116  -14.8648   20.1952 O   0  0  0  0  0  0
  -21.6640   -6.8901   21.4249 O   0  0  0  0  0  0
  -22.3488  -14.5509   20.6720 O   0  0  0  0  0  0
  -24.6382  -31.8503   23.1936 C   0  0  0  0  0  0
  -25.9179  -32.4720   23.8309 C   0  0  1  0  0  0
  -27.2173  -27.2092   20.1377 C   0  0  0  0  0  0
  -25.5963  -33.8524   24.2236 N   0  0  0  0  0  0
  -23.4367  -30.4701   21.5393 C   0  0  2  0  0  0
  -24.8823  -28.9046   20.1123 C   0  0  0  0  0  0
  -22.7531  -29.4564   22.4890 C   0  0  0  0  0  0
  -18.0294  -28.1398   22.8478 C   0  0  0  0  0  0
  -24.1488  -36.7266   23.2635 C   0  0  0  0  0  0
  -25.9857  -30.7484   21.3774 C   0  0  0  0  0  0
  -26.0577  -29.3654   20.7187 C   0  0  0  0  0  0
  -27.2295  -28.5330   20.7124 C   0  0  0  0  0  0
  -26.0171  -26.8252   19.5025 C   0  0  0  0  0  0
  -24.8689  -27.6445   19.4930 C   0  0  0  0  0  0
  -23.6582  -29.8011   20.1568 C   0  0  0  0  0  0
  -25.4121  -36.3047   24.0312 C   0  0  1  0  0  0
  -20.5900  -28.3710   23.1256 C   0  0  2  0  0  0
  -20.6784  -26.9419   22.5411 C   0  0  0  0  0  0
  -19.5758  -26.6386   21.5217 C   0  0  0  0  0  0
  -18.1933  -26.7934   22.1625 C   0  0  0  0  0  0
  -19.1548  -28.8872   23.2860 C   0  0  0  0  0  0
  -18.9473  -30.1471   23.8876 C   0  0  0  0  0  0
  -17.6471  -30.6592   24.0561 C   0  0  0  0  0  0
  -25.9075  -34.9414   23.5078 C   0  0  0  0  0  0
  -16.5362  -29.9090   23.6329 C   0  0  0  0  0  0
  -16.7279  -28.6511   23.0345 C   0  0  0  0  0  0
  -26.4528  -31.6566   25.0720 C   0  0  0  0  0  0
  -25.3731  -31.3731   26.1429 C   0  0  0  0  0  0
  -27.0395  -30.2983   24.6241 C   0  0  0  0  0  0
  -27.6068  -32.4324   25.7506 C   0  0  0  0  0  0
  -27.5578  -37.1794   24.8461 C   0  0  0  0  0  0
  -21.4229  -29.3052   22.3643 N   0  0  0  0  0  0
  -26.4289  -37.3763   23.9397 N   0  0  0  0  0  0
  -24.7068  -31.0420   22.0936 N   0  0  0  0  0  0
  -23.4200  -28.8101   23.3006 O   0  0  0  0  0  0
  -28.3065  -26.2920   20.1851 O   0  0  0  0  0  0
  -26.5641  -34.8894   22.4647 O   0  0  0  0  0  0
  -23.5522  -32.1346   23.7209 O   0  0  0  0  0  0
  -28.8141  -22.4054   21.4242 C   0  0  0  0  0  0
  -29.0672  -22.5458   18.9624 C   0  0  0  0  0  0
  -28.9925  -23.9998   21.2962 C   0  0  0  0  0  0
  -28.2590  -23.9346   18.9305 C   0  0  0  0  0  0
  -28.7781  -21.5058   20.1186 C   0  0  1  0  0  0
  -28.1031  -24.7767   20.2566 C   0  0  2  0  0  0
  -32.3242  -17.7428   18.5929 C   0  0  0  0  0  0
  -30.2907  -16.5715   17.6167 C   0  0  0  0  0  0
  -29.1888  -18.7617   20.3626 C   0  0  0  0  0  0
  -30.7897  -17.6232   18.6299 C   0  0  0  0  0  0
  -30.2297  -17.4911   20.0905 C   0  0  2  0  0  0
  -29.8370  -16.0097   20.4098 N   0  0  0  0  0  0
  -29.6810  -20.2239   20.1080 N   0  3  0  0  0  0
  -31.4667  -12.6399   19.1595 H   0  0  0  0  0  0
  -30.3953  -11.5450   19.9900 H   0  0  0  0  0  0
  -29.7959  -11.7141   17.5444 H   0  0  0  0  0  0
  -29.6187  -13.4434   17.6904 H   0  0  0  0  0  0
  -27.8971  -11.2835   18.9334 H   0  0  0  0  0  0
  -27.3761  -12.5046   17.8004 H   0  0  0  0  0  0
  -27.6082  -14.2556   19.4315 H   0  0  0  0  0  0
  -28.7384  -12.2477   21.4406 H   0  0  0  0  0  0
  -28.4128  -13.9383   21.7567 H   0  0  0  0  0  0
  -25.2802   -9.5653   22.4769 H   0  0  0  0  0  0
  -24.0018   -7.4630   22.7485 H   0  0  0  0  0  0
  -21.0874   -8.8794   19.8957 H   0  0  0  0  0  0
  -22.3756  -10.9688   19.6181 H   0  0  0  0  0  0
  -21.1995   -7.6163   23.9721 H   0  0  0  0  0  0
  -21.1487   -6.0542   25.9080 H   0  0  0  0  0  0
  -22.0595   -2.7626   23.2832 H   0  0  0  0  0  0
  -22.4123  -11.9847   22.4793 H   0  0  0  0  0  0
  -21.1085  -13.1179   22.2662 H   0  0  0  0  0  0
  -24.6337  -15.8389   20.5188 H   0  0  0  0  0  0
  -26.2417  -15.6385   20.0472 H   0  0  0  0  0  0
  -26.7229  -32.5349   23.1031 H   0  0  0  0  0  0
  -25.0117  -33.9661   25.0390 H   0  0  0  0  0  0
  -22.7359  -31.2937   21.3873 H   0  0  0  0  0  0
  -23.3760  -35.9592   23.3291 H   0  0  0  0  0  0
  -24.3574  -36.8918   22.2054 H   0  0  0  0  0  0
  -23.7233  -37.6453   23.6683 H   0  0  0  0  0  0
  -26.1287  -31.5074   20.6076 H   0  0  0  0  0  0
  -26.8609  -30.7985   22.0138 H   0  0  0  0  0  0
  -28.1307  -28.8817   21.1963 H   0  0  0  0  0  0
  -25.9482  -25.8597   19.0216 H   0  0  0  0  0  0
  -23.9683  -27.2860   19.0147 H   0  0  0  0  0  0
  -23.7923  -30.5770   19.4013 H   0  0  0  0  0  0
  -22.7742  -29.2418   19.8474 H   0  0  0  0  0  0
  -25.1310  -36.1890   25.0807 H   0  0  0  0  0  0
  -20.9990  -28.3299   24.1378 H   0  0  0  0  0  0
  -20.5691  -26.2319   23.3624 H   0  0  0  0  0  0
  -21.6649  -26.7436   22.1204 H   0  0  0  0  0  0
  -19.6923  -25.6294   21.1261 H   0  0  0  0  0  0
  -19.6706  -27.3183   20.6732 H   0  0  0  0  0  0
  -17.4212  -26.6682   21.4020 H   0  0  0  0  0  0
  -18.0318  -26.0083   22.9024 H   0  0  0  0  0  0
  -19.7954  -30.7294   24.2236 H   0  0  0  0  0  0
  -17.5027  -31.6262   24.5178 H   0  0  0  0  0  0
  -15.5366  -30.2991   23.7660 H   0  0  0  0  0  0
  -15.8678  -28.0830   22.7063 H   0  0  0  0  0  0
  -24.5924  -30.7059   25.7754 H   0  0  0  0  0  0
  -24.8896  -32.2901   26.4811 H   0  0  0  0  0  0
  -25.8042  -30.8947   27.0232 H   0  0  0  0  0  0
  -26.3002  -29.6708   24.1251 H   0  0  0  0  0  0
  -27.4049  -29.7270   25.4781 H   0  0  0  0  0  0
  -27.8877  -30.4253   23.9511 H   0  0  0  0  0  0
  -27.2676  -33.3645   26.2037 H   0  0  0  0  0  0
  -28.3908  -32.6863   25.0357 H   0  0  0  0  0  0
  -28.0691  -31.8477   26.5471 H   0  0  0  0  0  0
  -28.2583  -38.0107   24.7527 H   0  0  0  0  0  0
  -28.1095  -36.2639   24.6277 H   0  0  0  0  0  0
  -27.2287  -37.1407   25.8862 H   0  0  0  0  0  0
  -20.9429  -29.8790   21.6852 H   0  0  0  0  0  0
  -26.0163  -38.2829   24.1436 H   0  0  0  0  0  0
  -27.8913  -22.2146   21.9722 H   0  0  0  0  0  0
  -29.6037  -22.0412   22.0821 H   0  0  0  0  0  0
  -30.1292  -22.7911   18.9960 H   0  0  0  0  0  0
  -28.9248  -22.0504   18.0011 H   0  0  0  0  0  0
  -30.0377  -24.2030   21.0579 H   0  0  0  0  0  0
  -28.8402  -24.4473   22.2794 H   0  0  0  0  0  0
  -27.2592  -23.7426   18.5394 H   0  0  0  0  0  0
  -28.7279  -24.5726   18.1814 H   0  0  0  0  0  0
  -27.7539  -21.1606   19.9683 H   0  0  0  0  0  0
  -27.0820  -24.6208   20.6079 H   0  0  0  0  0  0
  -32.6925  -17.8687   17.5738 H   0  0  0  0  0  0
  -32.8149  -16.8635   19.0066 H   0  0  0  0  0  0
  -32.6690  -18.6053   19.1648 H   0  0  0  0  0  0
  -30.5093  -16.8893   16.5967 H   0  0  0  0  0  0
  -29.2126  -16.4200   17.6862 H   0  0  0  0  0  0
  -30.7765  -15.6046   17.7457 H   0  0  0  0  0  0
  -28.8321  -18.7129   21.3913 H   0  0  0  0  0  0
  -28.3074  -18.6158   19.7375 H   0  0  0  0  0  0
  -30.4330  -18.5670   18.2195 H   0  0  0  0  0  0
  -31.0587  -17.6813   20.7734 H   0  0  0  0  0  0
  -28.8500  -15.8603   20.5541 H   0  0  0  0  0  0
  -30.4682  -20.3909   20.7135 H   0  0  0  0  0  0
  -30.0608  -20.1957   19.1758 H   0  0  0  0  0  0
  1 25  1  0  0  0
  1 30  2  0  0  0
  1 82  1  0  0  0
  2  3  1  0  0  0
  2 25  1  0  0  0
  2 84  1  0  0  0
  2 85  1  0  0  0
  3  4  1  0  0  0
  3 86  1  0  0  0
  3 87  1  0  0  0
  4  5  1  0  0  0
  4 88  1  0  0  0
  4 89  1  0  0  0
  5  6  1  0  0  0
  5 26  1  0  0  0
  5 90  1  0  0  0
  6 25  1  0  0  0
  6 91  1  0  0  0
  6 92  1  0  0  0
  7  8  2  0  0  0
  7 26  1  0  0  0
  7 29  1  0  0  0
  8  9  1  0  0  0
  8 22  1  0  0  0
  9 10  1  0  0  0
  9 27  2  0  0  0
 10 11  2  0  0  0
 10 15  1  0  0  0
 11 12  1  0  0  0
 11 93  1  0  0  0
 12 13  2  0  0  0
 12 94  1  0  0  0
 13 14  1  0  0  0
 13 31  1  0  0  0
 14 15  2  0  0  0
 14 95  1  0  0  0
 15 96  1  0  0  0
 16 17  2  0  0  0
 16 21  1  0  0  0
 16 31  1  0  0  0
 17 18  1  0  0  0
 17 97  1  0  0  0
 18 19  2  0  0  0
 18 98  1  0  0  0
 19 20  1  0  0  0
 19 24  1  0  0  0
 20 21  2  0  0  0
 20 99  1  0  0  0
 21 23  1  0  0  0
 22 28  1  0  0  0
 22 32  2  0  0  0
 26 27  1  0  0  0
 28100  1  0  0  0
 28101  1  0  0  0
 29102  1  0  0  0
 29103  1  0  0  0
 33 34  1  0  0  0
 33 66  1  0  0  0
 33 70  2  0  0  0
 34 36  1  0  0  0
 34 59  1  0  0  0
 34104  1  0  0  0
 35 44  2  0  0  0
 35 45  1  0  0  0
 35 68  1  0  0  0
 36 56  1  0  0  0
 36105  1  0  0  0
 37 39  1  0  0  0
 37 47  1  0  0  0
 37 66  1  0  0  0
 37106  1  0  0  0
 38 43  2  0  0  0
 38 46  1  0  0  0
 38 47  1  0  0  0
 39 64  1  0  0  0
 39 67  2  0  0  0
 40 52  1  0  0  0
 40 53  2  0  0  0
 40 58  1  0  0  0
 41107  1  0  0  0
 41108  1  0  0  0
 41109  1  0  0  0
 41 48  1  0  0  0
 42 43  1  0  0  0
 42 66  1  0  0  0
 42110  1  0  0  0
 42111  1  0  0  0
 43 44  1  0  0  0
 44112  1  0  0  0
 45 46  2  0  0  0
 45113  1  0  0  0
 46114  1  0  0  0
 47115  1  0  0  0
 47116  1  0  0  0
 48 56  1  0  0  0
 48 65  1  0  0  0
 48117  1  0  0  0
 49 50  1  0  0  0
 49 53  1  0  0  0
 49 64  1  0  0  0
 49118  1  0  0  0
 50 51  1  0  0  0
 50119  1  0  0  0
 50120  1  0  0  0
 51 52  1  0  0  0
 51121  1  0  0  0
 51122  1  0  0  0
 52123  1  0  0  0
 52124  1  0  0  0
 53 54  1  0  0  0
 54 55  2  0  0  0
 54125  1  0  0  0
 55 57  1  0  0  0
 55126  1  0  0  0
 56 69  2  0  0  0
 57 58  2  0  0  0
 57127  1  0  0  0
 58128  1  0  0  0
 59 60  1  0  0  0
 59 61  1  0  0  0
 59 62  1  0  0  0
 60129  1  0  0  0
 60130  1  0  0  0
 60131  1  0  0  0
 61132  1  0  0  0
 61133  1  0  0  0
 61134  1  0  0  0
 62135  1  0  0  0
 62136  1  0  0  0
 62137  1  0  0  0
 63 65  1  0  0  0
 63138  1  0  0  0
 63139  1  0  0  0
 63140  1  0  0  0
 64141  1  0  0  0
 65142  1  0  0  0
 68 76  1  0  0  0
 71 73  1  0  0  0
 71 75  1  0  0  0
 71143  1  0  0  0
 71144  1  0  0  0
 72 74  1  0  0  0
 72 75  1  0  0  0
 72145  1  0  0  0
 72146  1  0  0  0
 73 76  1  0  0  0
 73147  1  0  0  0
 73148  1  0  0  0
 74 76  1  0  0  0
 74149  1  0  0  0
 74150  1  0  0  0
 75 83  1  0  0  0
 75151  1  0  0  0
 76152  1  0  0  0
 77153  1  0  0  0
 77154  1  0  0  0
 77155  1  0  0  0
 77 80  1  0  0  0
 78 80  1  0  0  0
 78156  1  0  0  0
 78157  1  0  0  0
 78158  1  0  0  0
 79 83  1  0  0  0
 79159  1  0  0  0
 79160  1  0  0  0
 79 81  1  0  0  0
 80 81  1  0  0  0
 80161  1  0  0  0
 81 82  1  0  0  0
 81162  1  0  0  0
 82163  1  0  0  0
 83164  1  0  0  0
 83165  1  0  0  0
M  CHG  1  83   1
M  ISO  4   1 100  68 101  76 101  82 100
M  END
> <chiral flag>
0

> <version>
0

> <s_m_source_file>
/data/baiqing/PycharmProjects/Reinvent-master-3.2/result/LINK_invent/BTK/process_docking_weight1_custom_sum_contain_oxygen_bond_distance_aromatic_linkinvent_7_9_3/rearranged_h_0133.sdf

> <i_m_source_file_index>
35

> <r_mmod_Potential_Energy-OPLS-2005>
151.705123901367

> <r_mmod_Stretch_Energy-OPLS-2005>
174.235122680664

> <r_mmod_Bend_Energy-OPLS-2005>
216.870193481445

> <r_mmod_Torsional_Energy-OPLS-2005>
298.161254882812

> <r_mmod_Improper_Torsional_Energy-OPLS-2005>
6.24515867233276

> <r_mmod_Van_der_Waal_Energy-OPLS-2005>
121.36417388916

> <r_mmod_Electrostatic_Energy-OPLS-2005>
-313.470306396484

> <r_mmod_Solvation_Energy-OPLS-2005>
-475.7353515625

> <b_mmod_Minimization_Converged-OPLS-2005>
0

> <r_mmod_RMS_Derivative-OPLS-2005>
1.96793210506439

$$$$
35
                    3D
 Structure written by MMmdl.
163172  0  0  1  0            999 V2000
  -30.7507  -14.4597   20.5808 C   0  0  0  0  0  0
  -30.4147  -12.3101   19.4202 C   0  0  0  0  0  0
  -29.4905  -12.5162   18.2022 C   0  0  0  0  0  0
  -28.0121  -12.3799   18.6151 C   0  0  0  0  0  0
  -27.6632  -13.2173   19.8749 C   0  0  2  0  0  0
  -28.7116  -13.0210   20.9979 C   0  0  0  0  0  0
  -25.2600  -13.8174   20.5750 C   0  0  0  0  0  0
  -24.1845  -13.0447   20.9213 C   0  0  0  0  0  0
  -24.6395  -11.6918   20.8729 C   0  0  0  0  0  0
  -23.9039  -10.4305   21.0382 C   0  0  0  0  0  0
  -24.3585   -9.4219   21.9165 C   0  0  0  0  0  0
  -23.6278   -8.2249   22.0736 C   0  0  0  0  0  0
  -22.4263   -8.0281   21.3547 C   0  0  0  0  0  0
  -21.9886   -9.0235   20.4635 C   0  0  0  0  0  0
  -22.7207  -10.2123   20.3037 C   0  0  0  0  0  0
  -21.6830   -6.0725   22.5283 C   0  0  0  0  0  0
  -21.3982   -6.5624   23.8218 C   0  0  0  0  0  0
  -21.3660   -5.6782   24.9181 C   0  0  0  0  0  0
  -21.6060   -4.3052   24.7224 C   0  0  0  0  0  0
  -21.8824   -3.8143   23.4346 C   0  0  0  0  0  0
  -21.9178   -4.6951   22.3397 C   0  0  0  0  0  0
  -22.7872  -13.5245   21.1872 C   0  0  0  0  0  0
  -22.1653   -4.2129   21.0972 F   0  0  0  0  0  0
  -21.5642   -3.4527   25.7734 F   0  0  0  0  0  0
  -30.0439  -13.3045   20.4414 N   0  0  0  0  0  0
  -26.3046  -12.9368   20.3414 N   0  0  0  0  0  0
  -25.9329  -11.6512   20.5776 N   0  0  0  0  0  0
  -22.0475  -12.8249   22.0405 N   0  0  0  0  0  0
  -25.4341  -15.1898   20.4231 N   0  0  0  0  0  0
  -31.8689  -14.6222   20.0920 O   0  0  0  0  0  0
  -21.6628   -6.8883   21.4259 O   0  0  0  0  0  0
  -22.3583  -14.5558   20.6719 O   0  0  0  0  0  0
  -24.6229  -31.8709   23.2243 C   0  0  0  0  0  0
  -25.9167  -32.4798   23.8474 C   0  0  1  0  0  0
  -27.1885  -27.4025   20.0756 C   0  0  0  0  0  0
  -25.6085  -33.8600   24.2428 N   0  0  0  0  0  0
  -23.4024  -30.5120   21.5659 C   0  0  2  0  0  0
  -24.8379  -29.0098   20.1119 C   0  0  0  0  0  0
  -22.7415  -29.4703   22.4991 C   0  0  0  0  0  0
  -18.0275  -28.1353   22.8482 C   0  0  0  0  0  0
  -24.1490  -36.7254   23.2620 C   0  0  0  0  0  0
  -25.9446  -30.8276   21.3878 C   0  0  0  0  0  0
  -26.0118  -29.4702   20.7199 C   0  0  0  0  0  0
  -27.1924  -28.6749   20.7099 C   0  0  0  0  0  0
  -25.9827  -27.0188   19.4178 C   0  0  0  0  0  0
  -24.8212  -27.7830   19.4565 C   0  0  0  0  0  0
  -23.6079  -29.8780   20.1707 C   0  0  0  0  0  0
  -25.4113  -36.3073   24.0340 C   0  0  1  0  0  0
  -20.5867  -28.3660   23.1261 C   0  0  2  0  0  0
  -20.6790  -26.9396   22.5363 C   0  0  0  0  0  0
  -19.5775  -26.6368   21.5176 C   0  0  0  0  0  0
  -18.1949  -26.7912   22.1576 C   0  0  0  0  0  0
  -19.1521  -28.8825   23.2875 C   0  0  0  0  0  0
  -18.9438  -30.1432   23.8876 C   0  0  0  0  0  0
  -17.6443  -30.6568   24.0524 C   0  0  0  0  0  0
  -25.9078  -34.9441   23.5152 C   0  0  0  0  0  0
  -16.5334  -29.9042   23.6337 C   0  0  0  0  0  0
  -16.7258  -28.6446   23.0380 C   0  0  0  0  0  0
  -26.4608  -31.6550   25.0770 C   0  0  0  0  0  0
  -25.3922  -31.3606   26.1528 C   0  0  0  0  0  0
  -27.0457  -30.3015   24.6137 C   0  0  0  0  0  0
  -27.6218  -32.4240   25.7535 C   0  0  0  0  0  0
  -27.5595  -37.1747   24.8448 C   0  0  0  0  0  0
  -21.4144  -29.3050   22.3692 N   0  0  0  0  0  0
  -26.4275  -37.3786   23.9455 N   0  0  0  0  0  0
  -24.6746  -31.0832   22.1151 N   0  0  0  0  0  0
  -23.4198  -28.8204   23.2997 O   0  0  0  0  0  0
  -28.2877  -26.5332   20.1312 O   0  0  0  0  0  0
  -26.5502  -34.8881   22.4631 O   0  0  0  0  0  0
  -23.5434  -32.1472   23.7667 O   0  0  0  0  0  0
  -29.7716  -22.2018   21.2377 C   0  0  0  0  0  0
  -29.4386  -23.5652   21.0114 C   0  0  0  0  0  0
  -28.3119  -22.8988   18.9659 C   0  0  0  0  0  0
  -29.3237  -21.1708   20.3650 C   0  0  0  0  0  0
  -28.6902  -23.9140   19.8665 C   0  0  0  0  0  0
  -28.5776  -21.5453   19.2140 C   0  0  0  0  0  0
  -29.8425  -19.2426   22.1031 C   0  0  0  0  0  0
  -30.6370  -19.0441   19.7664 C   0  0  0  0  0  0
  -29.7169  -17.6999   22.2254 C   0  0  0  0  0  0
  -30.4877  -17.5125   19.7689 C   0  0  0  0  0  0
  -29.5525  -19.6758   20.6521 C   0  0  2  0  0  0
  -30.5597  -16.8928   21.1918 C   0  0  2  0  0  0
  -27.9341  -20.5318   18.2733 C   0  0  0  0  0  0
  -27.9273  -25.2138   19.6494 C   0  0  0  0  0  0
  -30.1050  -15.4895   21.1618 N   0  0  0  0  0  0
  -31.4594  -12.3914   19.1186 H   0  0  0  0  0  0
  -30.3034  -11.3026   19.8206 H   0  0  0  0  0  0
  -29.7314  -11.7955   17.4193 H   0  0  0  0  0  0
  -29.6669  -13.5029   17.7703 H   0  0  0  0  0  0
  -27.8119  -11.3264   18.8079 H   0  0  0  0  0  0
  -27.3607  -12.6654   17.7854 H   0  0  0  0  0  0
  -27.6996  -14.2645   19.5731 H   0  0  0  0  0  0
  -28.6841  -11.9978   21.3740 H   0  0  0  0  0  0
  -28.4777  -13.6561   21.8525 H   0  0  0  0  0  0
  -25.2713   -9.5713   22.4766 H   0  0  0  0  0  0
  -23.9963   -7.4631   22.7455 H   0  0  0  0  0  0
  -21.0811   -8.8763   19.8942 H   0  0  0  0  0  0
  -22.3657  -10.9647   19.6147 H   0  0  0  0  0  0
  -21.1955   -7.6133   23.9715 H   0  0  0  0  0  0
  -21.1491   -6.0509   25.9084 H   0  0  0  0  0  0
  -22.0604   -2.7610   23.2836 H   0  0  0  0  0  0
  -22.4005  -11.9862   22.4757 H   0  0  0  0  0  0
  -21.1108  -13.1359   22.2597 H   0  0  0  0  0  0
  -24.6796  -15.8536   20.5605 H   0  0  0  0  0  0
  -26.3063  -15.6301   20.1574 H   0  0  0  0  0  0
  -26.7210  -32.5509   23.1215 H   0  0  0  0  0  0
  -25.0607  -33.9779   25.0815 H   0  0  0  0  0  0
  -22.6893  -31.3296   21.4461 H   0  0  0  0  0  0
  -23.3821  -35.9509   23.3151 H   0  0  0  0  0  0
  -24.3653  -36.8992   22.2072 H   0  0  0  0  0  0
  -23.7109  -37.6372   23.6681 H   0  0  0  0  0  0
  -26.0744  -31.5993   20.6272 H   0  0  0  0  0  0
  -26.8276  -30.8625   22.0116 H   0  0  0  0  0  0
  -28.0827  -29.0216   21.2145 H   0  0  0  0  0  0
  -25.8506  -26.1057   18.8575 H   0  0  0  0  0  0
  -23.9290  -27.4284   18.9625 H   0  0  0  0  0  0
  -23.7234  -30.6640   19.4243 H   0  0  0  0  0  0
  -22.7298  -29.3071   19.8666 H   0  0  0  0  0  0
  -25.1285  -36.1906   25.0826 H   0  0  0  0  0  0
  -20.9971  -28.3185   24.1376 H   0  0  0  0  0  0
  -20.5724  -26.2255   23.3546 H   0  0  0  0  0  0
  -21.6649  -26.7461   22.1126 H   0  0  0  0  0  0
  -19.6936  -25.6268   21.1232 H   0  0  0  0  0  0
  -19.6746  -27.3147   20.6686 H   0  0  0  0  0  0
  -17.4251  -26.6674   21.3941 H   0  0  0  0  0  0
  -18.0351  -26.0043   22.8958 H   0  0  0  0  0  0
  -19.7925  -30.7251   24.2233 H   0  0  0  0  0  0
  -17.5008  -31.6263   24.5086 H   0  0  0  0  0  0
  -15.5332  -30.2932   23.7696 H   0  0  0  0  0  0
  -15.8662  -28.0734   22.7147 H   0  0  0  0  0  0
  -24.6140  -30.6897   25.7866 H   0  0  0  0  0  0
  -24.9075  -32.2728   26.5001 H   0  0  0  0  0  0
  -25.8380  -30.8778   27.0237 H   0  0  0  0  0  0
  -26.2993  -29.6716   24.1288 H   0  0  0  0  0  0
  -27.4354  -29.7299   25.4564 H   0  0  0  0  0  0
  -27.8776  -30.4348   23.9226 H   0  0  0  0  0  0
  -27.2909  -33.3593   26.2050 H   0  0  0  0  0  0
  -28.4086  -32.6680   25.0385 H   0  0  0  0  0  0
  -28.0798  -31.8362   26.5500 H   0  0  0  0  0  0
  -28.2462  -38.0184   24.7717 H   0  0  0  0  0  0
  -28.1226  -36.2731   24.6007 H   0  0  0  0  0  0
  -27.2341  -37.1042   25.8837 H   0  0  0  0  0  0
  -20.9293  -29.8807   21.6955 H   0  0  0  0  0  0
  -26.0137  -38.2822   24.1592 H   0  0  0  0  0  0
  -30.3194  -21.9472   22.1343 H   0  0  0  0  0  0
  -29.6880  -24.3152   21.7508 H   0  0  0  0  0  0
  -27.6869  -23.1531   18.1175 H   0  0  0  0  0  0
  -30.8377  -19.5691   22.4115 H   0  0  0  0  0  0
  -29.1328  -19.7134   22.7866 H   0  0  0  0  0  0
  -30.5728  -19.4067   18.7429 H   0  0  0  0  0  0
  -31.6257  -19.3410   20.1147 H   0  0  0  0  0  0
  -28.6616  -17.4464   22.1085 H   0  0  0  0  0  0
  -29.9837  -17.3947   23.2392 H   0  0  0  0  0  0
  -31.2631  -17.0855   19.1305 H   0  0  0  0  0  0
  -29.5393  -17.2520   19.2955 H   0  0  0  0  0  0
  -28.5985  -19.2075   20.4064 H   0  0  0  0  0  0
  -31.6032  -16.9197   21.5115 H   0  0  0  0  0  0
  -27.5133  -21.0136   17.3884 H   0  0  0  0  0  0
  -27.1130  -20.0195   18.7756 H   0  0  0  0  0  0
  -28.6316  -19.7826   17.9129 H   0  0  0  0  0  0
  -26.9923  -24.9183   20.1336 H   0  0  0  0  0  0
  -27.7701  -25.3050   18.5735 H   0  0  0  0  0  0
  -29.1868  -15.2905   21.5265 H   0  0  0  0  0  0
  1 25  1  0  0  0
  1 30  2  0  0  0
  1 85  1  0  0  0
  2  3  1  0  0  0
  2 25  1  0  0  0
  2 86  1  0  0  0
  2 87  1  0  0  0
  3  4  1  0  0  0
  3 88  1  0  0  0
  3 89  1  0  0  0
  4  5  1  0  0  0
  4 90  1  0  0  0
  4 91  1  0  0  0
  5  6  1  0  0  0
  5 26  1  0  0  0
  5 92  1  0  0  0
  6 25  1  0  0  0
  6 93  1  0  0  0
  6 94  1  0  0  0
  7  8  2  0  0  0
  7 26  1  0  0  0
  7 29  1  0  0  0
  8  9  1  0  0  0
  8 22  1  0  0  0
  9 10  1  0  0  0
  9 27  2  0  0  0
 10 11  2  0  0  0
 10 15  1  0  0  0
 11 12  1  0  0  0
 11 95  1  0  0  0
 12 13  2  0  0  0
 12 96  1  0  0  0
 13 14  1  0  0  0
 13 31  1  0  0  0
 14 15  2  0  0  0
 14 97  1  0  0  0
 15 98  1  0  0  0
 16 17  2  0  0  0
 16 21  1  0  0  0
 16 31  1  0  0  0
 17 18  1  0  0  0
 17 99  1  0  0  0
 18 19  2  0  0  0
 18100  1  0  0  0
 19 20  1  0  0  0
 19 24  1  0  0  0
 20 21  2  0  0  0
 20101  1  0  0  0
 21 23  1  0  0  0
 22 28  1  0  0  0
 22 32  2  0  0  0
 26 27  1  0  0  0
 28102  1  0  0  0
 28103  1  0  0  0
 29104  1  0  0  0
 29105  1  0  0  0
 33 34  1  0  0  0
 33 66  1  0  0  0
 33 70  2  0  0  0
 34 36  1  0  0  0
 34 59  1  0  0  0
 34106  1  0  0  0
 35 44  2  0  0  0
 35 45  1  0  0  0
 35 68  1  0  0  0
 36 56  1  0  0  0
 36107  1  0  0  0
 37 39  1  0  0  0
 37 47  1  0  0  0
 37 66  1  0  0  0
 37108  1  0  0  0
 38 43  2  0  0  0
 38 46  1  0  0  0
 38 47  1  0  0  0
 39 64  1  0  0  0
 39 67  2  0  0  0
 40 52  1  0  0  0
 40 53  2  0  0  0
 40 58  1  0  0  0
 41109  1  0  0  0
 41110  1  0  0  0
 41111  1  0  0  0
 41 48  1  0  0  0
 42 43  1  0  0  0
 42 66  1  0  0  0
 42112  1  0  0  0
 42113  1  0  0  0
 43 44  1  0  0  0
 44114  1  0  0  0
 45 46  2  0  0  0
 45115  1  0  0  0
 46116  1  0  0  0
 47117  1  0  0  0
 47118  1  0  0  0
 48 56  1  0  0  0
 48 65  1  0  0  0
 48119  1  0  0  0
 49 50  1  0  0  0
 49 53  1  0  0  0
 49 64  1  0  0  0
 49120  1  0  0  0
 50 51  1  0  0  0
 50121  1  0  0  0
 50122  1  0  0  0
 51 52  1  0  0  0
 51123  1  0  0  0
 51124  1  0  0  0
 52125  1  0  0  0
 52126  1  0  0  0
 53 54  1  0  0  0
 54 55  2  0  0  0
 54127  1  0  0  0
 55 57  1  0  0  0
 55128  1  0  0  0
 56 69  2  0  0  0
 57 58  2  0  0  0
 57129  1  0  0  0
 58130  1  0  0  0
 59 60  1  0  0  0
 59 61  1  0  0  0
 59 62  1  0  0  0
 60131  1  0  0  0
 60132  1  0  0  0
 60133  1  0  0  0
 61134  1  0  0  0
 61135  1  0  0  0
 61136  1  0  0  0
 62137  1  0  0  0
 62138  1  0  0  0
 62139  1  0  0  0
 63 65  1  0  0  0
 63140  1  0  0  0
 63141  1  0  0  0
 63142  1  0  0  0
 64143  1  0  0  0
 65144  1  0  0  0
 68 84  1  0  0  0
 71 72  2  0  0  0
 71 74  1  0  0  0
 71145  1  0  0  0
 72 75  1  0  0  0
 72146  1  0  0  0
 73 75  2  0  0  0
 73 76  1  0  0  0
 73147  1  0  0  0
 74 76  2  0  0  0
 74 81  1  0  0  0
 75 84  1  0  0  0
 76 83  1  0  0  0
 77 79  1  0  0  0
 77 81  1  0  0  0
 77148  1  0  0  0
 77149  1  0  0  0
 78 80  1  0  0  0
 78 81  1  0  0  0
 78150  1  0  0  0
 78151  1  0  0  0
 79 82  1  0  0  0
 79152  1  0  0  0
 79153  1  0  0  0
 80 82  1  0  0  0
 80154  1  0  0  0
 80155  1  0  0  0
 81156  1  0  0  0
 82 85  1  0  0  0
 82157  1  0  0  0
 83158  1  0  0  0
 83159  1  0  0  0
 83160  1  0  0  0
 84161  1  0  0  0
 84162  1  0  0  0
 85163  1  0  0  0
M  ISO  4   1 100  68 101  84 101  85 100
M  END
> <chiral flag>
0

> <version>
0

> <s_m_source_file>
/data/baiqing/PycharmProjects/Reinvent-master-3.2/result/LINK_invent/BTK/process_docking_weight1_custom_sum_contain_oxygen_bond_distance_aromatic_linkinvent_7_9_3/rearranged_h_0133.sdf

> <i_m_source_file_index>
36

> <r_mmod_Potential_Energy-OPLS-2005>
62.5893440246582

> <r_mmod_Stretch_Energy-OPLS-2005>
45.5156326293945

> <r_mmod_Bend_Energy-OPLS-2005>
143.905578613281

> <r_mmod_Torsional_Energy-OPLS-2005>
228.96435546875

> <r_mmod_Improper_Torsional_Energy-OPLS-2005>
6.27391386032104

> <r_mmod_Van_der_Waal_Energy-OPLS-2005>
188.152099609375

> <r_mmod_Electrostatic_Energy-OPLS-2005>
-373.786682128906

> <r_mmod_Solvation_Energy-OPLS-2005>
-201.781524658203

> <b_mmod_Minimization_Converged-OPLS-2005>
0

> <r_mmod_RMS_Derivative-OPLS-2005>
3.83097219467163

$$$$
36
                    3D
 Structure written by MMmdl.
163172  0  0  1  0            999 V2000
  -28.9813  -16.6926   20.2553 C   0  0  0  0  0  0
  -30.0576  -13.9985   19.5916 C   0  0  0  0  0  0
  -29.4909  -13.0137   18.4824 C   0  0  0  0  0  0
  -28.1856  -12.3452   18.9209 C   0  0  0  0  0  0
  -27.4502  -13.3532   19.8100 C   0  0  2  0  0  0
  -28.2680  -14.0302   20.9271 C   0  0  0  0  0  0
  -25.1530  -13.8232   20.5714 C   0  0  0  0  0  0
  -24.1139  -13.0304   20.9457 C   0  0  0  0  0  0
  -24.5977  -11.6850   20.8879 C   0  0  0  0  0  0
  -23.8802  -10.4227   21.0497 C   0  0  0  0  0  0
  -24.3459   -9.4198   21.9239 C   0  0  0  0  0  0
  -23.6225   -8.2184   22.0760 C   0  0  0  0  0  0
  -22.4202   -8.0201   21.3540 C   0  0  0  0  0  0
  -21.9783   -9.0147   20.4633 C   0  0  0  0  0  0
  -22.7027  -10.2067   20.3099 C   0  0  0  0  0  0
  -21.6825   -6.0662   22.5275 C   0  0  0  0  0  0
  -21.4000   -6.5599   23.8200 C   0  0  0  0  0  0
  -21.3658   -5.6770   24.9177 C   0  0  0  0  0  0
  -21.6035   -4.3029   24.7246 C   0  0  0  0  0  0
  -21.8829   -3.8103   23.4379 C   0  0  0  0  0  0
  -21.9201   -4.6899   22.3423 C   0  0  0  0  0  0
  -22.7240  -13.5112   21.2112 C   0  0  0  0  0  0
  -22.1659   -4.2089   21.0998 F   0  0  0  0  0  0
  -21.5649   -3.4527   25.7769 F   0  0  0  0  0  0
  -29.0288  -15.0949   20.2198 N   0  0  0  0  0  0
  -26.1794  -12.9488   20.3066 N   0  0  0  0  0  0
  -25.8840  -11.6534   20.5589 N   0  0  0  0  0  0
  -21.9894  -12.8114   22.0674 N   0  0  0  0  0  0
  -25.3167  -15.1966   20.3976 N   0  0  0  0  0  0
  -30.2691  -16.7092   20.0981 O   0  0  0  0  0  0
  -21.6610   -6.8765   21.4212 O   0  0  0  0  0  0
  -22.3024  -14.5447   20.6944 O   0  0  0  0  0  0
  -24.7898  -31.7990   22.7416 C   0  0  0  0  0  0
  -25.9696  -32.4569   23.5774 C   0  0  1  0  0  0
  -26.5871  -28.0841   21.6884 C   0  0  0  0  0  0
  -25.5661  -33.8090   24.0319 N   0  0  0  0  0  0
  -24.2471  -29.2382   21.1882 C   0  0  2  0  0  0
  -25.6142  -28.8895   19.4617 C   0  0  0  0  0  0
  -23.6032  -27.5885   22.1976 C   0  0  0  0  0  0
  -18.1978  -28.0203   22.8577 C   0  0  0  0  0  0
  -24.1446  -36.6812   23.2683 C   0  0  0  0  0  0
  -26.0127  -31.0534   20.7751 C   0  0  0  0  0  0
  -26.5019  -29.7180   20.2009 C   0  0  0  0  0  0
  -27.3616  -29.0343   21.0327 C   0  0  0  0  0  0
  -26.2193  -27.0455   20.7694 C   0  0  0  0  0  0
  -25.7002  -27.4948   19.5683 C   0  0  0  0  0  0
  -24.2811  -29.2941   19.5990 C   0  0  0  0  0  0
  -25.4212  -36.2785   24.0190 C   0  0  1  0  0  0
  -20.7762  -27.4825   23.4495 C   0  0  2  0  0  0
  -20.4242  -26.2440   22.6377 C   0  0  0  0  0  0
  -19.4620  -26.3116   21.4877 C   0  0  0  0  0  0
  -18.1410  -26.7087   22.0642 C   0  0  0  0  0  0
  -19.4574  -28.5480   23.3932 C   0  0  0  0  0  0
  -19.2960  -29.8363   23.9899 C   0  0  0  0  0  0
  -18.0194  -30.4799   24.0637 C   0  0  0  0  0  0
  -25.9236  -34.9488   23.4271 C   0  0  0  0  0  0
  -16.8379  -29.8879   23.5643 C   0  0  0  0  0  0
  -16.9358  -28.6423   22.9713 C   0  0  0  0  0  0
  -26.4160  -31.7388   24.9667 C   0  0  0  0  0  0
  -25.3587  -31.6308   26.1489 C   0  0  0  0  0  0
  -27.1505  -30.4131   24.7007 C   0  0  0  0  0  0
  -27.5036  -32.5988   25.6346 C   0  0  0  0  0  0
  -27.5519  -37.1561   24.8467 C   0  0  0  0  0  0
  -22.4096  -27.4022   23.1621 N   0  0  0  0  0  0
  -26.4223  -37.3683   23.9402 N   0  0  0  0  0  0
  -24.9128  -30.7781   21.6677 N   0  0  0  0  0  0
  -24.3162  -26.9106   22.8594 O   0  0  0  0  0  0
  -25.8408  -28.6679   22.8907 O   0  0  0  0  0  0
  -26.6262  -34.9358   22.4145 O   0  0  0  0  0  0
  -23.7111  -32.1054   23.3391 O   0  0  0  0  0  0
  -21.7392  -30.5106   19.9604 C   0  0  0  0  0  0
  -21.9127  -30.8483   21.4710 C   0  0  0  0  0  0
  -21.5861  -28.7098   21.3793 C   0  0  0  0  0  0
  -21.4855  -29.0205   19.5189 C   0  0  0  0  0  0
  -22.2690  -29.7629   22.4663 C   0  0  0  0  0  0
  -22.0509  -27.6493   20.2260 C   0  0  0  0  0  0
  -18.9563  -30.2851   18.5380 C   0  0  0  0  0  0
  -19.1380  -30.5498   19.9901 C   0  0  0  0  0  0
  -19.8695  -29.2983   19.3280 C   0  0  0  0  0  0
  -22.9437  -25.4929   20.0944 C   0  0  0  0  0  0
  -24.0989  -29.4573   23.6012 C   0  0  0  0  0  0
  -26.8285  -20.0754   20.1406 C   0  0  0  0  0  0
  -25.2996  -22.0098   20.4594 C   0  0  0  0  0  0
  -27.7580  -18.0833   20.3221 N   0  0  0  0  0  0
  -24.4316  -23.9309   20.0627 N   0  3  0  0  0  0
  -30.8617  -14.5364   19.0910 H   0  0  0  0  0  0
  -30.5790  -13.4422   20.3783 H   0  0  0  0  0  0
  -30.2401  -12.2702   18.2002 H   0  0  0  0  0  0
  -29.2957  -13.6044   17.5842 H   0  0  0  0  0  0
  -28.4119  -11.4440   19.4924 H   0  0  0  0  0  0
  -27.5869  -12.0411   18.0586 H   0  0  0  0  0  0
  -27.1924  -14.1230   19.0794 H   0  0  0  0  0  0
  -28.8216  -13.3224   21.5430 H   0  0  0  0  0  0
  -27.6180  -14.5323   21.6384 H   0  0  0  0  0  0
  -25.2565   -9.5759   22.4839 H   0  0  0  0  0  0
  -23.9968   -7.4567   22.7467 H   0  0  0  0  0  0
  -21.0720   -8.8603   19.8932 H   0  0  0  0  0  0
  -22.3413  -10.9609   19.6258 H   0  0  0  0  0  0
  -21.1953   -7.6104   23.9683 H   0  0  0  0  0  0
  -21.1473   -6.0503   25.9075 H   0  0  0  0  0  0
  -22.0609   -2.7565   23.2901 H   0  0  0  0  0  0
  -22.3500  -11.9788   22.5075 H   0  0  0  0  0  0
  -21.0538  -13.1198   22.2902 H   0  0  0  0  0  0
  -24.5017  -15.7985   20.4042 H   0  0  0  0  0  0
  -26.0464  -15.5251   19.7801 H   0  0  0  0  0  0
  -26.8774  -32.5607   22.9675 H   0  0  0  0  0  0
  -24.9497  -33.8389   24.8365 H   0  0  0  0  0  0
  -23.6081  -29.8380   20.7693 H   0  0  0  0  0  0
  -23.4096  -35.8756   23.3435 H   0  0  0  0  0  0
  -24.3426  -36.8489   22.2062 H   0  0  0  0  0  0
  -23.6913  -37.5711   23.6991 H   0  0  0  0  0  0
  -25.6006  -31.7499   20.0253 H   0  0  0  0  0  0
  -26.8393  -31.6084   21.2103 H   0  0  0  0  0  0
  -27.7842  -29.7544   21.6941 H   0  0  0  0  0  0
  -26.0912  -26.0406   21.1909 H   0  0  0  0  0  0
  -25.3305  -26.8244   18.8050 H   0  0  0  0  0  0
  -24.1626  -30.2690   19.1257 H   0  0  0  0  0  0
  -23.7283  -28.6462   18.8996 H   0  0  0  0  0  0
  -25.1693  -36.1131   25.0720 H   0  0  0  0  0  0
  -20.7589  -27.1797   24.5228 H   0  0  0  0  0  0
  -21.2970  -25.7352   22.2678 H   0  0  0  0  0  0
  -20.1448  -25.4314   23.3051 H   0  0  0  0  0  0
  -19.4217  -25.3343   21.0270 H   0  0  0  0  0  0
  -19.8062  -26.9257   20.6761 H   0  0  0  0  0  0
  -17.4901  -26.8702   21.2093 H   0  0  0  0  0  0
  -17.8041  -25.8614   22.6964 H   0  0  0  0  0  0
  -20.1555  -30.2853   24.4820 H   0  0  0  0  0  0
  -17.9596  -31.4286   24.5781 H   0  0  0  0  0  0
  -15.8944  -30.3654   23.6886 H   0  0  0  0  0  0
  -16.0580  -28.1578   22.5533 H   0  0  0  0  0  0
  -24.3597  -31.2515   26.0374 H   0  0  0  0  0  0
  -25.1695  -32.6323   26.5436 H   0  0  0  0  0  0
  -25.8258  -31.1356   27.0072 H   0  0  0  0  0  0
  -26.6051  -29.5190   24.9891 H   0  0  0  0  0  0
  -28.1464  -30.3689   25.1584 H   0  0  0  0  0  0
  -27.4073  -30.3335   23.6667 H   0  0  0  0  0  0
  -27.1427  -33.5959   25.8933 H   0  0  0  0  0  0
  -28.3997  -32.7705   25.0279 H   0  0  0  0  0  0
  -27.8213  -32.1609   26.5879 H   0  0  0  0  0  0
  -28.2527  -37.9910   24.7800 H   0  0  0  0  0  0
  -28.1133  -36.2443   24.6305 H   0  0  0  0  0  0
  -27.2115  -37.1018   25.8825 H   0  0  0  0  0  0
  -22.8391  -26.7988   23.8247 H   0  0  0  0  0  0
  -26.0000  -38.2567   24.1838 H   0  0  0  0  0  0
  -21.5539  -31.3920   19.3288 H   0  0  0  0  0  0
  -22.1219  -31.8683   21.7428 H   0  0  0  0  0  0
  -20.5433  -28.9179   21.4432 H   0  0  0  0  0  0
  -19.3437  -30.9947   17.8099 H   0  0  0  0  0  0
  -17.9140  -29.9813   18.3492 H   0  0  0  0  0  0
  -18.2548  -30.4117   20.6184 H   0  0  0  0  0  0
  -19.5668  -31.5621   20.1568 H   0  0  0  0  0  0
  -19.2887  -28.3822   19.3683 H   0  0  0  0  0  0
  -22.3961  -25.3030   19.1688 H   0  0  0  0  0  0
  -22.2499  -24.9595   20.7398 H   0  0  0  0  0  0
  -23.9093  -28.7349   24.3995 H   0  0  0  0  0  0
  -24.1318  -30.1316   24.4341 H   0  0  0  0  0  0
  -26.5359  -19.8305   21.1894 H   0  0  0  0  0  0
  -26.1634  -19.6640   19.3895 H   0  0  0  0  0  0
  -24.4596  -21.5862   20.9864 H   0  0  0  0  0  0
  -25.8695  -22.4190   21.2834 H   0  0  0  0  0  0
  -26.9678  -17.5080   20.5949 H   0  0  0  0  0  0
  -24.0861  -23.5632   19.1860 H   0  0  0  0  0  0
  -25.2435  -24.4841   19.8590 H   0  0  0  0  0  0
  1 25  1  0  0  0
  1 30  2  0  0  0
  1 84  1  0  0  0
  2  3  1  0  0  0
  2 25  1  0  0  0
  2 86  1  0  0  0
  2 87  1  0  0  0
  3  4  1  0  0  0
  3 88  1  0  0  0
  3 89  1  0  0  0
  4  5  1  0  0  0
  4 90  1  0  0  0
  4 91  1  0  0  0
  5  6  1  0  0  0
  5 26  1  0  0  0
  5 92  1  0  0  0
  6 25  1  0  0  0
  6 93  1  0  0  0
  6 94  1  0  0  0
  7  8  2  0  0  0
  7 26  1  0  0  0
  7 29  1  0  0  0
  8  9  1  0  0  0
  8 22  1  0  0  0
  9 10  1  0  0  0
  9 27  2  0  0  0
 10 11  2  0  0  0
 10 15  1  0  0  0
 11 12  1  0  0  0
 11 95  1  0  0  0
 12 13  2  0  0  0
 12 96  1  0  0  0
 13 14  1  0  0  0
 13 31  1  0  0  0
 14 15  2  0  0  0
 14 97  1  0  0  0
 15 98  1  0  0  0
 16 17  2  0  0  0
 16 21  1  0  0  0
 16 31  1  0  0  0
 17 18  1  0  0  0
 17 99  1  0  0  0
 18 19  2  0  0  0
 18100  1  0  0  0
 19 20  1  0  0  0
 19 24  1  0  0  0
 20 21  2  0  0  0
 20101  1  0  0  0
 21 23  1  0  0  0
 22 28  1  0  0  0
 22 32  2  0  0  0
 26 27  1  0  0  0
 28102  1  0  0  0
 28103  1  0  0  0
 29104  1  0  0  0
 29105  1  0  0  0
 33 34  1  0  0  0
 33 66  1  0  0  0
 33 70  2  0  0  0
 34 36  1  0  0  0
 34 59  1  0  0  0
 34106  1  0  0  0
 35 44  2  0  0  0
 35 45  1  0  0  0
 35 68  1  0  0  0
 36 56  1  0  0  0
 36107  1  0  0  0
 37 39  1  0  0  0
 37 47  1  0  0  0
 37 66  1  0  0  0
 37108  1  0  0  0
 38 43  2  0  0  0
 38 46  1  0  0  0
 38 47  1  0  0  0
 39 64  1  0  0  0
 39 67  2  0  0  0
 40 52  1  0  0  0
 40 53  2  0  0  0
 40 58  1  0  0  0
 41109  1  0  0  0
 41110  1  0  0  0
 41111  1  0  0  0
 41 48  1  0  0  0
 42 43  1  0  0  0
 42 66  1  0  0  0
 42112  1  0  0  0
 42113  1  0  0  0
 43 44  1  0  0  0
 44114  1  0  0  0
 45 46  2  0  0  0
 45115  1  0  0  0
 46116  1  0  0  0
 47117  1  0  0  0
 47118  1  0  0  0
 48 56  1  0  0  0
 48 65  1  0  0  0
 48119  1  0  0  0
 49 50  1  0  0  0
 49 53  1  0  0  0
 49 64  1  0  0  0
 49120  1  0  0  0
 50 51  1  0  0  0
 50121  1  0  0  0
 50122  1  0  0  0
 51 52  1  0  0  0
 51123  1  0  0  0
 51124  1  0  0  0
 52125  1  0  0  0
 52126  1  0  0  0
 53 54  1  0  0  0
 54 55  2  0  0  0
 54127  1  0  0  0
 55 57  1  0  0  0
 55128  1  0  0  0
 56 69  2  0  0  0
 57 58  2  0  0  0
 57129  1  0  0  0
 58130  1  0  0  0
 59 60  1  0  0  0
 59 61  1  0  0  0
 59 62  1  0  0  0
 60131  1  0  0  0
 60132  1  0  0  0
 60133  1  0  0  0
 61134  1  0  0  0
 61135  1  0  0  0
 61136  1  0  0  0
 62137  1  0  0  0
 62138  1  0  0  0
 62139  1  0  0  0
 63 65  1  0  0  0
 63140  1  0  0  0
 63141  1  0  0  0
 63142  1  0  0  0
 64143  1  0  0  0
 65144  1  0  0  0
 68 81  1  0  0  0
 71 72  2  0  0  0
 71 74  1  0  0  0
 71145  1  0  0  0
 72 75  1  0  0  0
 72146  1  0  0  0
 73 75  2  0  0  0
 73 76  1  0  0  0
 73147  1  0  0  0
 74 76  2  0  0  0
 74 79  1  0  0  0
 75 81  1  0  0  0
 76 80  1  0  0  0
 77 78  1  0  0  0
 77 79  1  0  0  0
 77148  1  0  0  0
 77149  1  0  0  0
 78 79  1  0  0  0
 78150  1  0  0  0
 78151  1  0  0  0
 79152  1  0  0  0
 80 85  1  0  0  0
 80153  1  0  0  0
 80154  1  0  0  0
 81155  1  0  0  0
 81156  1  0  0  0
 82 83  1  0  0  0
 82 84  1  0  0  0
 82157  1  0  0  0
 82158  1  0  0  0
 83 85  1  0  0  0
 83159  1  0  0  0
 83160  1  0  0  0
 84161  1  0  0  0
 85162  1  0  0  0
 85163  1  0  0  0
M  CHG  1  85   1
M  ISO  4   1 100  68 101  81 101  84 100
M  END
> <chiral flag>
0

> <version>
0

> <s_m_source_file>
/data/baiqing/PycharmProjects/Reinvent-master-3.2/result/LINK_invent/BTK/process_docking_weight1_custom_sum_contain_oxygen_bond_distance_aromatic_linkinvent_7_9_3/rearranged_h_0133.sdf

> <i_m_source_file_index>
37

> <r_mmod_Potential_Energy-OPLS-2005>
20361.361328125

> <r_mmod_Stretch_Energy-OPLS-2005>
7458.28759765625

> <r_mmod_Bend_Energy-OPLS-2005>
3161.5322265625

> <r_mmod_Torsional_Energy-OPLS-2005>
1081.08227539062

> <r_mmod_Improper_Torsional_Energy-OPLS-2005>
138.88883972168

> <r_mmod_Van_der_Waal_Energy-OPLS-2005>
2049.57739257812

> <r_mmod_Electrostatic_Energy-OPLS-2005>
-336.294311523438

> <r_mmod_Solvation_Energy-OPLS-2005>
-469.833984375

> <b_mmod_Minimization_Converged-OPLS-2005>
0

> <r_mmod_RMS_Derivative-OPLS-2005>
65.1525802612305

$$$$
37
                    3D
 Structure written by MMmdl.
162171  0  0  1  0            999 V2000
  -30.6018  -14.9722   20.4360 C   0  0  0  0  0  0
  -30.4131  -12.6173   19.5111 C   0  0  0  0  0  0
  -29.5092  -12.5412   18.2626 C   0  0  0  0  0  0
  -28.0474  -12.3204   18.6853 C   0  0  0  0  0  0
  -27.6175  -13.2631   19.8389 C   0  0  2  0  0  0
  -28.6577  -13.3363   20.9763 C   0  0  0  0  0  0
  -25.2374  -13.8237   20.5758 C   0  0  0  0  0  0
  -24.1719  -13.0440   20.9249 C   0  0  0  0  0  0
  -24.6365  -11.6938   20.8770 C   0  0  0  0  0  0
  -23.9052  -10.4308   21.0423 C   0  0  0  0  0  0
  -24.3598   -9.4220   21.9199 C   0  0  0  0  0  0
  -23.6273   -8.2254   22.0772 C   0  0  0  0  0  0
  -22.4255   -8.0287   21.3559 C   0  0  0  0  0  0
  -21.9881   -9.0262   20.4673 C   0  0  0  0  0  0
  -22.7219  -10.2141   20.3078 C   0  0  0  0  0  0
  -21.6857   -6.0725   22.5277 C   0  0  0  0  0  0
  -21.4033   -6.5623   23.8202 C   0  0  0  0  0  0
  -21.3668   -5.6775   24.9165 C   0  0  0  0  0  0
  -21.6040   -4.3042   24.7223 C   0  0  0  0  0  0
  -21.8810   -3.8140   23.4344 C   0  0  0  0  0  0
  -21.9199   -4.6958   22.3412 C   0  0  0  0  0  0
  -22.7740  -13.5208   21.1897 C   0  0  0  0  0  0
  -22.1666   -4.2146   21.0983 F   0  0  0  0  0  0
  -21.5626   -3.4524   25.7737 F   0  0  0  0  0  0
  -29.9215  -13.7523   20.3591 N   0  0  0  0  0  0
  -26.2815  -12.9510   20.3292 N   0  0  0  0  0  0
  -25.9303  -11.6623   20.5774 N   0  0  0  0  0  0
  -22.0388  -12.8209   22.0455 N   0  0  0  0  0  0
  -25.3937  -15.1958   20.4176 N   0  0  0  0  0  0
  -31.8164  -14.8910   20.2089 O   0  0  0  0  0  0
  -21.6635   -6.8872   21.4239 O   0  0  0  0  0  0
  -22.3436  -14.5524   20.6752 O   0  0  0  0  0  0
  -24.6403  -31.8450   23.1903 C   0  0  0  0  0  0
  -25.9191  -32.4697   23.8284 C   0  0  1  0  0  0
  -27.2082  -27.1362   20.1770 C   0  0  0  0  0  0
  -25.5964  -33.8498   24.2214 N   0  0  0  0  0  0
  -23.4446  -30.4641   21.5324 C   0  0  2  0  0  0
  -24.8958  -28.8899   20.1129 C   0  0  0  0  0  0
  -22.7567  -29.4525   22.4833 C   0  0  0  0  0  0
  -18.0317  -28.1374   22.8454 C   0  0  0  0  0  0
  -24.1502  -36.7255   23.2639 C   0  0  0  0  0  0
  -25.9988  -30.7203   21.3913 C   0  0  0  0  0  0
  -26.0697  -29.3289   20.7404 C   0  0  0  0  0  0
  -27.2283  -28.4665   20.7578 C   0  0  0  0  0  0
  -26.0159  -26.8001   19.5031 C   0  0  0  0  0  0
  -24.8807  -27.6397   19.4783 C   0  0  0  0  0  0
  -23.6754  -29.7969   20.1497 C   0  0  0  0  0  0
  -25.4130  -36.3027   24.0318 C   0  0  1  0  0  0
  -20.5930  -28.3705   23.1233 C   0  0  2  0  0  0
  -20.6790  -26.9399   22.5411 C   0  0  0  0  0  0
  -19.5776  -26.6362   21.5202 C   0  0  0  0  0  0
  -18.1951  -26.7917   22.1601 C   0  0  0  0  0  0
  -19.1571  -28.8867   23.2837 C   0  0  0  0  0  0
  -18.9482  -30.1452   23.8877 C   0  0  0  0  0  0
  -17.6473  -30.6564   24.0564 C   0  0  0  0  0  0
  -25.9068  -34.9402   23.5072 C   0  0  0  0  0  0
  -16.5372  -29.9055   23.6315 C   0  0  0  0  0  0
  -16.7295  -28.6481   23.0332 C   0  0  0  0  0  0
  -26.4522  -31.6555   25.0719 C   0  0  0  0  0  0
  -25.3711  -31.3765   26.1432 C   0  0  0  0  0  0
  -27.0356  -30.2929   24.6304 C   0  0  0  0  0  0
  -27.6080  -32.4286   25.7486 C   0  0  0  0  0  0
  -27.5581  -37.1790   24.8453 C   0  0  0  0  0  0
  -21.4264  -29.3027   22.3604 N   0  0  0  0  0  0
  -26.4297  -37.3730   23.9389 N   0  0  0  0  0  0
  -24.7136  -31.0312   22.0932 N   0  0  0  0  0  0
  -23.4221  -28.8075   23.2974 O   0  0  0  0  0  0
  -28.2659  -26.1595   20.1834 O   0  0  0  0  0  0
  -26.5633  -34.8885   22.4631 O   0  0  0  0  0  0
  -23.5531  -32.1326   23.7130 O   0  0  0  0  0  0
  -28.8772  -23.4955   20.1527 C   0  0  0  0  0  0
  -28.1252  -24.7313   20.5064 C   0  0  0  0  0  0
  -28.3985  -22.3854   20.8956 C   0  0  0  0  0  0
  -28.2361  -18.3501   20.8596 C   0  0  0  0  0  0
  -30.4992  -18.9877   20.9117 C   0  0  0  0  0  0
  -28.6297  -16.8355   20.3814 C   0  0  0  0  0  0
  -30.9092  -17.5253   20.3599 C   0  0  0  0  0  0
  -29.1227  -19.6313   20.4912 C   0  0  0  0  0  0
  -25.0205  -22.8924   22.5130 C   0  0  0  0  0  0
  -27.0223  -22.8173   24.0624 C   0  0  0  0  0  0
  -26.4920  -22.4461   22.6644 C   0  0  0  0  0  0
  -27.2066  -24.3585   21.3799 N   0  0  0  0  0  0
  -27.3577  -23.0094   21.6192 N   0  0  0  0  0  0
  -30.0311  -16.3002   20.5607 N   0  0  0  0  0  0
  -28.7475  -20.9570   21.2303 N   0  0  0  0  0  0
  -31.4517  -12.7355   19.2001 H   0  0  0  0  0  0
  -30.3847  -11.6782   20.0673 H   0  0  0  0  0  0
  -29.8364  -11.7379   17.6010 H   0  0  0  0  0  0
  -29.5946  -13.4671   17.6907 H   0  0  0  0  0  0
  -27.9546  -11.2833   19.0090 H   0  0  0  0  0  0
  -27.3821  -12.4397   17.8295 H   0  0  0  0  0  0
  -27.5659  -14.2534   19.3896 H   0  0  0  0  0  0
  -28.7557  -12.3742   21.4802 H   0  0  0  0  0  0
  -28.3531  -14.0518   21.7412 H   0  0  0  0  0  0
  -25.2732   -9.5701   22.4782 H   0  0  0  0  0  0
  -23.9993   -7.4631   22.7470 H   0  0  0  0  0  0
  -21.0818   -8.8770   19.8969 H   0  0  0  0  0  0
  -22.3662  -10.9672   19.6196 H   0  0  0  0  0  0
  -21.2023   -7.6131   23.9700 H   0  0  0  0  0  0
  -21.1505   -6.0515   25.9057 H   0  0  0  0  0  0
  -22.0582   -2.7606   23.2848 H   0  0  0  0  0  0
  -22.3973  -11.9874   22.4861 H   0  0  0  0  0  0
  -21.1041  -13.1303   22.2699 H   0  0  0  0  0  0
  -24.6159  -15.8380   20.5272 H   0  0  0  0  0  0
  -26.2312  -15.6420   20.0694 H   0  0  0  0  0  0
  -26.7259  -32.5314   23.1008 H   0  0  0  0  0  0
  -25.0137  -33.9619   25.0387 H   0  0  0  0  0  0
  -22.7448  -31.2886   21.3812 H   0  0  0  0  0  0
  -23.3754  -35.9597   23.3308 H   0  0  0  0  0  0
  -24.3597  -36.8871   22.2051 H   0  0  0  0  0  0
  -23.7287  -37.6468   23.6665 H   0  0  0  0  0  0
  -26.1559  -31.4746   20.6190 H   0  0  0  0  0  0
  -26.8674  -30.7721   22.0352 H   0  0  0  0  0  0
  -28.1244  -28.7958   21.2629 H   0  0  0  0  0  0
  -25.9454  -25.8367   19.0206 H   0  0  0  0  0  0
  -23.9879  -27.3029   18.9687 H   0  0  0  0  0  0
  -23.8211  -30.5750   19.3986 H   0  0  0  0  0  0
  -22.7888  -29.2451   19.8312 H   0  0  0  0  0  0
  -25.1319  -36.1854   25.0812 H   0  0  0  0  0  0
  -21.0025  -28.3292   24.1356 H   0  0  0  0  0  0
  -20.5657  -26.2302   23.3624 H   0  0  0  0  0  0
  -21.6662  -26.7370   22.1247 H   0  0  0  0  0  0
  -19.6928  -25.6266   21.1249 H   0  0  0  0  0  0
  -19.6724  -27.3156   20.6724 H   0  0  0  0  0  0
  -17.4219  -26.6662   21.3998 H   0  0  0  0  0  0
  -18.0343  -26.0072   22.9013 H   0  0  0  0  0  0
  -19.7961  -30.7271   24.2238 H   0  0  0  0  0  0
  -17.5025  -31.6242   24.5167 H   0  0  0  0  0  0
  -15.5366  -30.2944   23.7647 H   0  0  0  0  0  0
  -15.8705  -28.0789   22.7040 H   0  0  0  0  0  0
  -24.5895  -30.7098   25.7772 H   0  0  0  0  0  0
  -24.8906  -32.2966   26.4773 H   0  0  0  0  0  0
  -25.8012  -30.9010   27.0257 H   0  0  0  0  0  0
  -26.2955  -29.6665   24.1325 H   0  0  0  0  0  0
  -27.3956  -29.7226   25.4873 H   0  0  0  0  0  0
  -27.8878  -30.4126   23.9613 H   0  0  0  0  0  0
  -27.2704  -33.3599   26.2037 H   0  0  0  0  0  0
  -28.3907  -32.6815   25.0323 H   0  0  0  0  0  0
  -28.0730  -31.8431   26.5426 H   0  0  0  0  0  0
  -28.2600  -38.0082   24.7470 H   0  0  0  0  0  0
  -28.1084  -36.2614   24.6309 H   0  0  0  0  0  0
  -27.2304  -37.1474   25.8860 H   0  0  0  0  0  0
  -20.9447  -29.8754   21.6814 H   0  0  0  0  0  0
  -26.0169  -38.2800   24.1378 H   0  0  0  0  0  0
  -29.7315  -23.4612   19.4929 H   0  0  0  0  0  0
  -28.1586  -18.3151   21.9486 H   0  0  0  0  0  0
  -27.2179  -18.5478   20.5205 H   0  0  0  0  0  0
  -31.2896  -19.6841   20.6275 H   0  0  0  0  0  0
  -30.5460  -18.9522   22.0020 H   0  0  0  0  0  0
  -28.4127  -16.7623   19.3146 H   0  0  0  0  0  0
  -27.9460  -16.1450   20.8685 H   0  0  0  0  0  0
  -31.9030  -17.3147   20.7597 H   0  0  0  0  0  0
  -31.0514  -17.6164   19.2811 H   0  0  0  0  0  0
  -29.1047  -19.7980   19.4125 H   0  0  0  0  0  0
  -24.3798  -22.3858   23.2374 H   0  0  0  0  0  0
  -24.6346  -22.6636   21.5185 H   0  0  0  0  0  0
  -24.9017  -23.9647   22.6773 H   0  0  0  0  0  0
  -26.3744  -22.4303   24.8494 H   0  0  0  0  0  0
  -27.0801  -23.8991   24.1941 H   0  0  0  0  0  0
  -28.0207  -22.4116   24.2277 H   0  0  0  0  0  0
  -26.5036  -21.3613   22.5649 H   0  0  0  0  0  0
  -28.3470  -20.7524   22.1400 H   0  0  0  0  0  0
  1 25  1  0  0  0
  1 30  2  0  0  0
  1 84  1  0  0  0
  2  3  1  0  0  0
  2 25  1  0  0  0
  2 86  1  0  0  0
  2 87  1  0  0  0
  3  4  1  0  0  0
  3 88  1  0  0  0
  3 89  1  0  0  0
  4  5  1  0  0  0
  4 90  1  0  0  0
  4 91  1  0  0  0
  5  6  1  0  0  0
  5 26  1  0  0  0
  5 92  1  0  0  0
  6 25  1  0  0  0
  6 93  1  0  0  0
  6 94  1  0  0  0
  7  8  2  0  0  0
  7 26  1  0  0  0
  7 29  1  0  0  0
  8  9  1  0  0  0
  8 22  1  0  0  0
  9 10  1  0  0  0
  9 27  2  0  0  0
 10 11  2  0  0  0
 10 15  1  0  0  0
 11 12  1  0  0  0
 11 95  1  0  0  0
 12 13  2  0  0  0
 12 96  1  0  0  0
 13 14  1  0  0  0
 13 31  1  0  0  0
 14 15  2  0  0  0
 14 97  1  0  0  0
 15 98  1  0  0  0
 16 17  2  0  0  0
 16 21  1  0  0  0
 16 31  1  0  0  0
 17 18  1  0  0  0
 17 99  1  0  0  0
 18 19  2  0  0  0
 18100  1  0  0  0
 19 20  1  0  0  0
 19 24  1  0  0  0
 20 21  2  0  0  0
 20101  1  0  0  0
 21 23  1  0  0  0
 22 28  1  0  0  0
 22 32  2  0  0  0
 26 27  1  0  0  0
 28102  1  0  0  0
 28103  1  0  0  0
 29104  1  0  0  0
 29105  1  0  0  0
 33 34  1  0  0  0
 33 66  1  0  0  0
 33 70  2  0  0  0
 34 36  1  0  0  0
 34 59  1  0  0  0
 34106  1  0  0  0
 35 44  2  0  0  0
 35 45  1  0  0  0
 35 68  1  0  0  0
 36 56  1  0  0  0
 36107  1  0  0  0
 37 39  1  0  0  0
 37 47  1  0  0  0
 37 66  1  0  0  0
 37108  1  0  0  0
 38 43  2  0  0  0
 38 46  1  0  0  0
 38 47  1  0  0  0
 39 64  1  0  0  0
 39 67  2  0  0  0
 40 52  1  0  0  0
 40 53  2  0  0  0
 40 58  1  0  0  0
 41109  1  0  0  0
 41110  1  0  0  0
 41111  1  0  0  0
 41 48  1  0  0  0
 42 43  1  0  0  0
 42 66  1  0  0  0
 42112  1  0  0  0
 42113  1  0  0  0
 43 44  1  0  0  0
 44114  1  0  0  0
 45 46  2  0  0  0
 45115  1  0  0  0
 46116  1  0  0  0
 47117  1  0  0  0
 47118  1  0  0  0
 48 56  1  0  0  0
 48 65  1  0  0  0
 48119  1  0  0  0
 49 50  1  0  0  0
 49 53  1  0  0  0
 49 64  1  0  0  0
 49120  1  0  0  0
 50 51  1  0  0  0
 50121  1  0  0  0
 50122  1  0  0  0
 51 52  1  0  0  0
 51123  1  0  0  0
 51124  1  0  0  0
 52125  1  0  0  0
 52126  1  0  0  0
 53 54  1  0  0  0
 54 55  2  0  0  0
 54127  1  0  0  0
 55 57  1  0  0  0
 55128  1  0  0  0
 56 69  2  0  0  0
 57 58  2  0  0  0
 57129  1  0  0  0
 58130  1  0  0  0
 59 60  1  0  0  0
 59 61  1  0  0  0
 59 62  1  0  0  0
 60131  1  0  0  0
 60132  1  0  0  0
 60133  1  0  0  0
 61134  1  0  0  0
 61135  1  0  0  0
 61136  1  0  0  0
 62137  1  0  0  0
 62138  1  0  0  0
 62139  1  0  0  0
 63 65  1  0  0  0
 63140  1  0  0  0
 63141  1  0  0  0
 63142  1  0  0  0
 64143  1  0  0  0
 65144  1  0  0  0
 68 72  1  0  0  0
 71 72  1  0  0  0
 71 73  2  0  0  0
 71145  1  0  0  0
 72 82  2  0  0  0
 73 83  1  0  0  0
 73 85  1  0  0  0
 74 76  1  0  0  0
 74 78  1  0  0  0
 74146  1  0  0  0
 74147  1  0  0  0
 75 77  1  0  0  0
 75 78  1  0  0  0
 75148  1  0  0  0
 75149  1  0  0  0
 76 84  1  0  0  0
 76150  1  0  0  0
 76151  1  0  0  0
 77 84  1  0  0  0
 77152  1  0  0  0
 77153  1  0  0  0
 78 85  1  0  0  0
 78154  1  0  0  0
 79155  1  0  0  0
 79156  1  0  0  0
 79157  1  0  0  0
 79 81  1  0  0  0
 80 81  1  0  0  0
 80158  1  0  0  0
 80159  1  0  0  0
 80160  1  0  0  0
 81 83  1  0  0  0
 81161  1  0  0  0
 82 83  1  0  0  0
 85162  1  0  0  0
M  ISO  4   1 100  68 101  72 101  84 100
M  END
> <chiral flag>
0

> <version>
0

> <s_m_source_file>
/data/baiqing/PycharmProjects/Reinvent-master-3.2/result/LINK_invent/BTK/process_docking_weight1_custom_sum_contain_oxygen_bond_distance_aromatic_linkinvent_7_9_3/rearranged_h_0133.sdf

> <i_m_source_file_index>
38

> <r_mmod_Potential_Energy-OPLS-2005>
700.217468261719

> <r_mmod_Stretch_Energy-OPLS-2005>
221.079986572266

> <r_mmod_Bend_Energy-OPLS-2005>
329.094390869141

> <r_mmod_Torsional_Energy-OPLS-2005>
338.890869140625

> <r_mmod_Improper_Torsional_Energy-OPLS-2005>
8.5277624130249

> <r_mmod_Van_der_Waal_Energy-OPLS-2005>
117.44588470459

> <r_mmod_Electrostatic_Energy-OPLS-2005>
-304.818298339844

> <r_mmod_Solvation_Energy-OPLS-2005>
-209.467346191406

> <b_mmod_Minimization_Converged-OPLS-2005>
0

> <r_mmod_RMS_Derivative-OPLS-2005>
3.14850425720215

$$$$
38
                    3D
 Structure written by MMmdl.
159167  0  0  1  0            999 V2000
  -30.6255  -14.6926   20.4906 C   0  0  0  0  0  0
  -30.4486  -12.4359   19.4568 C   0  0  0  0  0  0
  -29.5114  -12.5083   18.2303 C   0  0  0  0  0  0
  -28.0316  -12.3656   18.6371 C   0  0  0  0  0  0
  -27.6557  -13.2311   19.8693 C   0  0  2  0  0  0
  -28.7061  -13.1089   20.9972 C   0  0  0  0  0  0
  -25.2573  -13.8209   20.5721 C   0  0  0  0  0  0
  -24.1854  -13.0462   20.9205 C   0  0  0  0  0  0
  -24.6441  -11.6926   20.8759 C   0  0  0  0  0  0
  -23.9110  -10.4302   21.0401 C   0  0  0  0  0  0
  -24.3646   -9.4202   21.9171 C   0  0  0  0  0  0
  -23.6305   -8.2249   22.0738 C   0  0  0  0  0  0
  -22.4281   -8.0297   21.3539 C   0  0  0  0  0  0
  -21.9940   -9.0278   20.4637 C   0  0  0  0  0  0
  -22.7284  -10.2145   20.3048 C   0  0  0  0  0  0
  -21.6851   -6.0743   22.5263 C   0  0  0  0  0  0
  -21.4002   -6.5639   23.8196 C   0  0  0  0  0  0
  -21.3656   -5.6786   24.9160 C   0  0  0  0  0  0
  -21.6041   -4.3050   24.7206 C   0  0  0  0  0  0
  -21.8836   -3.8149   23.4327 C   0  0  0  0  0  0
  -21.9199   -4.6968   22.3384 C   0  0  0  0  0  0
  -22.7855  -13.5215   21.1863 C   0  0  0  0  0  0
  -22.1667   -4.2156   21.0958 F   0  0  0  0  0  0
  -21.5640   -3.4532   25.7722 F   0  0  0  0  0  0
  -30.0134  -13.4636   20.4298 N   0  0  0  0  0  0
  -26.3028  -12.9417   20.3377 N   0  0  0  0  0  0
  -25.9383  -11.6558   20.5795 N   0  0  0  0  0  0
  -22.0518  -12.8192   22.0405 N   0  0  0  0  0  0
  -25.4329  -15.1933   20.4113 N   0  0  0  0  0  0
  -31.7803  -14.8380   20.0815 O   0  0  0  0  0  0
  -21.6637   -6.8892   21.4227 O   0  0  0  0  0  0
  -22.3539  -14.5531   20.6709 O   0  0  0  0  0  0
  -24.6269  -31.8558   23.2014 C   0  0  0  0  0  0
  -25.9095  -32.4761   23.8349 C   0  0  1  0  0  0
  -27.2180  -27.2830   20.1420 C   0  0  0  0  0  0
  -25.5902  -33.8562   24.2263 N   0  0  0  0  0  0
  -23.4258  -30.4758   21.5443 C   0  0  2  0  0  0
  -24.8779  -28.9317   20.1050 C   0  0  0  0  0  0
  -22.7504  -29.4561   22.4930 C   0  0  0  0  0  0
  -18.0267  -28.1376   22.8470 C   0  0  0  0  0  0
  -24.1465  -36.7266   23.2650 C   0  0  0  0  0  0
  -25.9678  -30.7760   21.3801 C   0  0  0  0  0  0
  -26.0454  -29.3993   20.7262 C   0  0  0  0  0  0
  -27.2209  -28.5852   20.7386 C   0  0  0  0  0  0
  -26.0427  -26.8879   19.4695 C   0  0  0  0  0  0
  -24.8816  -27.6839   19.4614 C   0  0  0  0  0  0
  -23.6436  -29.8121   20.1580 C   0  0  0  0  0  0
  -25.4099  -36.3061   24.0331 C   0  0  1  0  0  0
  -20.5882  -28.3658   23.1268 C   0  0  2  0  0  0
  -20.6750  -26.9371   22.5418 C   0  0  0  0  0  0
  -19.5725  -26.6369   21.5207 C   0  0  0  0  0  0
  -18.1902  -26.7919   22.1622 C   0  0  0  0  0  0
  -19.1535  -28.8839   23.2844 C   0  0  0  0  0  0
  -18.9471  -30.1452   23.8837 C   0  0  0  0  0  0
  -17.6467  -30.6578   24.0545 C   0  0  0  0  0  0
  -25.9045  -34.9440   23.5105 C   0  0  0  0  0  0
  -16.5349  -29.9072   23.6361 C   0  0  0  0  0  0
  -16.7262  -28.6497   23.0359 C   0  0  0  0  0  0
  -26.4459  -31.6598   25.0746 C   0  0  0  0  0  0
  -25.3683  -31.3749   26.1476 C   0  0  0  0  0  0
  -27.0338  -30.3028   24.6238 C   0  0  0  0  0  0
  -27.5996  -32.4370   25.7515 C   0  0  0  0  0  0
  -27.5559  -37.1778   24.8479 C   0  0  0  0  0  0
  -21.4216  -29.2987   22.3658 N   0  0  0  0  0  0
  -26.4275  -37.3764   23.9426 N   0  0  0  0  0  0
  -24.6927  -31.0531   22.0992 N   0  0  0  0  0  0
  -23.4205  -28.8095   23.3016 O   0  0  0  0  0  0
  -28.2736  -26.3511   20.1872 O   0  0  0  0  0  0
  -26.5636  -34.8904   22.4685 O   0  0  0  0  0  0
  -23.5418  -32.1382   23.7316 O   0  0  0  0  0  0
  -26.8041  -24.8878   21.7570 C   0  0  0  0  0  0
  -27.1035  -23.8685   22.8706 C   0  0  0  0  0  0
  -28.1879  -25.2753   21.2243 C   0  0  2  0  0  0
  -28.9984  -23.8753   21.3982 C   0  0  2  0  0  0
  -28.8399  -22.5222   20.5172 C   0  0  0  0  0  0
  -29.9782  -17.2029   20.2404 C   0  0  0  0  0  0
  -29.3715  -21.1312   21.1810 C   0  0  0  0  0  0
  -29.5096  -18.4870   21.0957 C   0  0  0  0  0  0
  -29.8452  -15.7874   20.7913 N   0  0  0  0  0  0
  -28.5375  -23.5202   22.7619 N   0  3  0  0  0  0
  -29.4444  -19.8380   20.3649 N   0  3  0  0  0  0
  -31.4794  -12.5849   19.1286 H   0  0  0  0  0  0
  -30.4257  -11.4465   19.9144 H   0  0  0  0  0  0
  -29.7752  -11.7297   17.5123 H   0  0  0  0  0  0
  -29.6571  -13.4584   17.7145 H   0  0  0  0  0  0
  -27.8418  -11.3125   18.8461 H   0  0  0  0  0  0
  -27.3912  -12.6270   17.7946 H   0  0  0  0  0  0
  -27.6675  -14.2660   19.5268 H   0  0  0  0  0  0
  -28.7374  -12.0919   21.3924 H   0  0  0  0  0  0
  -28.4523  -13.7539   21.8400 H   0  0  0  0  0  0
  -25.2809   -9.5653   22.4736 H   0  0  0  0  0  0
  -24.0008   -7.4632   22.7445 H   0  0  0  0  0  0
  -21.0879   -8.8808   19.8938 H   0  0  0  0  0  0
  -22.3764  -10.9684   19.6147 H   0  0  0  0  0  0
  -21.1977   -7.6141   23.9697 H   0  0  0  0  0  0
  -21.1461   -6.0512   25.9061 H   0  0  0  0  0  0
  -22.0624   -2.7616   23.2819 H   0  0  0  0  0  0
  -22.4166  -11.9852   22.4769 H   0  0  0  0  0  0
  -21.1133  -13.1181   22.2610 H   0  0  0  0  0  0
  -24.6790  -15.8603   20.5356 H   0  0  0  0  0  0
  -26.2779  -15.6177   20.0528 H   0  0  0  0  0  0
  -26.7168  -32.5421   23.1094 H   0  0  0  0  0  0
  -25.0002  -33.9684   25.0375 H   0  0  0  0  0  0
  -22.7181  -31.2949   21.4002 H   0  0  0  0  0  0
  -23.3731  -35.9597   23.3348 H   0  0  0  0  0  0
  -24.3534  -36.8874   22.2058 H   0  0  0  0  0  0
  -23.7222  -37.6472   23.6674 H   0  0  0  0  0  0
  -26.1050  -31.5373   20.6108 H   0  0  0  0  0  0
  -26.8437  -30.8260   22.0156 H   0  0  0  0  0  0
  -28.1137  -28.9275   21.2406 H   0  0  0  0  0  0
  -26.0100  -25.9263   18.9749 H   0  0  0  0  0  0
  -23.9938  -27.3281   18.9555 H   0  0  0  0  0  0
  -23.7548  -30.5914   19.4022 H   0  0  0  0  0  0
  -22.7623  -29.2407   19.8597 H   0  0  0  0  0  0
  -25.1270  -36.1911   25.0825 H   0  0  0  0  0  0
  -20.9936  -28.3243   24.1405 H   0  0  0  0  0  0
  -20.5666  -26.2241   23.3617 H   0  0  0  0  0  0
  -21.6612  -26.7410   22.1188 H   0  0  0  0  0  0
  -19.6893  -25.6284   21.1240 H   0  0  0  0  0  0
  -19.6688  -27.3169   20.6723 H   0  0  0  0  0  0
  -17.4176  -26.6655   21.4022 H   0  0  0  0  0  0
  -18.0284  -26.0070   22.9027 H   0  0  0  0  0  0
  -19.7958  -30.7270   24.2181 H   0  0  0  0  0  0
  -17.5039  -31.6266   24.5133 H   0  0  0  0  0  0
  -15.5348  -30.2945   23.7745 H   0  0  0  0  0  0
  -15.8659  -28.0810   22.7103 H   0  0  0  0  0  0
  -24.5838  -30.7109   25.7826 H   0  0  0  0  0  0
  -24.8865  -32.2909   26.4910 H   0  0  0  0  0  0
  -25.7976  -30.8934   27.0272 H   0  0  0  0  0  0
  -26.2919  -29.6732   24.1310 H   0  0  0  0  0  0
  -27.4068  -29.7326   25.4756 H   0  0  0  0  0  0
  -27.8768  -30.4320   23.9444 H   0  0  0  0  0  0
  -27.2587  -33.3685   26.2046 H   0  0  0  0  0  0
  -28.3811  -32.6926   25.0355 H   0  0  0  0  0  0
  -28.0662  -31.8556   26.5478 H   0  0  0  0  0  0
  -28.2579  -38.0062   24.7499 H   0  0  0  0  0  0
  -28.1028  -36.2588   24.6330 H   0  0  0  0  0  0
  -27.2263  -37.1459   25.8874 H   0  0  0  0  0  0
  -20.9416  -29.8704   21.6855 H   0  0  0  0  0  0
  -26.0151  -38.2835   24.1457 H   0  0  0  0  0  0
  -26.2441  -25.7371   22.1496 H   0  0  0  0  0  0
  -26.2136  -24.4266   20.9673 H   0  0  0  0  0  0
  -26.4770  -22.9820   22.7507 H   0  0  0  0  0  0
  -26.9020  -24.2778   23.8611 H   0  0  0  0  0  0
  -28.6101  -25.8769   22.0342 H   0  0  0  0  0  0
  -30.0663  -24.0970   21.4505 H   0  0  0  0  0  0
  -29.3498  -22.6762   19.5659 H   0  0  0  0  0  0
  -27.7883  -22.3943   20.2561 H   0  0  0  0  0  0
  -31.0123  -17.3584   19.9349 H   0  0  0  0  0  0
  -29.4005  -17.2015   19.3162 H   0  0  0  0  0  0
  -28.7567  -20.9168   22.0555 H   0  0  0  0  0  0
  -30.3773  -21.2996   21.5673 H   0  0  0  0  0  0
  -30.1849  -18.5929   21.9461 H   0  0  0  0  0  0
  -28.5229  -18.3026   21.5228 H   0  0  0  0  0  0
  -28.9468  -15.5530   21.1868 H   0  0  0  0  0  0
  -28.7011  -22.5601   23.0124 H   0  0  0  0  0  0
  -29.0382  -24.0879   23.4304 H   0  0  0  0  0  0
  -30.2649  -19.9022   19.7849 H   0  0  0  0  0  0
  -28.6476  -19.8062   19.7493 H   0  0  0  0  0  0
  1 25  1  0  0  0
  1 30  2  0  0  0
  1 79  1  0  0  0
  2  3  1  0  0  0
  2 25  1  0  0  0
  2 82  1  0  0  0
  2 83  1  0  0  0
  3  4  1  0  0  0
  3 84  1  0  0  0
  3 85  1  0  0  0
  4  5  1  0  0  0
  4 86  1  0  0  0
  4 87  1  0  0  0
  5  6  1  0  0  0
  5 26  1  0  0  0
  5 88  1  0  0  0
  6 25  1  0  0  0
  6 89  1  0  0  0
  6 90  1  0  0  0
  7  8  2  0  0  0
  7 26  1  0  0  0
  7 29  1  0  0  0
  8  9  1  0  0  0
  8 22  1  0  0  0
  9 10  1  0  0  0
  9 27  2  0  0  0
 10 11  2  0  0  0
 10 15  1  0  0  0
 11 12  1  0  0  0
 11 91  1  0  0  0
 12 13  2  0  0  0
 12 92  1  0  0  0
 13 14  1  0  0  0
 13 31  1  0  0  0
 14 15  2  0  0  0
 14 93  1  0  0  0
 15 94  1  0  0  0
 16 17  2  0  0  0
 16 21  1  0  0  0
 16 31  1  0  0  0
 17 18  1  0  0  0
 17 95  1  0  0  0
 18 19  2  0  0  0
 18 96  1  0  0  0
 19 20  1  0  0  0
 19 24  1  0  0  0
 20 21  2  0  0  0
 20 97  1  0  0  0
 21 23  1  0  0  0
 22 28  1  0  0  0
 22 32  2  0  0  0
 26 27  1  0  0  0
 28 98  1  0  0  0
 28 99  1  0  0  0
 29100  1  0  0  0
 29101  1  0  0  0
 33 34  1  0  0  0
 33 66  1  0  0  0
 33 70  2  0  0  0
 34 36  1  0  0  0
 34 59  1  0  0  0
 34102  1  0  0  0
 35 44  2  0  0  0
 35 45  1  0  0  0
 35 68  1  0  0  0
 36 56  1  0  0  0
 36103  1  0  0  0
 37 39  1  0  0  0
 37 47  1  0  0  0
 37 66  1  0  0  0
 37104  1  0  0  0
 38 43  2  0  0  0
 38 46  1  0  0  0
 38 47  1  0  0  0
 39 64  1  0  0  0
 39 67  2  0  0  0
 40 52  1  0  0  0
 40 53  2  0  0  0
 40 58  1  0  0  0
 41105  1  0  0  0
 41106  1  0  0  0
 41107  1  0  0  0
 41 48  1  0  0  0
 42 43  1  0  0  0
 42 66  1  0  0  0
 42108  1  0  0  0
 42109  1  0  0  0
 43 44  1  0  0  0
 44110  1  0  0  0
 45 46  2  0  0  0
 45111  1  0  0  0
 46112  1  0  0  0
 47113  1  0  0  0
 47114  1  0  0  0
 48 56  1  0  0  0
 48 65  1  0  0  0
 48115  1  0  0  0
 49 50  1  0  0  0
 49 53  1  0  0  0
 49 64  1  0  0  0
 49116  1  0  0  0
 50 51  1  0  0  0
 50117  1  0  0  0
 50118  1  0  0  0
 51 52  1  0  0  0
 51119  1  0  0  0
 51120  1  0  0  0
 52121  1  0  0  0
 52122  1  0  0  0
 53 54  1  0  0  0
 54 55  2  0  0  0
 54123  1  0  0  0
 55 57  1  0  0  0
 55124  1  0  0  0
 56 69  2  0  0  0
 57 58  2  0  0  0
 57125  1  0  0  0
 58126  1  0  0  0
 59 60  1  0  0  0
 59 61  1  0  0  0
 59 62  1  0  0  0
 60127  1  0  0  0
 60128  1  0  0  0
 60129  1  0  0  0
 61130  1  0  0  0
 61131  1  0  0  0
 61132  1  0  0  0
 62133  1  0  0  0
 62134  1  0  0  0
 62135  1  0  0  0
 63 65  1  0  0  0
 63136  1  0  0  0
 63137  1  0  0  0
 63138  1  0  0  0
 64139  1  0  0  0
 65140  1  0  0  0
 68 73  1  0  0  0
 71 72  1  0  0  0
 71 73  1  0  0  0
 71141  1  0  0  0
 71142  1  0  0  0
 72 80  1  0  0  0
 72143  1  0  0  0
 72144  1  0  0  0
 73 74  1  0  0  0
 73145  1  0  0  0
 74 75  1  0  0  0
 74 80  1  0  0  0
 74146  1  0  0  0
 75 77  1  0  0  0
 75147  1  0  0  0
 75148  1  0  0  0
 76 78  1  0  0  0
 76 79  1  0  0  0
 76149  1  0  0  0
 76150  1  0  0  0
 77 81  1  0  0  0
 77151  1  0  0  0
 77152  1  0  0  0
 78 81  1  0  0  0
 78153  1  0  0  0
 78154  1  0  0  0
 79155  1  0  0  0
 80156  1  0  0  0
 80157  1  0  0  0
 81158  1  0  0  0
 81159  1  0  0  0
M  CHG  2  80   1  81   1
M  ISO  4   1 100  68 101  73 101  79 100
M  END
> <chiral flag>
0

> <version>
0

> <s_m_source_file>
/data/baiqing/PycharmProjects/Reinvent-master-3.2/result/LINK_invent/BTK/process_docking_weight1_custom_sum_contain_oxygen_bond_distance_aromatic_linkinvent_7_9_3/rearranged_h_0133.sdf

> <i_m_source_file_index>
39

> <r_mmod_Potential_Energy-OPLS-2005>
-74.2058792114258

> <r_mmod_Stretch_Energy-OPLS-2005>
114.590560913086

> <r_mmod_Bend_Energy-OPLS-2005>
239.819320678711

> <r_mmod_Torsional_Energy-OPLS-2005>
312.204345703125

> <r_mmod_Improper_Torsional_Energy-OPLS-2005>
6.40423727035522

> <r_mmod_Van_der_Waal_Energy-OPLS-2005>
117.911155700684

> <r_mmod_Electrostatic_Energy-OPLS-2005>
81.2885284423828

> <r_mmod_Solvation_Energy-OPLS-2005>
-1017.97631835938

> <b_mmod_Minimization_Converged-OPLS-2005>
0

> <r_mmod_RMS_Derivative-OPLS-2005>
3.11603856086731

$$$$
40
                    3D
 Structure written by MMmdl.
161169  0  0  1  0            999 V2000
  -30.7722  -14.3736   20.7006 C   0  0  0  0  0  0
  -30.4148  -12.3044   19.3960 C   0  0  0  0  0  0
  -29.4811  -12.5320   18.1927 C   0  0  0  0  0  0
  -28.0073  -12.3778   18.6113 C   0  0  0  0  0  0
  -27.6631  -13.2045   19.8777 C   0  0  2  0  0  0
  -28.7007  -12.9576   20.9942 C   0  0  0  0  0  0
  -25.2592  -13.8159   20.5677 C   0  0  0  0  0  0
  -24.1834  -13.0442   20.9166 C   0  0  0  0  0  0
  -24.6383  -11.6905   20.8725 C   0  0  0  0  0  0
  -23.9046  -10.4292   21.0398 C   0  0  0  0  0  0
  -24.3599   -9.4213   21.9182 C   0  0  0  0  0  0
  -23.6280   -8.2248   22.0754 C   0  0  0  0  0  0
  -22.4263   -8.0280   21.3543 C   0  0  0  0  0  0
  -21.9896   -9.0250   20.4643 C   0  0  0  0  0  0
  -22.7218  -10.2132   20.3050 C   0  0  0  0  0  0
  -21.6851   -6.0729   22.5276 C   0  0  0  0  0  0
  -21.4011   -6.5635   23.8210 C   0  0  0  0  0  0
  -21.3663   -5.6787   24.9173 C   0  0  0  0  0  0
  -21.6047   -4.3050   24.7222 C   0  0  0  0  0  0
  -21.8820   -3.8140   23.4346 C   0  0  0  0  0  0
  -21.9191   -4.6954   22.3401 C   0  0  0  0  0  0
  -22.7861  -13.5242   21.1838 C   0  0  0  0  0  0
  -22.1659   -4.2140   21.0977 F   0  0  0  0  0  0
  -21.5638   -3.4537   25.7736 F   0  0  0  0  0  0
  -30.0423  -13.2536   20.4568 N   0  0  0  0  0  0
  -26.3027  -12.9325   20.3372 N   0  0  0  0  0  0
  -25.9308  -11.6486   20.5753 N   0  0  0  0  0  0
  -22.0503  -12.8234   22.0394 N   0  0  0  0  0  0
  -25.4326  -15.1876   20.4083 N   0  0  0  0  0  0
  -31.7967  -14.6618   20.0747 O   0  0  0  0  0  0
  -21.6639   -6.8871   21.4236 O   0  0  0  0  0  0
  -22.3545  -14.5549   20.6688 O   0  0  0  0  0  0
  -24.6145  -31.8686   23.2139 C   0  0  0  0  0  0
  -25.9045  -32.4828   23.8421 C   0  0  1  0  0  0
  -27.2286  -27.4361   20.0863 C   0  0  0  0  0  0
  -25.5895  -33.8628   24.2342 N   0  0  0  0  0  0
  -23.4005  -30.4966   21.5553 C   0  0  2  0  0  0
  -24.8431  -28.9687   20.1148 C   0  0  0  0  0  0
  -22.7404  -29.4671   22.5002 C   0  0  0  0  0  0
  -18.0267  -28.1385   22.8487 C   0  0  0  0  0  0
  -24.1481  -36.7326   23.2643 C   0  0  0  0  0  0
  -25.9321  -30.8333   21.3695 C   0  0  0  0  0  0
  -26.0060  -29.4712   20.7112 C   0  0  0  0  0  0
  -27.1996  -28.7121   20.6959 C   0  0  0  0  0  0
  -26.0405  -26.9548   19.4802 C   0  0  0  0  0  0
  -24.8551  -27.7085   19.4989 C   0  0  0  0  0  0
  -23.6061  -29.8352   20.1685 C   0  0  0  0  0  0
  -25.4104  -36.3118   24.0340 C   0  0  1  0  0  0
  -20.5860  -28.3668   23.1323 C   0  0  2  0  0  0
  -20.6756  -26.9397   22.5434 C   0  0  0  0  0  0
  -19.5742  -26.6386   21.5218 C   0  0  0  0  0  0
  -18.1912  -26.7934   22.1616 C   0  0  0  0  0  0
  -19.1518  -28.8838   23.2900 C   0  0  0  0  0  0
  -18.9445  -30.1443   23.8909 C   0  0  0  0  0  0
  -17.6448  -30.6583   24.0573 C   0  0  0  0  0  0
  -25.9025  -34.9481   23.5136 C   0  0  0  0  0  0
  -16.5340  -29.9087   23.6328 C   0  0  0  0  0  0
  -16.7255  -28.6508   23.0343 C   0  0  0  0  0  0
  -26.4474  -31.6604   25.0752 C   0  0  0  0  0  0
  -25.3729  -31.3673   26.1478 C   0  0  0  0  0  0
  -27.0350  -30.3058   24.6152 C   0  0  0  0  0  0
  -27.6033  -32.4347   25.7517 C   0  0  0  0  0  0
  -27.5586  -37.1810   24.8461 C   0  0  0  0  0  0
  -21.4132  -29.3033   22.3727 N   0  0  0  0  0  0
  -26.4296  -37.3801   23.9414 N   0  0  0  0  0  0
  -24.6676  -31.0796   22.1040 N   0  0  0  0  0  0
  -23.4176  -28.8208   23.3039 O   0  0  0  0  0  0
  -28.4017  -26.7011   20.1099 O   0  0  0  0  0  0
  -26.5588  -34.8928   22.4699 O   0  0  0  0  0  0
  -23.5342  -32.1450   23.7537 O   0  0  0  0  0  0
  -30.7858  -20.4604   21.3167 C   0  0  0  0  0  0
  -30.6369  -21.7203   20.7057 C   0  0  0  0  0  0
  -28.5263  -19.8764   20.6500 C   0  0  0  0  0  0
  -28.3587  -21.1362   20.0175 C   0  0  0  0  0  0
  -29.7354  -19.5185   21.2770 C   0  0  0  0  0  0
  -29.4410  -22.0626   20.0376 C   0  0  0  0  0  0
  -27.0602  -21.4492   19.3320 C   0  0  0  0  0  0
  -25.8950  -20.4829   19.5300 C   0  0  0  0  0  0
  -31.1019  -17.5155   21.6366 C   0  0  0  0  0  0
  -31.1237  -16.1743   22.3931 C   0  0  0  0  0  0
  -28.3017  -25.3207   19.7322 C   0  0  0  0  0  0
  -29.5367  -24.4668   20.0648 C   0  0  0  0  0  0
  -29.8488  -18.2360   21.8392 N   0  0  0  0  0  0
  -30.3536  -15.1188   21.7338 N   0  0  0  0  0  0
  -26.8623  -22.4450   18.6309 O   0  0  0  0  0  0
  -29.3766  -23.2466   19.3389 O   0  0  0  0  0  0
  -31.4569  -12.4075   19.0888 H   0  0  0  0  0  0
  -30.3163  -11.2829   19.7659 H   0  0  0  0  0  0
  -29.7174  -11.8298   17.3920 H   0  0  0  0  0  0
  -29.6445  -13.5301   17.7836 H   0  0  0  0  0  0
  -27.8210  -11.3192   18.7972 H   0  0  0  0  0  0
  -27.3503  -12.6607   17.7882 H   0  0  0  0  0  0
  -27.7184  -14.2568   19.5996 H   0  0  0  0  0  0
  -28.6668  -11.9160   21.3168 H   0  0  0  0  0  0
  -28.4416  -13.5396   21.8784 H   0  0  0  0  0  0
  -25.2739   -9.5699   22.4762 H   0  0  0  0  0  0
  -23.9988   -7.4644   22.7477 H   0  0  0  0  0  0
  -21.0832   -8.8760   19.8948 H   0  0  0  0  0  0
  -22.3666  -10.9668   19.6161 H   0  0  0  0  0  0
  -21.2000   -7.6143   23.9706 H   0  0  0  0  0  0
  -21.1494   -6.0521   25.9076 H   0  0  0  0  0  0
  -22.0600   -2.7603   23.2847 H   0  0  0  0  0  0
  -22.4107  -11.9881   22.4763 H   0  0  0  0  0  0
  -21.1124  -13.1263   22.2602 H   0  0  0  0  0  0
  -24.6717  -15.8487   20.5168 H   0  0  0  0  0  0
  -26.2953  -15.6218   20.1051 H   0  0  0  0  0  0
  -26.7111  -32.5539   23.1178 H   0  0  0  0  0  0
  -25.0023  -33.9784   25.0464 H   0  0  0  0  0  0
  -22.6891  -31.3142   21.4219 H   0  0  0  0  0  0
  -23.3752  -35.9649   23.3300 H   0  0  0  0  0  0
  -24.3562  -36.8960   22.2059 H   0  0  0  0  0  0
  -23.7219  -37.6517   23.6670 H   0  0  0  0  0  0
  -26.0492  -31.6023   20.6054 H   0  0  0  0  0  0
  -26.8180  -30.8796   21.9910 H   0  0  0  0  0  0
  -28.0961  -29.0958   21.1626 H   0  0  0  0  0  0
  -25.9957  -25.9975   18.9823 H   0  0  0  0  0  0
  -23.9613  -27.3142   19.0342 H   0  0  0  0  0  0
  -23.7132  -30.6129   19.4115 H   0  0  0  0  0  0
  -22.7290  -29.2567   19.8735 H   0  0  0  0  0  0
  -25.1276  -36.1986   25.0833 H   0  0  0  0  0  0
  -20.9949  -28.3251   24.1449 H   0  0  0  0  0  0
  -20.5652  -26.2272   23.3627 H   0  0  0  0  0  0
  -21.6630  -26.7450   22.1233 H   0  0  0  0  0  0
  -19.6900  -25.6303   21.1226 H   0  0  0  0  0  0
  -19.6689  -27.3211   20.6757 H   0  0  0  0  0  0
  -17.4200  -26.6714   21.3987 H   0  0  0  0  0  0
  -18.0275  -26.0065   22.8993 H   0  0  0  0  0  0
  -19.7929  -30.7244   24.2282 H   0  0  0  0  0  0
  -17.5016  -31.6257   24.5183 H   0  0  0  0  0  0
  -15.5339  -30.2983   23.7655 H   0  0  0  0  0  0
  -15.8663  -28.0826   22.7044 H   0  0  0  0  0  0
  -24.6016  -30.6879   25.7833 H   0  0  0  0  0  0
  -24.8767  -32.2791   26.4817 H   0  0  0  0  0  0
  -25.8100  -30.8979   27.0299 H   0  0  0  0  0  0
  -26.2929  -29.6778   24.1217 H   0  0  0  0  0  0
  -27.4141  -29.7329   25.4624 H   0  0  0  0  0  0
  -27.8740  -30.4403   23.9323 H   0  0  0  0  0  0
  -27.2639  -33.3647   26.2096 H   0  0  0  0  0  0
  -28.3828  -32.6908   25.0329 H   0  0  0  0  0  0
  -28.0723  -31.8483   26.5429 H   0  0  0  0  0  0
  -28.2589  -38.0124   24.7534 H   0  0  0  0  0  0
  -28.1092  -36.2654   24.6257 H   0  0  0  0  0  0
  -27.2296  -37.1423   25.8860 H   0  0  0  0  0  0
  -20.9282  -29.8753   21.6954 H   0  0  0  0  0  0
  -26.0192  -38.2878   24.1446 H   0  0  0  0  0  0
  -31.7220  -20.2358   21.8063 H   0  0  0  0  0  0
  -31.4665  -22.4132   20.7193 H   0  0  0  0  0  0
  -27.7287  -19.1489   20.6370 H   0  0  0  0  0  0
  -26.1045  -19.5271   19.0509 H   0  0  0  0  0  0
  -24.9863  -20.8921   19.0896 H   0  0  0  0  0  0
  -25.7123  -20.3160   20.5912 H   0  0  0  0  0  0
  -31.2890  -17.3694   20.5714 H   0  0  0  0  0  0
  -31.9295  -18.1154   22.0155 H   0  0  0  0  0  0
  -30.7664  -16.3004   23.4168 H   0  0  0  0  0  0
  -32.1590  -15.8380   22.4856 H   0  0  0  0  0  0
  -27.4473  -24.8482   20.2195 H   0  0  0  0  0  0
  -28.1332  -25.2779   18.6549 H   0  0  0  0  0  0
  -29.6207  -24.3175   21.1431 H   0  0  0  0  0  0
  -30.4469  -24.9618   19.7257 H   0  0  0  0  0  0
  -29.0196  -17.6516   21.7775 H   0  0  0  0  0  0
  -29.5076  -14.8158   22.1926 H   0  0  0  0  0  0
  1 25  1  0  0  0
  1 30  2  0  0  0
  1 84  1  0  0  0
  2  3  1  0  0  0
  2 25  1  0  0  0
  2 87  1  0  0  0
  2 88  1  0  0  0
  3  4  1  0  0  0
  3 89  1  0  0  0
  3 90  1  0  0  0
  4  5  1  0  0  0
  4 91  1  0  0  0
  4 92  1  0  0  0
  5  6  1  0  0  0
  5 26  1  0  0  0
  5 93  1  0  0  0
  6 25  1  0  0  0
  6 94  1  0  0  0
  6 95  1  0  0  0
  7  8  2  0  0  0
  7 26  1  0  0  0
  7 29  1  0  0  0
  8  9  1  0  0  0
  8 22  1  0  0  0
  9 10  1  0  0  0
  9 27  2  0  0  0
 10 11  2  0  0  0
 10 15  1  0  0  0
 11 12  1  0  0  0
 11 96  1  0  0  0
 12 13  2  0  0  0
 12 97  1  0  0  0
 13 14  1  0  0  0
 13 31  1  0  0  0
 14 15  2  0  0  0
 14 98  1  0  0  0
 15 99  1  0  0  0
 16 17  2  0  0  0
 16 21  1  0  0  0
 16 31  1  0  0  0
 17 18  1  0  0  0
 17100  1  0  0  0
 18 19  2  0  0  0
 18101  1  0  0  0
 19 20  1  0  0  0
 19 24  1  0  0  0
 20 21  2  0  0  0
 20102  1  0  0  0
 21 23  1  0  0  0
 22 28  1  0  0  0
 22 32  2  0  0  0
 26 27  1  0  0  0
 28103  1  0  0  0
 28104  1  0  0  0
 29105  1  0  0  0
 29106  1  0  0  0
 33 34  1  0  0  0
 33 66  1  0  0  0
 33 70  2  0  0  0
 34 36  1  0  0  0
 34 59  1  0  0  0
 34107  1  0  0  0
 35 44  2  0  0  0
 35 45  1  0  0  0
 35 68  1  0  0  0
 36 56  1  0  0  0
 36108  1  0  0  0
 37 39  1  0  0  0
 37 47  1  0  0  0
 37 66  1  0  0  0
 37109  1  0  0  0
 38 43  2  0  0  0
 38 46  1  0  0  0
 38 47  1  0  0  0
 39 64  1  0  0  0
 39 67  2  0  0  0
 40 52  1  0  0  0
 40 53  2  0  0  0
 40 58  1  0  0  0
 41110  1  0  0  0
 41111  1  0  0  0
 41112  1  0  0  0
 41 48  1  0  0  0
 42 43  1  0  0  0
 42 66  1  0  0  0
 42113  1  0  0  0
 42114  1  0  0  0
 43 44  1  0  0  0
 44115  1  0  0  0
 45 46  2  0  0  0
 45116  1  0  0  0
 46117  1  0  0  0
 47118  1  0  0  0
 47119  1  0  0  0
 48 56  1  0  0  0
 48 65  1  0  0  0
 48120  1  0  0  0
 49 50  1  0  0  0
 49 53  1  0  0  0
 49 64  1  0  0  0
 49121  1  0  0  0
 50 51  1  0  0  0
 50122  1  0  0  0
 50123  1  0  0  0
 51 52  1  0  0  0
 51124  1  0  0  0
 51125  1  0  0  0
 52126  1  0  0  0
 52127  1  0  0  0
 53 54  1  0  0  0
 54 55  2  0  0  0
 54128  1  0  0  0
 55 57  1  0  0  0
 55129  1  0  0  0
 56 69  2  0  0  0
 57 58  2  0  0  0
 57130  1  0  0  0
 58131  1  0  0  0
 59 60  1  0  0  0
 59 61  1  0  0  0
 59 62  1  0  0  0
 60132  1  0  0  0
 60133  1  0  0  0
 60134  1  0  0  0
 61135  1  0  0  0
 61136  1  0  0  0
 61137  1  0  0  0
 62138  1  0  0  0
 62139  1  0  0  0
 62140  1  0  0  0
 63 65  1  0  0  0
 63141  1  0  0  0
 63142  1  0  0  0
 63143  1  0  0  0
 64144  1  0  0  0
 65145  1  0  0  0
 68 81  1  0  0  0
 71 72  2  0  0  0
 71 75  1  0  0  0
 71146  1  0  0  0
 72 76  1  0  0  0
 72147  1  0  0  0
 73 74  1  0  0  0
 73 75  2  0  0  0
 73148  1  0  0  0
 74 76  2  0  0  0
 74 77  1  0  0  0
 75 83  1  0  0  0
 76 86  1  0  0  0
 77 78  1  0  0  0
 77 85  2  0  0  0
 78149  1  0  0  0
 78150  1  0  0  0
 78151  1  0  0  0
 79 80  1  0  0  0
 79 83  1  0  0  0
 79152  1  0  0  0
 79153  1  0  0  0
 80 84  1  0  0  0
 80154  1  0  0  0
 80155  1  0  0  0
 81 82  1  0  0  0
 81156  1  0  0  0
 81157  1  0  0  0
 82 86  1  0  0  0
 82158  1  0  0  0
 82159  1  0  0  0
 83160  1  0  0  0
 84161  1  0  0  0
M  ISO  4   1 100  68 101  81 101  84 100
M  END
> <chiral flag>
0

> <version>
0

> <s_m_source_file>
/data/baiqing/PycharmProjects/Reinvent-master-3.2/result/LINK_invent/BTK/process_docking_weight1_custom_sum_contain_oxygen_bond_distance_aromatic_linkinvent_7_9_3/rearranged_h_0133.sdf

> <i_m_source_file_index>
40

> <r_mmod_Potential_Energy-OPLS-2005>
-140.346054077148

> <r_mmod_Stretch_Energy-OPLS-2005>
36.662956237793

> <r_mmod_Bend_Energy-OPLS-2005>
100.420066833496

> <r_mmod_Torsional_Energy-OPLS-2005>
248.565505981445

> <r_mmod_Improper_Torsional_Energy-OPLS-2005>
5.98371124267578

> <r_mmod_Van_der_Waal_Energy-OPLS-2005>
166.253692626953

> <r_mmod_Electrostatic_Energy-OPLS-2005>
-470.286010742188

> <r_mmod_Solvation_Energy-OPLS-2005>
-237.164367675781

> <b_mmod_Minimization_Converged-OPLS-2005>
0

> <r_mmod_RMS_Derivative-OPLS-2005>
1.08973038196564

$$$$
41
                    3D
 Structure written by MMmdl.
160168  0  0  1  0            999 V2000
  -30.6802  -14.6356   20.4917 C   0  0  0  0  0  0
  -30.4224  -12.3883   19.4572 C   0  0  0  0  0  0
  -29.4989  -12.4903   18.2254 C   0  0  0  0  0  0
  -28.0246  -12.3310   18.6437 C   0  0  0  0  0  0
  -27.6463  -13.2235   19.8565 C   0  0  2  0  0  0
  -28.6955  -13.1281   20.9883 C   0  0  0  0  0  0
  -25.2531  -13.8183   20.5714 C   0  0  0  0  0  0
  -24.1804  -13.0436   20.9206 C   0  0  0  0  0  0
  -24.6389  -11.6915   20.8749 C   0  0  0  0  0  0
  -23.9059  -10.4293   21.0403 C   0  0  0  0  0  0
  -24.3611   -9.4214   21.9186 C   0  0  0  0  0  0
  -23.6297   -8.2244   22.0757 C   0  0  0  0  0  0
  -22.4277   -8.0274   21.3541 C   0  0  0  0  0  0
  -21.9909   -9.0241   20.4641 C   0  0  0  0  0  0
  -22.7231  -10.2129   20.3054 C   0  0  0  0  0  0
  -21.6854   -6.0726   22.5287 C   0  0  0  0  0  0
  -21.4008   -6.5636   23.8215 C   0  0  0  0  0  0
  -21.3661   -5.6794   24.9184 C   0  0  0  0  0  0
  -21.6048   -4.3059   24.7238 C   0  0  0  0  0  0
  -21.8813   -3.8143   23.4360 C   0  0  0  0  0  0
  -21.9192   -4.6952   22.3414 C   0  0  0  0  0  0
  -22.7826  -13.5220   21.1891 C   0  0  0  0  0  0
  -22.1659   -4.2134   21.0988 F   0  0  0  0  0  0
  -21.5639   -3.4550   25.7755 F   0  0  0  0  0  0
  -30.0073  -13.4437   20.4054 N   0  0  0  0  0  0
  -26.2960  -12.9383   20.3328 N   0  0  0  0  0  0
  -25.9321  -11.6533   20.5781 N   0  0  0  0  0  0
  -22.0485  -12.8174   22.0429 N   0  0  0  0  0  0
  -25.4224  -15.1916   20.4138 N   0  0  0  0  0  0
  -31.8578  -14.7224   20.1392 O   0  0  0  0  0  0
  -21.6650   -6.8864   21.4240 O   0  0  0  0  0  0
  -22.3506  -14.5533   20.6754 O   0  0  0  0  0  0
  -24.6279  -31.8606   23.2076 C   0  0  0  0  0  0
  -25.9130  -32.4775   23.8393 C   0  0  1  0  0  0
  -27.2028  -27.2973   20.1070 C   0  0  0  0  0  0
  -25.5960  -33.8578   24.2304 N   0  0  0  0  0  0
  -23.4208  -30.4924   21.5508 C   0  0  2  0  0  0
  -24.8611  -28.9576   20.1088 C   0  0  0  0  0  0
  -22.7476  -29.4667   22.4944 C   0  0  0  0  0  0
  -18.0286  -28.1409   22.8499 C   0  0  0  0  0  0
  -24.1494  -36.7289   23.2647 C   0  0  0  0  0  0
  -25.9688  -30.7817   21.3861 C   0  0  0  0  0  0
  -26.0364  -29.4118   20.7221 C   0  0  0  0  0  0
  -27.2088  -28.5927   20.7194 C   0  0  0  0  0  0
  -26.0056  -26.9286   19.4385 C   0  0  0  0  0  0
  -24.8504  -27.7214   19.4592 C   0  0  0  0  0  0
  -23.6314  -29.8394   20.1642 C   0  0  0  0  0  0
  -25.4112  -36.3082   24.0334 C   0  0  1  0  0  0
  -20.5898  -28.3730   23.1266 C   0  0  2  0  0  0
  -20.6792  -26.9450   22.5400 C   0  0  0  0  0  0
  -19.5757  -26.6403   21.5226 C   0  0  0  0  0  0
  -18.1937  -26.7959   22.1624 C   0  0  0  0  0  0
  -19.1547  -28.8878   23.2881 C   0  0  0  0  0  0
  -18.9469  -30.1487   23.8895 C   0  0  0  0  0  0
  -17.6472  -30.6614   24.0584 C   0  0  0  0  0  0
  -25.9053  -34.9453   23.5108 C   0  0  0  0  0  0
  -16.5357  -29.9111   23.6361 C   0  0  0  0  0  0
  -16.7274  -28.6528   23.0372 C   0  0  0  0  0  0
  -26.4498  -31.6597   25.0783 C   0  0  0  0  0  0
  -25.3727  -31.3715   26.1524 C   0  0  0  0  0  0
  -27.0359  -30.3022   24.6269 C   0  0  0  0  0  0
  -27.6075  -32.4341   25.7513 C   0  0  0  0  0  0
  -27.5573  -37.1795   24.8464 C   0  0  0  0  0  0
  -21.4189  -29.3089   22.3661 N   0  0  0  0  0  0
  -26.4267  -37.3786   23.9425 N   0  0  0  0  0  0
  -24.6917  -31.0626   22.1036 N   0  0  0  0  0  0
  -23.4180  -28.8186   23.3015 O   0  0  0  0  0  0
  -28.2748  -26.3794   20.1923 O   0  0  0  0  0  0
  -26.5623  -34.8909   22.4674 O   0  0  0  0  0  0
  -23.5437  -32.1410   23.7389 O   0  0  0  0  0  0
  -28.4279  -23.0831   21.5512 C   0  0  0  0  0  0
  -28.8484  -21.7582   21.8399 C   0  0  0  0  0  0
  -28.7422  -23.6941   20.3131 C   0  0  0  0  0  0
  -29.5350  -22.8884   19.4369 C   0  0  0  0  0  0
  -29.5608  -21.0045   20.8843 C   0  0  0  0  0  0
  -29.2591  -22.7829   16.9118 C   0  0  0  0  0  0
  -31.5458  -23.2939   17.9375 C   0  0  0  0  0  0
  -27.9396  -24.9691   19.8510 C   0  0  0  0  0  0
  -29.6457  -18.4275   20.5328 C   0  0  0  0  0  0
  -30.5377  -17.1649   20.9341 C   0  0  0  0  0  0
  -30.0179  -23.4202   18.0866 C   0  0  0  0  0  0
  -29.8965  -21.5857   19.7083 N   0  0  0  0  0  0
  -30.0452  -19.6996   21.2059 N   0  0  0  0  0  0
  -29.9755  -15.7697   20.7992 N   0  0  0  0  0  0
  -31.4679  -12.4786   19.1569 H   0  0  0  0  0  0
  -30.3309  -11.4051   19.9232 H   0  0  0  0  0  0
  -29.7619  -11.7281   17.4908 H   0  0  0  0  0  0
  -29.6394  -13.4531   17.7325 H   0  0  0  0  0  0
  -27.8668  -11.2801   18.8937 H   0  0  0  0  0  0
  -27.3663  -12.5385   17.7994 H   0  0  0  0  0  0
  -27.6522  -14.2499   19.4903 H   0  0  0  0  0  0
  -28.7078  -12.1274   21.4233 H   0  0  0  0  0  0
  -28.4515  -13.8104   21.8044 H   0  0  0  0  0  0
  -25.2755   -9.5706   22.4755 H   0  0  0  0  0  0
  -24.0020   -7.4635   22.7475 H   0  0  0  0  0  0
  -21.0849   -8.8734   19.8943 H   0  0  0  0  0  0
  -22.3677  -10.9649   19.6158 H   0  0  0  0  0  0
  -21.1978   -7.6143   23.9710 H   0  0  0  0  0  0
  -21.1497   -6.0534   25.9083 H   0  0  0  0  0  0
  -22.0584   -2.7606   23.2874 H   0  0  0  0  0  0
  -22.4126  -11.9824   22.4778 H   0  0  0  0  0  0
  -21.1094  -13.1161   22.2648 H   0  0  0  0  0  0
  -24.6563  -15.8459   20.5326 H   0  0  0  0  0  0
  -26.2736  -15.6344   20.0909 H   0  0  0  0  0  0
  -26.7197  -32.5422   23.1136 H   0  0  0  0  0  0
  -25.0170  -33.9731   25.0487 H   0  0  0  0  0  0
  -22.7155  -31.3146   21.4134 H   0  0  0  0  0  0
  -23.3770  -35.9613   23.3281 H   0  0  0  0  0  0
  -24.3596  -36.8924   22.2068 H   0  0  0  0  0  0
  -23.7215  -37.6467   23.6686 H   0  0  0  0  0  0
  -26.1088  -31.5439   20.6179 H   0  0  0  0  0  0
  -26.8478  -30.8240   22.0176 H   0  0  0  0  0  0
  -28.1012  -28.9262   21.2309 H   0  0  0  0  0  0
  -25.8989  -25.9985   18.9013 H   0  0  0  0  0  0
  -23.9554  -27.3719   18.9621 H   0  0  0  0  0  0
  -23.7455  -30.6230   19.4151 H   0  0  0  0  0  0
  -22.7491  -29.2734   19.8610 H   0  0  0  0  0  0
  -25.1260  -36.1942   25.0823 H   0  0  0  0  0  0
  -21.0004  -28.3333   24.1377 H   0  0  0  0  0  0
  -20.5760  -26.2331   23.3608 H   0  0  0  0  0  0
  -21.6641  -26.7514   22.1145 H   0  0  0  0  0  0
  -19.6931  -25.6311   21.1268 H   0  0  0  0  0  0
  -19.6706  -27.3217   20.6770 H   0  0  0  0  0  0
  -17.4211  -26.6740   21.4026 H   0  0  0  0  0  0
  -18.0321  -26.0069   22.8988 H   0  0  0  0  0  0
  -19.7940  -30.7332   24.2234 H   0  0  0  0  0  0
  -17.5020  -31.6302   24.5194 H   0  0  0  0  0  0
  -15.5364  -30.3027   23.7700 H   0  0  0  0  0  0
  -15.8656  -28.0868   22.7093 H   0  0  0  0  0  0
  -24.5927  -30.7024   25.7864 H   0  0  0  0  0  0
  -24.8900  -32.2874   26.4971 H   0  0  0  0  0  0
  -25.8070  -30.8896   27.0301 H   0  0  0  0  0  0
  -26.2951  -29.6762   24.1299 H   0  0  0  0  0  0
  -27.4041  -29.7292   25.4793 H   0  0  0  0  0  0
  -27.8824  -30.4288   23.9508 H   0  0  0  0  0  0
  -27.2737  -33.3711   26.1987 H   0  0  0  0  0  0
  -28.3933  -32.6790   25.0348 H   0  0  0  0  0  0
  -28.0707  -31.8529   26.5497 H   0  0  0  0  0  0
  -28.2570  -38.0119   24.7562 H   0  0  0  0  0  0
  -28.1073  -36.2648   24.6207 H   0  0  0  0  0  0
  -27.2299  -37.1343   25.8867 H   0  0  0  0  0  0
  -20.9372  -29.8775   21.6836 H   0  0  0  0  0  0
  -26.0144  -38.2852   24.1464 H   0  0  0  0  0  0
  -27.8063  -23.6047   22.2649 H   0  0  0  0  0  0
  -28.5794  -21.3234   22.7934 H   0  0  0  0  0  0
  -28.1865  -22.9536   17.0040 H   0  0  0  0  0  0
  -29.4222  -21.7057   16.8669 H   0  0  0  0  0  0
  -29.5771  -23.2084   15.9598 H   0  0  0  0  0  0
  -32.0565  -23.7883   18.7643 H   0  0  0  0  0  0
  -31.8967  -23.7542   17.0131 H   0  0  0  0  0  0
  -31.8670  -22.2518   17.9300 H   0  0  0  0  0  0
  -26.9617  -24.7540   20.2838 H   0  0  0  0  0  0
  -27.7941  -24.9043   18.7719 H   0  0  0  0  0  0
  -28.6090  -18.2330   20.8091 H   0  0  0  0  0  0
  -29.6548  -18.5702   19.4508 H   0  0  0  0  0  0
  -30.8117  -17.2549   21.9857 H   0  0  0  0  0  0
  -31.4805  -17.2337   20.3885 H   0  0  0  0  0  0
  -29.8246  -24.4920   18.0514 H   0  0  0  0  0  0
  -30.0703  -19.5600   22.2104 H   0  0  0  0  0  0
  -29.0010  -15.6431   21.0268 H   0  0  0  0  0  0
  1 25  1  0  0  0
  1 30  2  0  0  0
  1 84  1  0  0  0
  2  3  1  0  0  0
  2 25  1  0  0  0
  2 85  1  0  0  0
  2 86  1  0  0  0
  3  4  1  0  0  0
  3 87  1  0  0  0
  3 88  1  0  0  0
  4  5  1  0  0  0
  4 89  1  0  0  0
  4 90  1  0  0  0
  5  6  1  0  0  0
  5 26  1  0  0  0
  5 91  1  0  0  0
  6 25  1  0  0  0
  6 92  1  0  0  0
  6 93  1  0  0  0
  7  8  2  0  0  0
  7 26  1  0  0  0
  7 29  1  0  0  0
  8  9  1  0  0  0
  8 22  1  0  0  0
  9 10  1  0  0  0
  9 27  2  0  0  0
 10 11  2  0  0  0
 10 15  1  0  0  0
 11 12  1  0  0  0
 11 94  1  0  0  0
 12 13  2  0  0  0
 12 95  1  0  0  0
 13 14  1  0  0  0
 13 31  1  0  0  0
 14 15  2  0  0  0
 14 96  1  0  0  0
 15 97  1  0  0  0
 16 17  2  0  0  0
 16 21  1  0  0  0
 16 31  1  0  0  0
 17 18  1  0  0  0
 17 98  1  0  0  0
 18 19  2  0  0  0
 18 99  1  0  0  0
 19 20  1  0  0  0
 19 24  1  0  0  0
 20 21  2  0  0  0
 20100  1  0  0  0
 21 23  1  0  0  0
 22 28  1  0  0  0
 22 32  2  0  0  0
 26 27  1  0  0  0
 28101  1  0  0  0
 28102  1  0  0  0
 29103  1  0  0  0
 29104  1  0  0  0
 33 34  1  0  0  0
 33 66  1  0  0  0
 33 70  2  0  0  0
 34 36  1  0  0  0
 34 59  1  0  0  0
 34105  1  0  0  0
 35 44  2  0  0  0
 35 45  1  0  0  0
 35 68  1  0  0  0
 36 56  1  0  0  0
 36106  1  0  0  0
 37 39  1  0  0  0
 37 47  1  0  0  0
 37 66  1  0  0  0
 37107  1  0  0  0
 38 43  2  0  0  0
 38 46  1  0  0  0
 38 47  1  0  0  0
 39 64  1  0  0  0
 39 67  2  0  0  0
 40 52  1  0  0  0
 40 53  2  0  0  0
 40 58  1  0  0  0
 41108  1  0  0  0
 41109  1  0  0  0
 41110  1  0  0  0
 41 48  1  0  0  0
 42 43  1  0  0  0
 42 66  1  0  0  0
 42111  1  0  0  0
 42112  1  0  0  0
 43 44  1  0  0  0
 44113  1  0  0  0
 45 46  2  0  0  0
 45114  1  0  0  0
 46115  1  0  0  0
 47116  1  0  0  0
 47117  1  0  0  0
 48 56  1  0  0  0
 48 65  1  0  0  0
 48118  1  0  0  0
 49 50  1  0  0  0
 49 53  1  0  0  0
 49 64  1  0  0  0
 49119  1  0  0  0
 50 51  1  0  0  0
 50120  1  0  0  0
 50121  1  0  0  0
 51 52  1  0  0  0
 51122  1  0  0  0
 51123  1  0  0  0
 52124  1  0  0  0
 52125  1  0  0  0
 53 54  1  0  0  0
 54 55  2  0  0  0
 54126  1  0  0  0
 55 57  1  0  0  0
 55127  1  0  0  0
 56 69  2  0  0  0
 57 58  2  0  0  0
 57128  1  0  0  0
 58129  1  0  0  0
 59 60  1  0  0  0
 59 61  1  0  0  0
 59 62  1  0  0  0
 60130  1  0  0  0
 60131  1  0  0  0
 60132  1  0  0  0
 61133  1  0  0  0
 61134  1  0  0  0
 61135  1  0  0  0
 62136  1  0  0  0
 62137  1  0  0  0
 62138  1  0  0  0
 63 65  1  0  0  0
 63139  1  0  0  0
 63140  1  0  0  0
 63141  1  0  0  0
 64142  1  0  0  0
 65143  1  0  0  0
 68 78  1  0  0  0
 71 72  2  0  0  0
 71 73  1  0  0  0
 71144  1  0  0  0
 72 75  1  0  0  0
 72145  1  0  0  0
 73 74  2  0  0  0
 73 78  1  0  0  0
 74 81  1  0  0  0
 74 82  1  0  0  0
 75 82  2  0  0  0
 75 83  1  0  0  0
 76146  1  0  0  0
 76147  1  0  0  0
 76148  1  0  0  0
 76 81  1  0  0  0
 77 81  1  0  0  0
 77149  1  0  0  0
 77150  1  0  0  0
 77151  1  0  0  0
 78152  1  0  0  0
 78153  1  0  0  0
 79 80  1  0  0  0
 79 83  1  0  0  0
 79154  1  0  0  0
 79155  1  0  0  0
 80 84  1  0  0  0
 80156  1  0  0  0
 80157  1  0  0  0
 81158  1  0  0  0
 83159  1  0  0  0
 84160  1  0  0  0
M  ISO  4   1 100  68 101  78 101  84 100
M  END
> <chiral flag>
0

> <version>
0

> <s_m_source_file>
/data/baiqing/PycharmProjects/Reinvent-master-3.2/result/LINK_invent/BTK/process_docking_weight1_custom_sum_contain_oxygen_bond_distance_aromatic_linkinvent_7_9_3/rearranged_h_0133.sdf

> <i_m_source_file_index>
41

> <r_mmod_Potential_Energy-OPLS-2005>
-198.894638061523

> <r_mmod_Stretch_Energy-OPLS-2005>
80.9442443847656

> <r_mmod_Bend_Energy-OPLS-2005>
155.465972900391

> <r_mmod_Torsional_Energy-OPLS-2005>
220.227142333984

> <r_mmod_Improper_Torsional_Energy-OPLS-2005>
11.2446660995483

> <r_mmod_Van_der_Waal_Energy-OPLS-2005>
157.508529663086

> <r_mmod_Electrostatic_Energy-OPLS-2005>
-643.502868652344

> <r_mmod_Solvation_Energy-OPLS-2005>
-242.277679443359

> <b_mmod_Minimization_Converged-OPLS-2005>
0

> <r_mmod_RMS_Derivative-OPLS-2005>
2.7138614654541

$$$$
42
                    3D
 Structure written by MMmdl.
161169  0  0  1  0            999 V2000
  -30.6742  -14.5789   20.4765 C   0  0  0  0  0  0
  -30.4224  -12.3516   19.4499 C   0  0  0  0  0  0
  -29.5007  -12.4910   18.2200 C   0  0  0  0  0  0
  -28.0228  -12.3440   18.6325 C   0  0  0  0  0  0
  -27.6497  -13.2205   19.8586 C   0  0  2  0  0  0
  -28.6952  -13.0901   20.9891 C   0  0  0  0  0  0
  -25.2537  -13.8188   20.5691 C   0  0  0  0  0  0
  -24.1808  -13.0443   20.9190 C   0  0  0  0  0  0
  -24.6384  -11.6916   20.8739 C   0  0  0  0  0  0
  -23.9065  -10.4291   21.0402 C   0  0  0  0  0  0
  -24.3617   -9.4208   21.9181 C   0  0  0  0  0  0
  -23.6291   -8.2243   22.0750 C   0  0  0  0  0  0
  -22.4268   -8.0282   21.3546 C   0  0  0  0  0  0
  -21.9904   -9.0256   20.4649 C   0  0  0  0  0  0
  -22.7235  -10.2134   20.3055 C   0  0  0  0  0  0
  -21.6855   -6.0735   22.5279 C   0  0  0  0  0  0
  -21.4020   -6.5641   23.8215 C   0  0  0  0  0  0
  -21.3657   -5.6795   24.9175 C   0  0  0  0  0  0
  -21.6035   -4.3055   24.7225 C   0  0  0  0  0  0
  -21.8823   -3.8150   23.4346 C   0  0  0  0  0  0
  -21.9192   -4.6961   22.3402 C   0  0  0  0  0  0
  -22.7826  -13.5227   21.1851 C   0  0  0  0  0  0
  -22.1660   -4.2153   21.0977 F   0  0  0  0  0  0
  -21.5621   -3.4539   25.7737 F   0  0  0  0  0  0
  -30.0140  -13.3872   20.4158 N   0  0  0  0  0  0
  -26.2969  -12.9379   20.3319 N   0  0  0  0  0  0
  -25.9313  -11.6529   20.5756 N   0  0  0  0  0  0
  -22.0466  -12.8224   22.0412 N   0  0  0  0  0  0
  -25.4238  -15.1916   20.4125 N   0  0  0  0  0  0
  -31.8657  -14.6744   20.1771 O   0  0  0  0  0  0
  -21.6632   -6.8878   21.4244 O   0  0  0  0  0  0
  -22.3507  -14.5527   20.6693 O   0  0  0  0  0  0
  -24.6216  -31.8637   23.2062 C   0  0  0  0  0  0
  -25.9081  -32.4802   23.8375 C   0  0  1  0  0  0
  -27.2210  -27.3584   20.1115 C   0  0  0  0  0  0
  -25.5911  -33.8601   24.2299 N   0  0  0  0  0  0
  -23.4119  -30.4891   21.5482 C   0  0  2  0  0  0
  -24.8557  -28.9498   20.1126 C   0  0  0  0  0  0
  -22.7444  -29.4643   22.4953 C   0  0  0  0  0  0
  -18.0284  -28.1382   22.8488 C   0  0  0  0  0  0
  -24.1486  -36.7302   23.2632 C   0  0  0  0  0  0
  -25.9492  -30.8075   21.3701 C   0  0  0  0  0  0
  -26.0224  -29.4384   20.7125 C   0  0  0  0  0  0
  -27.2072  -28.6535   20.7030 C   0  0  0  0  0  0
  -26.0298  -26.9106   19.4932 C   0  0  0  0  0  0
  -24.8583  -27.6887   19.4979 C   0  0  0  0  0  0
  -23.6233  -29.8262   20.1619 C   0  0  0  0  0  0
  -25.4107  -36.3095   24.0329 C   0  0  1  0  0  0
  -20.5879  -28.3676   23.1293 C   0  0  2  0  0  0
  -20.6775  -26.9404   22.5407 C   0  0  0  0  0  0
  -19.5754  -26.6382   21.5209 C   0  0  0  0  0  0
  -18.1934  -26.7926   22.1622 C   0  0  0  0  0  0
  -19.1534  -28.8845   23.2889 C   0  0  0  0  0  0
  -18.9460  -30.1450   23.8906 C   0  0  0  0  0  0
  -17.6462  -30.6585   24.0565 C   0  0  0  0  0  0
  -25.9041  -34.9463   23.5113 C   0  0  0  0  0  0
  -16.5353  -29.9085   23.6327 C   0  0  0  0  0  0
  -16.7272  -28.6500   23.0349 C   0  0  0  0  0  0
  -26.4481  -31.6601   25.0728 C   0  0  0  0  0  0
  -25.3732  -31.3725   26.1468 C   0  0  0  0  0  0
  -27.0316  -30.3034   24.6145 C   0  0  0  0  0  0
  -27.6051  -32.4329   25.7495 C   0  0  0  0  0  0
  -27.5588  -37.1791   24.8451 C   0  0  0  0  0  0
  -21.4162  -29.3039   22.3692 N   0  0  0  0  0  0
  -26.4282  -37.3793   23.9422 N   0  0  0  0  0  0
  -24.6796  -31.0690   22.0991 N   0  0  0  0  0  0
  -23.4188  -28.8182   23.3014 O   0  0  0  0  0  0
  -28.3676  -26.5630   20.1617 O   0  0  0  0  0  0
  -26.5609  -34.8925   22.4678 O   0  0  0  0  0  0
  -23.5392  -32.1413   23.7424 O   0  0  0  0  0  0
  -29.3052  -18.2213   20.6444 C   0  0  0  0  0  0
  -29.5871  -22.8774   19.7142 C   0  0  0  0  0  0
  -27.3966  -22.8562   20.9365 C   0  0  0  0  0  0
  -29.6580  -24.4282   19.9234 C   0  0  0  0  0  0
  -27.4976  -24.3983   21.1364 C   0  0  0  0  0  0
  -28.7667  -22.1277   20.8052 C   0  0  1  0  0  0
  -28.2655  -25.1095   19.9911 C   0  0  1  0  0  0
  -30.6232  -17.2004   18.7326 C   0  0  0  0  0  0
  -29.7563  -19.7221   20.6673 C   0  0  0  0  0  0
  -30.3378  -17.1001   20.2510 C   0  0  2  0  0  0
  -29.9106  -15.7010   20.5924 N   0  0  0  0  0  0
  -28.5804  -20.6490   20.5511 N   0  3  0  0  0  0
  -28.1338  -17.9393   20.9174 O   0  0  0  0  0  0
  -31.4672  -12.4481   19.1495 H   0  0  0  0  0  0
  -30.3298  -11.3609   19.8964 H   0  0  0  0  0  0
  -29.7536  -11.7400   17.4710 H   0  0  0  0  0  0
  -29.6582  -13.4619   17.7464 H   0  0  0  0  0  0
  -27.8526  -11.2925   18.8656 H   0  0  0  0  0  0
  -27.3711  -12.5761   17.7895 H   0  0  0  0  0  0
  -27.6633  -14.2526   19.5084 H   0  0  0  0  0  0
  -28.6871  -12.0826   21.4084 H   0  0  0  0  0  0
  -28.4609  -13.7653   21.8138 H   0  0  0  0  0  0
  -25.2763   -9.5674   22.4754 H   0  0  0  0  0  0
  -24.0004   -7.4624   22.7455 H   0  0  0  0  0  0
  -21.0839   -8.8768   19.8947 H   0  0  0  0  0  0
  -22.3695  -10.9668   19.6158 H   0  0  0  0  0  0
  -21.2024   -7.6151   23.9720 H   0  0  0  0  0  0
  -21.1471   -6.0523   25.9080 H   0  0  0  0  0  0
  -22.0602   -2.7611   23.2842 H   0  0  0  0  0  0
  -22.4088  -11.9908   22.4839 H   0  0  0  0  0  0
  -21.1075  -13.1239   22.2604 H   0  0  0  0  0  0
  -24.6578  -15.8454   20.5316 H   0  0  0  0  0  0
  -26.2812  -15.6443   20.1216 H   0  0  0  0  0  0
  -26.7151  -32.5484   23.1130 H   0  0  0  0  0  0
  -25.0063  -33.9759   25.0447 H   0  0  0  0  0  0
  -22.7036  -31.3081   21.4088 H   0  0  0  0  0  0
  -23.3757  -35.9624   23.3274 H   0  0  0  0  0  0
  -24.3592  -36.8944   22.2053 H   0  0  0  0  0  0
  -23.7225  -37.6492   23.6669 H   0  0  0  0  0  0
  -26.0739  -31.5732   20.6034 H   0  0  0  0  0  0
  -26.8321  -30.8565   21.9950 H   0  0  0  0  0  0
  -28.1041  -29.0233   21.1793 H   0  0  0  0  0  0
  -25.9680  -25.9484   19.0094 H   0  0  0  0  0  0
  -23.9607  -27.3069   19.0308 H   0  0  0  0  0  0
  -23.7404  -30.6038   19.4062 H   0  0  0  0  0  0
  -22.7437  -29.2543   19.8611 H   0  0  0  0  0  0
  -25.1282  -36.1943   25.0820 H   0  0  0  0  0  0
  -20.9976  -28.3252   24.1412 H   0  0  0  0  0  0
  -20.5677  -26.2286   23.3602 H   0  0  0  0  0  0
  -21.6647  -26.7443   22.1203 H   0  0  0  0  0  0
  -19.6913  -25.6294   21.1240 H   0  0  0  0  0  0
  -19.6691  -27.3191   20.6739 H   0  0  0  0  0  0
  -17.4198  -26.6668   21.4029 H   0  0  0  0  0  0
  -18.0338  -26.0067   22.9019 H   0  0  0  0  0  0
  -19.7937  -30.7263   24.2276 H   0  0  0  0  0  0
  -17.5018  -31.6269   24.5159 H   0  0  0  0  0  0
  -15.5355  -30.2991   23.7647 H   0  0  0  0  0  0
  -15.8671  -28.0822   22.7062 H   0  0  0  0  0  0
  -24.5902  -30.7074   25.7804 H   0  0  0  0  0  0
  -24.8926  -32.2886   26.4910 H   0  0  0  0  0  0
  -25.8070  -30.8897   27.0232 H   0  0  0  0  0  0
  -26.2873  -29.6801   24.1171 H   0  0  0  0  0  0
  -27.4037  -29.7272   25.4626 H   0  0  0  0  0  0
  -27.8734  -30.4342   23.9341 H   0  0  0  0  0  0
  -27.2663  -33.3618   26.2093 H   0  0  0  0  0  0
  -28.3846  -32.6905   25.0314 H   0  0  0  0  0  0
  -28.0733  -31.8442   26.5392 H   0  0  0  0  0  0
  -28.2557  -38.0137   24.7579 H   0  0  0  0  0  0
  -28.1133  -36.2676   24.6168 H   0  0  0  0  0  0
  -27.2324  -37.1309   25.8853 H   0  0  0  0  0  0
  -20.9322  -29.8765   21.6916 H   0  0  0  0  0  0
  -26.0161  -38.2854   24.1477 H   0  0  0  0  0  0
  -30.6011  -22.4773   19.6823 H   0  0  0  0  0  0
  -29.1534  -22.6789   18.7333 H   0  0  0  0  0  0
  -26.7985  -22.6660   20.0442 H   0  0  0  0  0  0
  -26.8346  -22.4310   21.7690 H   0  0  0  0  0  0
  -30.2381  -24.8732   19.1148 H   0  0  0  0  0  0
  -30.2089  -24.6431   20.8400 H   0  0  0  0  0  0
  -27.9902  -24.6079   22.0868 H   0  0  0  0  0  0
  -26.4916  -24.8075   21.2276 H   0  0  0  0  0  0
  -29.2876  -22.2307   21.7588 H   0  0  0  0  0  0
  -27.7838  -24.8969   19.0369 H   0  0  0  0  0  0
  -30.9561  -18.1981   18.4448 H   0  0  0  0  0  0
  -29.7342  -16.9713   18.1430 H   0  0  0  0  0  0
  -31.4109  -16.5180   18.4141 H   0  0  0  0  0  0
  -30.4667  -19.9144   19.8645 H   0  0  0  0  0  0
  -30.2731  -19.9052   21.6095 H   0  0  0  0  0  0
  -31.2645  -17.3017   20.7908 H   0  0  0  0  0  0
  -28.9337  -15.5774   20.8137 H   0  0  0  0  0  0
  -28.1616  -20.5056   19.6466 H   0  0  0  0  0  0
  -27.9159  -20.2949   21.2223 H   0  0  0  0  0  0
  1 25  1  0  0  0
  1 30  2  0  0  0
  1 81  1  0  0  0
  2  3  1  0  0  0
  2 25  1  0  0  0
  2 84  1  0  0  0
  2 85  1  0  0  0
  3  4  1  0  0  0
  3 86  1  0  0  0
  3 87  1  0  0  0
  4  5  1  0  0  0
  4 88  1  0  0  0
  4 89  1  0  0  0
  5  6  1  0  0  0
  5 26  1  0  0  0
  5 90  1  0  0  0
  6 25  1  0  0  0
  6 91  1  0  0  0
  6 92  1  0  0  0
  7  8  2  0  0  0
  7 26  1  0  0  0
  7 29  1  0  0  0
  8  9  1  0  0  0
  8 22  1  0  0  0
  9 10  1  0  0  0
  9 27  2  0  0  0
 10 11  2  0  0  0
 10 15  1  0  0  0
 11 12  1  0  0  0
 11 93  1  0  0  0
 12 13  2  0  0  0
 12 94  1  0  0  0
 13 14  1  0  0  0
 13 31  1  0  0  0
 14 15  2  0  0  0
 14 95  1  0  0  0
 15 96  1  0  0  0
 16 17  2  0  0  0
 16 21  1  0  0  0
 16 31  1  0  0  0
 17 18  1  0  0  0
 17 97  1  0  0  0
 18 19  2  0  0  0
 18 98  1  0  0  0
 19 20  1  0  0  0
 19 24  1  0  0  0
 20 21  2  0  0  0
 20 99  1  0  0  0
 21 23  1  0  0  0
 22 28  1  0  0  0
 22 32  2  0  0  0
 26 27  1  0  0  0
 28100  1  0  0  0
 28101  1  0  0  0
 29102  1  0  0  0
 29103  1  0  0  0
 33 34  1  0  0  0
 33 66  1  0  0  0
 33 70  2  0  0  0
 34 36  1  0  0  0
 34 59  1  0  0  0
 34104  1  0  0  0
 35 44  2  0  0  0
 35 45  1  0  0  0
 35 68  1  0  0  0
 36 56  1  0  0  0
 36105  1  0  0  0
 37 39  1  0  0  0
 37 47  1  0  0  0
 37 66  1  0  0  0
 37106  1  0  0  0
 38 43  2  0  0  0
 38 46  1  0  0  0
 38 47  1  0  0  0
 39 64  1  0  0  0
 39 67  2  0  0  0
 40 52  1  0  0  0
 40 53  2  0  0  0
 40 58  1  0  0  0
 41107  1  0  0  0
 41108  1  0  0  0
 41109  1  0  0  0
 41 48  1  0  0  0
 42 43  1  0  0  0
 42 66  1  0  0  0
 42110  1  0  0  0
 42111  1  0  0  0
 43 44  1  0  0  0
 44112  1  0  0  0
 45 46  2  0  0  0
 45113  1  0  0  0
 46114  1  0  0  0
 47115  1  0  0  0
 47116  1  0  0  0
 48 56  1  0  0  0
 48 65  1  0  0  0
 48117  1  0  0  0
 49 50  1  0  0  0
 49 53  1  0  0  0
 49 64  1  0  0  0
 49118  1  0  0  0
 50 51  1  0  0  0
 50119  1  0  0  0
 50120  1  0  0  0
 51 52  1  0  0  0
 51121  1  0  0  0
 51122  1  0  0  0
 52123  1  0  0  0
 52124  1  0  0  0
 53 54  1  0  0  0
 54 55  2  0  0  0
 54125  1  0  0  0
 55 57  1  0  0  0
 55126  1  0  0  0
 56 69  2  0  0  0
 57 58  2  0  0  0
 57127  1  0  0  0
 58128  1  0  0  0
 59 60  1  0  0  0
 59 61  1  0  0  0
 59 62  1  0  0  0
 60129  1  0  0  0
 60130  1  0  0  0
 60131  1  0  0  0
 61132  1  0  0  0
 61133  1  0  0  0
 61134  1  0  0  0
 62135  1  0  0  0
 62136  1  0  0  0
 62137  1  0  0  0
 63 65  1  0  0  0
 63138  1  0  0  0
 63139  1  0  0  0
 63140  1  0  0  0
 64141  1  0  0  0
 65142  1  0  0  0
 68 77  1  0  0  0
 71 79  1  0  0  0
 71 80  1  0  0  0
 71 83  2  0  0  0
 72 74  1  0  0  0
 72 76  1  0  0  0
 72143  1  0  0  0
 72144  1  0  0  0
 73 75  1  0  0  0
 73 76  1  0  0  0
 73145  1  0  0  0
 73146  1  0  0  0
 74 77  1  0  0  0
 74147  1  0  0  0
 74148  1  0  0  0
 75 77  1  0  0  0
 75149  1  0  0  0
 75150  1  0  0  0
 76 82  1  0  0  0
 76151  1  0  0  0
 77152  1  0  0  0
 78153  1  0  0  0
 78154  1  0  0  0
 78155  1  0  0  0
 78 80  1  0  0  0
 79 82  1  0  0  0
 79156  1  0  0  0
 79157  1  0  0  0
 80 81  1  0  0  0
 80158  1  0  0  0
 81159  1  0  0  0
 82160  1  0  0  0
 82161  1  0  0  0
M  CHG  1  82   1
M  ISO  4   1 100  68 101  77 101  81 100
M  END
> <chiral flag>
0

> <version>
0

> <s_m_source_file>
/data/baiqing/PycharmProjects/Reinvent-master-3.2/result/LINK_invent/BTK/process_docking_weight1_custom_sum_contain_oxygen_bond_distance_aromatic_linkinvent_7_9_3/rearranged_h_0133.sdf

> <i_m_source_file_index>
42

> <r_mmod_Potential_Energy-OPLS-2005>
-294.475402832031

> <r_mmod_Stretch_Energy-OPLS-2005>
58.8717384338379

> <r_mmod_Bend_Energy-OPLS-2005>
116.351226806641

> <r_mmod_Torsional_Energy-OPLS-2005>
230.845626831055

> <r_mmod_Improper_Torsional_Energy-OPLS-2005>
6.99073123931885

> <r_mmod_Van_der_Waal_Energy-OPLS-2005>
129.35546875

> <r_mmod_Electrostatic_Energy-OPLS-2005>
-395.324676513672

> <r_mmod_Solvation_Energy-OPLS-2005>
-477.376434326172

> <b_mmod_Minimization_Converged-OPLS-2005>
0

> <r_mmod_RMS_Derivative-OPLS-2005>
1.08732903003693

$$$$
43
                    3D
 Structure written by MMmdl.
187197  0  0  1  0            999 V2000
  -30.7631  -14.3878   20.5936 C   0  0  0  0  0  0
  -30.3978  -12.2668   19.4084 C   0  0  0  0  0  0
  -29.4827  -12.5033   18.1942 C   0  0  0  0  0  0
  -28.0030  -12.3776   18.6051 C   0  0  0  0  0  0
  -27.6578  -13.2104   19.8699 C   0  0  2  0  0  0
  -28.6980  -12.9875   20.9892 C   0  0  0  0  0  0
  -25.2555  -13.8176   20.5666 C   0  0  0  0  0  0
  -24.1814  -13.0434   20.9153 C   0  0  0  0  0  0
  -24.6369  -11.6902   20.8702 C   0  0  0  0  0  0
  -23.9030  -10.4287   21.0384 C   0  0  0  0  0  0
  -24.3592   -9.4214   21.9170 C   0  0  0  0  0  0
  -23.6280   -8.2241   22.0739 C   0  0  0  0  0  0
  -22.4260   -8.0269   21.3533 C   0  0  0  0  0  0
  -21.9881   -9.0244   20.4645 C   0  0  0  0  0  0
  -22.7197  -10.2129   20.3046 C   0  0  0  0  0  0
  -21.6853   -6.0722   22.5269 C   0  0  0  0  0  0
  -21.4016   -6.5618   23.8211 C   0  0  0  0  0  0
  -21.3659   -5.6780   24.9170 C   0  0  0  0  0  0
  -21.6050   -4.3042   24.7219 C   0  0  0  0  0  0
  -21.8823   -3.8132   23.4342 C   0  0  0  0  0  0
  -21.9197   -4.6950   22.3398 C   0  0  0  0  0  0
  -22.7836  -13.5231   21.1819 C   0  0  0  0  0  0
  -22.1664   -4.2134   21.0970 F   0  0  0  0  0  0
  -21.5634   -3.4526   25.7741 F   0  0  0  0  0  0
  -30.0308  -13.2580   20.4303 N   0  0  0  0  0  0
  -26.2991  -12.9356   20.3334 N   0  0  0  0  0  0
  -25.9297  -11.6501   20.5726 N   0  0  0  0  0  0
  -22.0483  -12.8253   22.0407 N   0  0  0  0  0  0
  -25.4298  -15.1895   20.4090 N   0  0  0  0  0  0
  -31.8884  -14.5135   20.1102 O   0  0  0  0  0  0
  -21.6631   -6.8860   21.4230 O   0  0  0  0  0  0
  -22.3514  -14.5535   20.6663 O   0  0  0  0  0  0
  -24.6124  -31.8702   23.2114 C   0  0  0  0  0  0
  -25.9034  -32.4831   23.8400 C   0  0  1  0  0  0
  -27.2330  -27.4681   20.0905 C   0  0  0  0  0  0
  -25.5900  -33.8626   24.2327 N   0  0  0  0  0  0
  -23.3982  -30.4939   21.5511 C   0  0  2  0  0  0
  -24.8440  -28.9594   20.1173 C   0  0  0  0  0  0
  -22.7395  -29.4670   22.4998 C   0  0  0  0  0  0
  -18.0269  -28.1377   22.8491 C   0  0  0  0  0  0
  -24.1473  -36.7307   23.2610 C   0  0  0  0  0  0
  -25.9236  -30.8460   21.3593 C   0  0  0  0  0  0
  -26.0013  -29.4822   20.7081 C   0  0  0  0  0  0
  -27.2023  -28.7438   20.6876 C   0  0  0  0  0  0
  -26.0613  -26.9440   19.5068 C   0  0  0  0  0  0
  -24.8660  -27.6880   19.5159 C   0  0  0  0  0  0
  -23.6057  -29.8245   20.1656 C   0  0  0  0  0  0
  -25.4069  -36.3107   24.0342 C   0  0  1  0  0  0
  -20.5860  -28.3658   23.1323 C   0  0  2  0  0  0
  -20.6758  -26.9397   22.5419 C   0  0  0  0  0  0
  -19.5738  -26.6390   21.5211 C   0  0  0  0  0  0
  -18.1918  -26.7923   22.1629 C   0  0  0  0  0  0
  -19.1522  -28.8832   23.2908 C   0  0  0  0  0  0
  -18.9451  -30.1433   23.8920 C   0  0  0  0  0  0
  -17.6455  -30.6586   24.0568 C   0  0  0  0  0  0
  -25.9037  -34.9485   23.5138 C   0  0  0  0  0  0
  -16.5350  -29.9098   23.6324 C   0  0  0  0  0  0
  -16.7264  -28.6511   23.0338 C   0  0  0  0  0  0
  -26.4468  -31.6604   25.0722 C   0  0  0  0  0  0
  -25.3750  -31.3747   26.1495 C   0  0  0  0  0  0
  -27.0257  -30.3031   24.6085 C   0  0  0  0  0  0
  -27.6063  -32.4305   25.7471 C   0  0  0  0  0  0
  -27.5627  -37.1706   24.8385 C   0  0  0  0  0  0
  -21.4126  -29.3035   22.3737 N   0  0  0  0  0  0
  -26.4214  -37.3841   23.9525 N   0  0  0  0  0  0
  -24.6627  -31.0836   22.0997 N   0  0  0  0  0  0
  -23.4176  -28.8208   23.3030 O   0  0  0  0  0  0
  -28.4088  -26.7652   20.0575 O   0  0  0  0  0  0
  -26.5606  -34.8944   22.4706 O   0  0  0  0  0  0
  -23.5323  -32.1433   23.7529 O   0  0  0  0  0  0
  -32.4172  -18.4969   21.1685 C   0  0  0  0  0  0
  -30.7475  -18.7609   23.0504 C   0  0  0  0  0  0
  -28.7945  -23.0196   20.4777 C   0  0  0  0  0  0
  -29.7579  -24.2205   22.4611 C   0  0  0  0  0  0
  -31.5027  -17.4478   20.5346 C   0  0  0  0  0  0
  -29.9338  -17.5813   22.4637 C   0  0  0  0  0  0
  -28.5749  -24.3601   19.7504 C   0  0  0  0  0  0
  -29.5558  -25.5719   21.7605 C   0  0  0  0  0  0
  -34.8313  -23.1044   19.7233 C   0  0  0  0  0  0
  -36.0891  -22.2350   19.5601 C   0  0  0  0  0  0
  -34.3520  -21.1768   18.3494 C   0  0  0  0  0  0
  -30.0112  -23.1127   21.4230 C   0  0  1  0  0  0
  -31.6246  -19.5206   22.0125 C   0  0  2  0  0  0
  -30.8508  -16.6295   21.6725 C   0  0  1  0  0  0
  -33.6633  -22.2522   19.2037 C   0  0  1  0  0  0
  -28.3981  -25.5201   20.7498 C   0  0  1  0  0  0
  -30.3957  -21.7772   22.1014 C   0  0  0  0  0  0
  -31.6710  -21.1019   19.9478 C   0  0  0  0  0  0
  -30.8660  -20.6095   21.1823 C   0  0  1  0  0  0
  -30.1710  -15.3989   21.2483 N   0  0  0  0  0  0
  -32.9591  -21.6686   20.3448 N   0  0  0  0  0  0
  -35.6297  -20.9410   19.0297 N   0  3  0  0  0  0
  -31.4463  -12.3236   19.1100 H   0  0  0  0  0  0
  -30.2577  -11.2581   19.7999 H   0  0  0  0  0  0
  -29.7120  -11.7894   17.4017 H   0  0  0  0  0  0
  -29.6715  -13.4942   17.7790 H   0  0  0  0  0  0
  -27.7970  -11.3227   18.7865 H   0  0  0  0  0  0
  -27.3591  -12.6725   17.7761 H   0  0  0  0  0  0
  -27.7065  -14.2598   19.5771 H   0  0  0  0  0  0
  -28.6584  -11.9561   21.3432 H   0  0  0  0  0  0
  -28.4704  -13.6029   21.8600 H   0  0  0  0  0  0
  -25.2746   -9.5706   22.4729 H   0  0  0  0  0  0
  -24.0004   -7.4638   22.7448 H   0  0  0  0  0  0
  -21.0815   -8.8747   19.8967 H   0  0  0  0  0  0
  -22.3631  -10.9659   19.6151 H   0  0  0  0  0  0
  -21.1998   -7.6134   23.9701 H   0  0  0  0  0  0
  -21.1483   -6.0512   25.9077 H   0  0  0  0  0  0
  -22.0602   -2.7597   23.2843 H   0  0  0  0  0  0
  -22.4085  -11.9921   22.4829 H   0  0  0  0  0  0
  -21.1111  -13.1307   22.2617 H   0  0  0  0  0  0
  -24.6659  -15.8489   20.5148 H   0  0  0  0  0  0
  -26.2917  -15.6281   20.1092 H   0  0  0  0  0  0
  -26.7108  -32.5552   23.1168 H   0  0  0  0  0  0
  -25.0063  -33.9788   25.0479 H   0  0  0  0  0  0
  -22.6850  -31.3093   21.4128 H   0  0  0  0  0  0
  -23.3804  -35.9560   23.3091 H   0  0  0  0  0  0
  -24.3639  -36.9104   22.2070 H   0  0  0  0  0  0
  -23.7107  -37.6407   23.6731 H   0  0  0  0  0  0
  -26.0322  -31.6131   20.5910 H   0  0  0  0  0  0
  -26.8131  -30.8986   21.9754 H   0  0  0  0  0  0
  -28.1022  -29.1459   21.1312 H   0  0  0  0  0  0
  -26.0748  -25.9717   19.0369 H   0  0  0  0  0  0
  -23.9751  -27.2790   19.0596 H   0  0  0  0  0  0
  -23.7151  -30.5991   19.4060 H   0  0  0  0  0  0
  -22.7298  -29.2449   19.8691 H   0  0  0  0  0  0
  -25.1198  -36.1922   25.0818 H   0  0  0  0  0  0
  -20.9952  -28.3230   24.1442 H   0  0  0  0  0  0
  -20.5666  -26.2265   23.3605 H   0  0  0  0  0  0
  -21.6630  -26.7449   22.1214 H   0  0  0  0  0  0
  -19.6902  -25.6307   21.1229 H   0  0  0  0  0  0
  -19.6676  -27.3213   20.6748 H   0  0  0  0  0  0
  -17.4183  -26.6656   21.4039 H   0  0  0  0  0  0
  -18.0334  -26.0071   22.9037 H   0  0  0  0  0  0
  -19.7926  -30.7238   24.2310 H   0  0  0  0  0  0
  -17.5019  -31.6265   24.5181 H   0  0  0  0  0  0
  -15.5351  -30.3010   23.7633 H   0  0  0  0  0  0
  -15.8660  -28.0850   22.7035 H   0  0  0  0  0  0
  -24.5878  -30.7129   25.7866 H   0  0  0  0  0  0
  -24.8995  -32.2926   26.4962 H   0  0  0  0  0  0
  -25.8116  -30.8907   27.0239 H   0  0  0  0  0  0
  -26.2775  -29.6831   24.1126 H   0  0  0  0  0  0
  -27.3995  -29.7238   25.4538 H   0  0  0  0  0  0
  -27.8637  -30.4326   23.9230 H   0  0  0  0  0  0
  -27.2699  -33.3597   26.2077 H   0  0  0  0  0  0
  -28.3853  -32.6869   25.0282 H   0  0  0  0  0  0
  -28.0742  -31.8404   26.5359 H   0  0  0  0  0  0
  -28.2341  -38.0293   24.7939 H   0  0  0  0  0  0
  -28.1421  -36.2905   24.5545 H   0  0  0  0  0  0
  -27.2472  -37.0539   25.8769 H   0  0  0  0  0  0
  -20.9276  -29.8756   21.6965 H   0  0  0  0  0  0
  -26.0082  -38.2835   24.1850 H   0  0  0  0  0  0
  -33.0401  -18.9657   20.4110 H   0  0  0  0  0  0
  -33.1315  -17.9906   21.8189 H   0  0  0  0  0  0
  -31.4093  -18.3567   23.8176 H   0  0  0  0  0  0
  -30.0851  -19.4416   23.5840 H   0  0  0  0  0  0
  -28.9292  -22.2272   19.7416 H   0  0  0  0  0  0
  -27.9000  -22.7539   21.0436 H   0  0  0  0  0  0
  -28.8835  -23.9797   23.0680 H   0  0  0  0  0  0
  -30.6000  -24.2955   23.1498 H   0  0  0  0  0  0
  -32.1226  -16.8504   19.8713 H   0  0  0  0  0  0
  -30.7466  -17.9138   19.9001 H   0  0  0  0  0  0
  -29.1388  -17.9619   21.8200 H   0  0  0  0  0  0
  -29.4444  -17.0440   23.2770 H   0  0  0  0  0  0
  -27.7052  -24.2883   19.0971 H   0  0  0  0  0  0
  -29.4276  -24.5619   19.1001 H   0  0  0  0  0  0
  -30.4773  -25.8499   21.2462 H   0  0  0  0  0  0
  -29.3702  -26.3520   22.4994 H   0  0  0  0  0  0
  -34.9339  -24.0030   19.1136 H   0  0  0  0  0  0
  -34.6971  -23.4381   20.7530 H   0  0  0  0  0  0
  -36.6220  -22.0959   20.5012 H   0  0  0  0  0  0
  -36.7788  -22.6953   18.8512 H   0  0  0  0  0  0
  -34.5538  -21.5688   17.3508 H   0  0  0  0  0  0
  -33.7819  -20.2558   18.2266 H   0  0  0  0  0  0
  -30.8699  -23.4491   20.8418 H   0  0  0  0  0  0
  -32.3807  -20.0619   22.5837 H   0  0  0  0  0  0
  -31.6395  -16.2878   22.3470 H   0  0  0  0  0  0
  -32.9780  -22.8622   18.6119 H   0  0  0  0  0  0
  -27.4688  -25.3691   21.3052 H   0  0  0  0  0  0
  -29.5556  -21.4432   22.7114 H   0  0  0  0  0  0
  -31.1965  -21.9948   22.8092 H   0  0  0  0  0  0
  -31.0988  -21.8406   19.3871 H   0  0  0  0  0  0
  -31.8039  -20.2806   19.2439 H   0  0  0  0  0  0
  -29.9652  -20.1464   20.7772 H   0  0  0  0  0  0
  -29.2312  -15.2397   21.5801 H   0  0  0  0  0  0
  -32.7677  -22.3964   21.0253 H   0  0  0  0  0  0
  -35.4361  -20.3380   19.8127 H   0  0  0  0  0  0
  -36.3116  -20.5038   18.4318 H   0  0  0  0  0  0
  1 25  1  0  0  0
  1 30  2  0  0  0
  1 90  1  0  0  0
  2  3  1  0  0  0
  2 25  1  0  0  0
  2 93  1  0  0  0
  2 94  1  0  0  0
  3  4  1  0  0  0
  3 95  1  0  0  0
  3 96  1  0  0  0
  4  5  1  0  0  0
  4 97  1  0  0  0
  4 98  1  0  0  0
  5  6  1  0  0  0
  5 26  1  0  0  0
  5 99  1  0  0  0
  6 25  1  0  0  0
  6100  1  0  0  0
  6101  1  0  0  0
  7  8  2  0  0  0
  7 26  1  0  0  0
  7 29  1  0  0  0
  8  9  1  0  0  0
  8 22  1  0  0  0
  9 10  1  0  0  0
  9 27  2  0  0  0
 10 11  2  0  0  0
 10 15  1  0  0  0
 11 12  1  0  0  0
 11102  1  0  0  0
 12 13  2  0  0  0
 12103  1  0  0  0
 13 14  1  0  0  0
 13 31  1  0  0  0
 14 15  2  0  0  0
 14104  1  0  0  0
 15105  1  0  0  0
 16 17  2  0  0  0
 16 21  1  0  0  0
 16 31  1  0  0  0
 17 18  1  0  0  0
 17106  1  0  0  0
 18 19  2  0  0  0
 18107  1  0  0  0
 19 20  1  0  0  0
 19 24  1  0  0  0
 20 21  2  0  0  0
 20108  1  0  0  0
 21 23  1  0  0  0
 22 28  1  0  0  0
 22 32  2  0  0  0
 26 27  1  0  0  0
 28109  1  0  0  0
 28110  1  0  0  0
 29111  1  0  0  0
 29112  1  0  0  0
 33 34  1  0  0  0
 33 66  1  0  0  0
 33 70  2  0  0  0
 34 36  1  0  0  0
 34 59  1  0  0  0
 34113  1  0  0  0
 35 44  2  0  0  0
 35 45  1  0  0  0
 35 68  1  0  0  0
 36 56  1  0  0  0
 36114  1  0  0  0
 37 39  1  0  0  0
 37 47  1  0  0  0
 37 66  1  0  0  0
 37115  1  0  0  0
 38 43  2  0  0  0
 38 46  1  0  0  0
 38 47  1  0  0  0
 39 64  1  0  0  0
 39 67  2  0  0  0
 40 52  1  0  0  0
 40 53  2  0  0  0
 40 58  1  0  0  0
 41116  1  0  0  0
 41117  1  0  0  0
 41118  1  0  0  0
 41 48  1  0  0  0
 42 43  1  0  0  0
 42 66  1  0  0  0
 42119  1  0  0  0
 42120  1  0  0  0
 43 44  1  0  0  0
 44121  1  0  0  0
 45 46  2  0  0  0
 45122  1  0  0  0
 46123  1  0  0  0
 47124  1  0  0  0
 47125  1  0  0  0
 48 56  1  0  0  0
 48 65  1  0  0  0
 48126  1  0  0  0
 49 50  1  0  0  0
 49 53  1  0  0  0
 49 64  1  0  0  0
 49127  1  0  0  0
 50 51  1  0  0  0
 50128  1  0  0  0
 50129  1  0  0  0
 51 52  1  0  0  0
 51130  1  0  0  0
 51131  1  0  0  0
 52132  1  0  0  0
 52133  1  0  0  0
 53 54  1  0  0  0
 54 55  2  0  0  0
 54134  1  0  0  0
 55 57  1  0  0  0
 55135  1  0  0  0
 56 69  2  0  0  0
 57 58  2  0  0  0
 57136  1  0  0  0
 58137  1  0  0  0
 59 60  1  0  0  0
 59 61  1  0  0  0
 59 62  1  0  0  0
 60138  1  0  0  0
 60139  1  0  0  0
 60140  1  0  0  0
 61141  1  0  0  0
 61142  1  0  0  0
 61143  1  0  0  0
 62144  1  0  0  0
 62145  1  0  0  0
 62146  1  0  0  0
 63 65  1  0  0  0
 63147  1  0  0  0
 63148  1  0  0  0
 63149  1  0  0  0
 64150  1  0  0  0
 65151  1  0  0  0
 68 86  1  0  0  0
 71 75  1  0  0  0
 71152  1  0  0  0
 71153  1  0  0  0
 71 83  1  0  0  0
 72 76  1  0  0  0
 72 83  1  0  0  0
 72154  1  0  0  0
 72155  1  0  0  0
 73 77  1  0  0  0
 73 82  1  0  0  0
 73156  1  0  0  0
 73157  1  0  0  0
 74 78  1  0  0  0
 74 82  1  0  0  0
 74158  1  0  0  0
 74159  1  0  0  0
 75 84  1  0  0  0
 75160  1  0  0  0
 75161  1  0  0  0
 76 84  1  0  0  0
 76162  1  0  0  0
 76163  1  0  0  0
 77 86  1  0  0  0
 77164  1  0  0  0
 77165  1  0  0  0
 78 86  1  0  0  0
 78166  1  0  0  0
 78167  1  0  0  0
 79 80  1  0  0  0
 79 85  1  0  0  0
 79168  1  0  0  0
 79169  1  0  0  0
 80 92  1  0  0  0
 80170  1  0  0  0
 80171  1  0  0  0
 81 85  1  0  0  0
 81 92  1  0  0  0
 81172  1  0  0  0
 81173  1  0  0  0
 82 87  1  0  0  0
 82174  1  0  0  0
 83 89  1  0  0  0
 83175  1  0  0  0
 84 90  1  0  0  0
 84176  1  0  0  0
 85 91  1  0  0  0
 85177  1  0  0  0
 86178  1  0  0  0
 87179  1  0  0  0
 87180  1  0  0  0
 87 89  1  0  0  0
 88 89  1  0  0  0
 88 91  1  0  0  0
 88181  1  0  0  0
 88182  1  0  0  0
 89183  1  0  0  0
 90184  1  0  0  0
 91185  1  0  0  0
 92186  1  0  0  0
 92187  1  0  0  0
M  CHG  1  92   1
M  ISO  4   1 100  68 101  86 101  90 100
M  END
> <chiral flag>
0

> <version>
0

> <s_m_source_file>
/data/baiqing/PycharmProjects/Reinvent-master-3.2/result/LINK_invent/BTK/process_docking_weight1_custom_sum_contain_oxygen_bond_distance_aromatic_linkinvent_7_9_3/rearranged_h_0133.sdf

> <i_m_source_file_index>
43

> <r_mmod_Potential_Energy-OPLS-2005>
-81.6734848022461

> <r_mmod_Stretch_Energy-OPLS-2005>
36.0806655883789

> <r_mmod_Bend_Energy-OPLS-2005>
137.68327331543

> <r_mmod_Torsional_Energy-OPLS-2005>
349.163055419922

> <r_mmod_Improper_Torsional_Energy-OPLS-2005>
2.16989302635193

> <r_mmod_Van_der_Waal_Energy-OPLS-2005>
153.746170043945

> <r_mmod_Electrostatic_Energy-OPLS-2005>
-342.247589111328

> <r_mmod_Solvation_Energy-OPLS-2005>
-430.277191162109

> <b_mmod_Minimization_Converged-OPLS-2005>
0

> <r_mmod_RMS_Derivative-OPLS-2005>
2.01870536804199

$$$$
44
                    3D
 Structure written by MMmdl.
162171  0  0  1  0            999 V2000
  -30.6411  -14.6752   20.4203 C   0  0  0  0  0  0
  -30.4277  -12.3963   19.4759 C   0  0  0  0  0  0
  -29.5206  -12.5106   18.2332 C   0  0  0  0  0  0
  -28.0355  -12.3710   18.6247 C   0  0  0  0  0  0
  -27.6489  -13.2392   19.8544 C   0  0  2  0  0  0
  -28.6958  -13.1358   20.9885 C   0  0  0  0  0  0
  -25.2543  -13.8232   20.5692 C   0  0  0  0  0  0
  -24.1839  -13.0443   20.9196 C   0  0  0  0  0  0
  -24.6437  -11.6924   20.8711 C   0  0  0  0  0  0
  -23.9107  -10.4292   21.0390 C   0  0  0  0  0  0
  -24.3633   -9.4209   21.9170 C   0  0  0  0  0  0
  -23.6286   -8.2255   22.0759 C   0  0  0  0  0  0
  -22.4272   -8.0285   21.3554 C   0  0  0  0  0  0
  -21.9916   -9.0253   20.4650 C   0  0  0  0  0  0
  -22.7266  -10.2123   20.3059 C   0  0  0  0  0  0
  -21.6860   -6.0727   22.5277 C   0  0  0  0  0  0
  -21.4012   -6.5629   23.8209 C   0  0  0  0  0  0
  -21.3670   -5.6788   24.9176 C   0  0  0  0  0  0
  -21.6064   -4.3050   24.7227 C   0  0  0  0  0  0
  -21.8825   -3.8141   23.4345 C   0  0  0  0  0  0
  -21.9196   -4.6954   22.3397 C   0  0  0  0  0  0
  -22.7849  -13.5194   21.1833 C   0  0  0  0  0  0
  -22.1666   -4.2151   21.0968 F   0  0  0  0  0  0
  -21.5631   -3.4523   25.7739 F   0  0  0  0  0  0
  -30.0085  -13.4563   20.4172 N   0  0  0  0  0  0
  -26.2991  -12.9448   20.3282 N   0  0  0  0  0  0
  -25.9377  -11.6580   20.5695 N   0  0  0  0  0  0
  -22.0499  -12.8188   22.0400 N   0  0  0  0  0  0
  -25.4182  -15.1948   20.4131 N   0  0  0  0  0  0
  -31.8297  -14.7590   20.0971 O   0  0  0  0  0  0
  -21.6641   -6.8872   21.4247 O   0  0  0  0  0  0
  -22.3529  -14.5485   20.6679 O   0  0  0  0  0  0
  -24.6274  -31.8600   23.2030 C   0  0  0  0  0  0
  -25.9115  -32.4779   23.8373 C   0  0  1  0  0  0
  -27.2185  -27.3095   20.1028 C   0  0  0  0  0  0
  -25.5938  -33.8586   24.2305 N   0  0  0  0  0  0
  -23.4226  -30.4838   21.5456 C   0  0  2  0  0  0
  -24.8648  -28.9389   20.1154 C   0  0  0  0  0  0
  -22.7487  -29.4636   22.4943 C   0  0  0  0  0  0
  -18.0299  -28.1383   22.8499 C   0  0  0  0  0  0
  -24.1495  -36.7284   23.2642 C   0  0  0  0  0  0
  -25.9684  -30.7837   21.3824 C   0  0  0  0  0  0
  -26.0362  -29.4126   20.7186 C   0  0  0  0  0  0
  -27.2154  -28.6078   20.7023 C   0  0  0  0  0  0
  -26.0264  -26.9039   19.4592 C   0  0  0  0  0  0
  -24.8597  -27.6881   19.4846 C   0  0  0  0  0  0
  -23.6354  -29.8196   20.1621 C   0  0  0  0  0  0
  -25.4126  -36.3092   24.0335 C   0  0  1  0  0  0
  -20.5909  -28.3693   23.1282 C   0  0  2  0  0  0
  -20.6794  -26.9414   22.5417 C   0  0  0  0  0  0
  -19.5763  -26.6379   21.5231 C   0  0  0  0  0  0
  -18.1932  -26.7929   22.1628 C   0  0  0  0  0  0
  -19.1553  -28.8858   23.2885 C   0  0  0  0  0  0
  -18.9467  -30.1468   23.8889 C   0  0  0  0  0  0
  -17.6465  -30.6583   24.0569 C   0  0  0  0  0  0
  -25.9055  -34.9452   23.5127 C   0  0  0  0  0  0
  -16.5365  -29.9074   23.6343 C   0  0  0  0  0  0
  -16.7288  -28.6499   23.0355 C   0  0  0  0  0  0
  -26.4500  -31.6599   25.0760 C   0  0  0  0  0  0
  -25.3728  -31.3718   26.1477 C   0  0  0  0  0  0
  -27.0374  -30.3022   24.6254 C   0  0  0  0  0  0
  -27.6038  -32.4347   25.7544 C   0  0  0  0  0  0
  -27.5596  -37.1807   24.8466 C   0  0  0  0  0  0
  -21.4203  -29.3045   22.3668 N   0  0  0  0  0  0
  -26.4312  -37.3776   23.9402 N   0  0  0  0  0  0
  -24.6911  -31.0605   22.0987 N   0  0  0  0  0  0
  -23.4216  -28.8178   23.3014 O   0  0  0  0  0  0
  -28.3452  -26.4686   20.1396 O   0  0  0  0  0  0
  -26.5606  -34.8909   22.4680 O   0  0  0  0  0  0
  -23.5429  -32.1402   23.7339 O   0  0  0  0  0  0
  -29.6688  -17.8256   17.4770 C   0  0  0  0  0  0
  -29.7133  -16.7663   18.3871 C   0  0  0  0  0  0
  -29.7876  -19.1513   17.9267 C   0  0  0  0  0  0
  -29.8407  -19.4080   19.3286 C   0  0  0  0  0  0
  -29.8578  -17.0075   19.7644 C   0  0  0  0  0  0
  -28.6059  -24.2234   21.3703 C   0  0  0  0  0  0
  -28.9616  -24.3125   18.9143 C   0  0  0  0  0  0
  -29.4336  -22.8845   21.2069 C   0  0  0  0  0  0
  -28.7203  -22.7596   18.8398 C   0  0  0  0  0  0
  -28.2022  -24.9860   20.0763 C   0  0  2  0  0  0
  -29.9378  -20.2051   16.8372 C   0  0  0  0  0  0
  -30.1453  -20.8610   19.8923 C   0  0  0  0  0  0
  -29.8654  -18.3262   20.2041 N   0  0  0  0  0  0
  -29.8811  -15.8102   20.6077 N   0  0  0  0  0  0
  -29.0920  -21.9620   20.0652 N   0  3  1  0  0  0
  -31.4768  -12.4860   19.1872 H   0  0  0  0  0  0
  -30.3289  -11.4111   19.9370 H   0  0  0  0  0  0
  -29.7899  -11.7591   17.4902 H   0  0  0  0  0  0
  -29.6886  -13.4740   17.7514 H   0  0  0  0  0  0
  -27.8450  -11.3170   18.8287 H   0  0  0  0  0  0
  -27.4085  -12.6329   17.7726 H   0  0  0  0  0  0
  -27.6481  -14.2711   19.5036 H   0  0  0  0  0  0
  -28.7074  -12.1338   21.4183 H   0  0  0  0  0  0
  -28.4493  -13.8119   21.8074 H   0  0  0  0  0  0
  -25.2781   -9.5668   22.4737 H   0  0  0  0  0  0
  -23.9998   -7.4657   22.7490 H   0  0  0  0  0  0
  -21.0851   -8.8766   19.8929 H   0  0  0  0  0  0
  -22.3731  -10.9653   19.6154 H   0  0  0  0  0  0
  -21.1991   -7.6137   23.9703 H   0  0  0  0  0  0
  -21.1495   -6.0521   25.9082 H   0  0  0  0  0  0
  -22.0592   -2.7602   23.2843 H   0  0  0  0  0  0
  -22.4104  -11.9812   22.4745 H   0  0  0  0  0  0
  -21.1122  -13.1232   22.2598 H   0  0  0  0  0  0
  -24.6394  -15.8394   20.5072 H   0  0  0  0  0  0
  -26.2567  -15.6413   20.0653 H   0  0  0  0  0  0
  -26.7188  -32.5427   23.1118 H   0  0  0  0  0  0
  -25.0163  -33.9745   25.0504 H   0  0  0  0  0  0
  -22.7195  -31.3047   21.4001 H   0  0  0  0  0  0
  -23.3777  -35.9596   23.3294 H   0  0  0  0  0  0
  -24.3598  -36.8909   22.2062 H   0  0  0  0  0  0
  -23.7217  -37.6471   23.6663 H   0  0  0  0  0  0
  -26.1197  -31.5537   20.6246 H   0  0  0  0  0  0
  -26.8405  -30.8147   22.0228 H   0  0  0  0  0  0
  -28.1177  -28.9685   21.1760 H   0  0  0  0  0  0
  -25.9615  -25.9756   18.9150 H   0  0  0  0  0  0
  -23.9614  -27.3212   19.0067 H   0  0  0  0  0  0
  -23.7527  -30.5927   19.4015 H   0  0  0  0  0  0
  -22.7564  -29.2436   19.8657 H   0  0  0  0  0  0
  -25.1309  -36.1975   25.0829 H   0  0  0  0  0  0
  -21.0015  -28.3269   24.1396 H   0  0  0  0  0  0
  -20.5752  -26.2292   23.3614 H   0  0  0  0  0  0
  -21.6655  -26.7449   22.1177 H   0  0  0  0  0  0
  -19.6916  -25.6286   21.1259 H   0  0  0  0  0  0
  -19.6705  -27.3208   20.6774 H   0  0  0  0  0  0
  -17.4224  -26.6730   21.4002 H   0  0  0  0  0  0
  -18.0286  -26.0070   22.9011 H   0  0  0  0  0  0
  -19.7943  -30.7308   24.2238 H   0  0  0  0  0  0
  -17.5004  -31.6264   24.5163 H   0  0  0  0  0  0
  -15.5355  -30.2966   23.7652 H   0  0  0  0  0  0
  -15.8695  -28.0814   22.7043 H   0  0  0  0  0  0
  -24.5902  -30.7076   25.7803 H   0  0  0  0  0  0
  -24.8925  -32.2872   26.4937 H   0  0  0  0  0  0
  -25.8052  -30.8875   27.0240 H   0  0  0  0  0  0
  -26.2983  -29.6746   24.1268 H   0  0  0  0  0  0
  -27.4051  -29.7311   25.4793 H   0  0  0  0  0  0
  -27.8854  -30.4319   23.9522 H   0  0  0  0  0  0
  -27.2637  -33.3650   26.2102 H   0  0  0  0  0  0
  -28.3861  -32.6899   25.0388 H   0  0  0  0  0  0
  -28.0687  -31.8489   26.5483 H   0  0  0  0  0  0
  -28.2592  -38.0125   24.7543 H   0  0  0  0  0  0
  -28.1115  -36.2654   24.6273 H   0  0  0  0  0  0
  -27.2304  -37.1431   25.8864 H   0  0  0  0  0  0
  -20.9388  -29.8745   21.6851 H   0  0  0  0  0  0
  -26.0204  -38.2858   24.1384 H   0  0  0  0  0  0
  -29.6006  -17.6082   16.4192 H   0  0  0  0  0  0
  -29.6501  -15.7618   17.9970 H   0  0  0  0  0  0
  -29.1982  -24.8949   21.9927 H   0  0  0  0  0  0
  -27.7040  -24.0285   21.9526 H   0  0  0  0  0  0
  -28.6396  -24.7699   17.9778 H   0  0  0  0  0  0
  -30.0320  -24.5115   18.9964 H   0  0  0  0  0  0
  -29.3705  -22.3213   22.1400 H   0  0  0  0  0  0
  -30.4835  -23.1665   21.1056 H   0  0  0  0  0  0
  -29.2455  -22.4010   17.9663 H   0  0  0  0  0  0
  -27.6642  -22.5829   18.6352 H   0  0  0  0  0  0
  -27.1626  -24.7068   19.9405 H   0  0  0  0  0  0
  -30.3280  -19.7568   15.9197 H   0  0  0  0  0  0
  -30.6466  -20.9911   17.0949 H   0  0  0  0  0  0
  -28.9737  -20.6418   16.5749 H   0  0  0  0  0  0
  -30.9785  -21.2847   19.3286 H   0  0  0  0  0  0
  -30.5769  -20.6823   20.8761 H   0  0  0  0  0  0
  -29.0287  -15.6594   21.1206 H   0  0  0  0  0  0
  -28.2580  -21.4649   20.3432 H   0  0  0  0  0  0
  1 25  1  0  0  0
  1 30  2  0  0  0
  1 84  1  0  0  0
  2  3  1  0  0  0
  2 25  1  0  0  0
  2 86  1  0  0  0
  2 87  1  0  0  0
  3  4  1  0  0  0
  3 88  1  0  0  0
  3 89  1  0  0  0
  4  5  1  0  0  0
  4 90  1  0  0  0
  4 91  1  0  0  0
  5  6  1  0  0  0
  5 26  1  0  0  0
  5 92  1  0  0  0
  6 25  1  0  0  0
  6 93  1  0  0  0
  6 94  1  0  0  0
  7  8  2  0  0  0
  7 26  1  0  0  0
  7 29  1  0  0  0
  8  9  1  0  0  0
  8 22  1  0  0  0
  9 10  1  0  0  0
  9 27  2  0  0  0
 10 11  2  0  0  0
 10 15  1  0  0  0
 11 12  1  0  0  0
 11 95  1  0  0  0
 12 13  2  0  0  0
 12 96  1  0  0  0
 13 14  1  0  0  0
 13 31  1  0  0  0
 14 15  2  0  0  0
 14 97  1  0  0  0
 15 98  1  0  0  0
 16 17  2  0  0  0
 16 21  1  0  0  0
 16 31  1  0  0  0
 17 18  1  0  0  0
 17 99  1  0  0  0
 18 19  2  0  0  0
 18100  1  0  0  0
 19 20  1  0  0  0
 19 24  1  0  0  0
 20 21  2  0  0  0
 20101  1  0  0  0
 21 23  1  0  0  0
 22 28  1  0  0  0
 22 32  2  0  0  0
 26 27  1  0  0  0
 28102  1  0  0  0
 28103  1  0  0  0
 29104  1  0  0  0
 29105  1  0  0  0
 33 34  1  0  0  0
 33 66  1  0  0  0
 33 70  2  0  0  0
 34 36  1  0  0  0
 34 59  1  0  0  0
 34106  1  0  0  0
 35 44  2  0  0  0
 35 45  1  0  0  0
 35 68  1  0  0  0
 36 56  1  0  0  0
 36107  1  0  0  0
 37 39  1  0  0  0
 37 47  1  0  0  0
 37 66  1  0  0  0
 37108  1  0  0  0
 38 43  2  0  0  0
 38 46  1  0  0  0
 38 47  1  0  0  0
 39 64  1  0  0  0
 39 67  2  0  0  0
 40 52  1  0  0  0
 40 53  2  0  0  0
 40 58  1  0  0  0
 41109  1  0  0  0
 41110  1  0  0  0
 41111  1  0  0  0
 41 48  1  0  0  0
 42 43  1  0  0  0
 42 66  1  0  0  0
 42112  1  0  0  0
 42113  1  0  0  0
 43 44  1  0  0  0
 44114  1  0  0  0
 45 46  2  0  0  0
 45115  1  0  0  0
 46116  1  0  0  0
 47117  1  0  0  0
 47118  1  0  0  0
 48 56  1  0  0  0
 48 65  1  0  0  0
 48119  1  0  0  0
 49 50  1  0  0  0
 49 53  1  0  0  0
 49 64  1  0  0  0
 49120  1  0  0  0
 50 51  1  0  0  0
 50121  1  0  0  0
 50122  1  0  0  0
 51 52  1  0  0  0
 51123  1  0  0  0
 51124  1  0  0  0
 52125  1  0  0  0
 52126  1  0  0  0
 53 54  1  0  0  0
 54 55  2  0  0  0
 54127  1  0  0  0
 55 57  1  0  0  0
 55128  1  0  0  0
 56 69  2  0  0  0
 57 58  2  0  0  0
 57129  1  0  0  0
 58130  1  0  0  0
 59 60  1  0  0  0
 59 61  1  0  0  0
 59 62  1  0  0  0
 60131  1  0  0  0
 60132  1  0  0  0
 60133  1  0  0  0
 61134  1  0  0  0
 61135  1  0  0  0
 61136  1  0  0  0
 62137  1  0  0  0
 62138  1  0  0  0
 62139  1  0  0  0
 63 65  1  0  0  0
 63140  1  0  0  0
 63141  1  0  0  0
 63142  1  0  0  0
 64143  1  0  0  0
 65144  1  0  0  0
 68 80  1  0  0  0
 71 72  2  0  0  0
 71 73  1  0  0  0
 71145  1  0  0  0
 72 75  1  0  0  0
 72146  1  0  0  0
 73 74  2  0  0  0
 73 81  1  0  0  0
 74 82  1  0  0  0
 74 83  1  0  0  0
 75 83  2  0  0  0
 75 84  1  0  0  0
 76 78  1  0  0  0
 76 80  1  0  0  0
 76147  1  0  0  0
 76148  1  0  0  0
 77 79  1  0  0  0
 77 80  1  0  0  0
 77149  1  0  0  0
 77150  1  0  0  0
 78 85  1  0  0  0
 78151  1  0  0  0
 78152  1  0  0  0
 79 85  1  0  0  0
 79153  1  0  0  0
 79154  1  0  0  0
 80155  1  0  0  0
 81156  1  0  0  0
 81157  1  0  0  0
 81158  1  0  0  0
 82159  1  0  0  0
 82160  1  0  0  0
 82 85  1  0  0  0
 84161  1  0  0  0
 85162  1  0  0  0
M  CHG  1  85   1
M  ISO  4   1 100  68 101  80 101  84 100
M  END
> <chiral flag>
0

> <version>
0

> <s_m_source_file>
/data/baiqing/PycharmProjects/Reinvent-master-3.2/result/LINK_invent/BTK/process_docking_weight1_custom_sum_contain_oxygen_bond_distance_aromatic_linkinvent_7_9_3/rearranged_h_0133.sdf

> <i_m_source_file_index>
44

> <r_mmod_Potential_Energy-OPLS-2005>
-145.946182250977

> <r_mmod_Stretch_Energy-OPLS-2005>
94.3124771118164

> <r_mmod_Bend_Energy-OPLS-2005>
167.991439819336

> <r_mmod_Torsional_Energy-OPLS-2005>
310.851501464844

> <r_mmod_Improper_Torsional_Energy-OPLS-2005>
7.69635057449341

> <r_mmod_Van_der_Waal_Energy-OPLS-2005>
156.8447265625

> <r_mmod_Electrostatic_Energy-OPLS-2005>
-475.532806396484

> <r_mmod_Solvation_Energy-OPLS-2005>
-466.068725585938

> <b_mmod_Minimization_Converged-OPLS-2005>
0

> <r_mmod_RMS_Derivative-OPLS-2005>
3.52163505554199

$$$$
45
                    3D
 Structure written by MMmdl.
167175  0  0  1  0            999 V2000
  -30.6094  -14.7356   20.4753 C   0  0  0  0  0  0
  -30.4346  -12.4533   19.4681 C   0  0  0  0  0  0
  -29.5093  -12.5043   18.2319 C   0  0  0  0  0  0
  -28.0359  -12.3269   18.6476 C   0  0  0  0  0  0
  -27.6413  -13.2271   19.8491 C   0  0  2  0  0  0
  -28.6860  -13.1541   20.9833 C   0  0  0  0  0  0
  -25.2521  -13.8181   20.5695 C   0  0  0  0  0  0
  -24.1812  -13.0436   20.9218 C   0  0  0  0  0  0
  -24.6400  -11.6909   20.8769 C   0  0  0  0  0  0
  -23.9077  -10.4285   21.0422 C   0  0  0  0  0  0
  -24.3628   -9.4203   21.9199 C   0  0  0  0  0  0
  -23.6305   -8.2237   22.0756 C   0  0  0  0  0  0
  -22.4286   -8.0278   21.3546 C   0  0  0  0  0  0
  -21.9924   -9.0257   20.4655 C   0  0  0  0  0  0
  -22.7251  -10.2134   20.3071 C   0  0  0  0  0  0
  -21.6855   -6.0748   22.5283 C   0  0  0  0  0  0
  -21.4019   -6.5652   23.8219 C   0  0  0  0  0  0
  -21.3656   -5.6801   24.9181 C   0  0  0  0  0  0
  -21.6041   -4.3062   24.7231 C   0  0  0  0  0  0
  -21.8819   -3.8158   23.4350 C   0  0  0  0  0  0
  -21.9198   -4.6975   22.3409 C   0  0  0  0  0  0
  -22.7832  -13.5221   21.1867 C   0  0  0  0  0  0
  -22.1661   -4.2163   21.0986 F   0  0  0  0  0  0
  -21.5624   -3.4543   25.7741 F   0  0  0  0  0  0
  -29.9857  -13.5110   20.4010 N   0  0  0  0  0  0
  -26.2935  -12.9372   20.3276 N   0  0  0  0  0  0
  -25.9324  -11.6525   20.5764 N   0  0  0  0  0  0
  -22.0465  -12.8216   22.0413 N   0  0  0  0  0  0
  -25.4223  -15.1901   20.4096 N   0  0  0  0  0  0
  -31.8003  -14.8408   20.1684 O   0  0  0  0  0  0
  -21.6640   -6.8879   21.4242 O   0  0  0  0  0  0
  -22.3520  -14.5523   20.6705 O   0  0  0  0  0  0
  -24.6328  -31.8556   23.1987 C   0  0  0  0  0  0
  -25.9156  -32.4752   23.8332 C   0  0  1  0  0  0
  -27.2187  -27.2564   20.1307 C   0  0  0  0  0  0
  -25.5948  -33.8556   24.2253 N   0  0  0  0  0  0
  -23.4295  -30.4785   21.5422 C   0  0  2  0  0  0
  -24.8771  -28.9290   20.1074 C   0  0  0  0  0  0
  -22.7520  -29.4605   22.4922 C   0  0  0  0  0  0
  -18.0298  -28.1371   22.8480 C   0  0  0  0  0  0
  -24.1496  -36.7287   23.2632 C   0  0  0  0  0  0
  -25.9770  -30.7656   21.3820 C   0  0  0  0  0  0
  -26.0490  -29.3891   20.7219 C   0  0  0  0  0  0
  -27.2215  -28.5645   20.7251 C   0  0  0  0  0  0
  -26.0273  -26.8794   19.4669 C   0  0  0  0  0  0
  -24.8724  -27.6823   19.4679 C   0  0  0  0  0  0
  -23.6473  -29.8138   20.1579 C   0  0  0  0  0  0
  -25.4120  -36.3071   24.0321 C   0  0  1  0  0  0
  -20.5905  -28.3692   23.1270 C   0  0  2  0  0  0
  -20.6788  -26.9407   22.5414 C   0  0  0  0  0  0
  -19.5768  -26.6369   21.5214 C   0  0  0  0  0  0
  -18.1942  -26.7915   22.1610 C   0  0  0  0  0  0
  -19.1550  -28.8847   23.2863 C   0  0  0  0  0  0
  -18.9468  -30.1450   23.8880 C   0  0  0  0  0  0
  -17.6465  -30.6570   24.0552 C   0  0  0  0  0  0
  -25.9065  -34.9442   23.5088 C   0  0  0  0  0  0
  -16.5358  -29.9064   23.6324 C   0  0  0  0  0  0
  -16.7283  -28.6479   23.0349 C   0  0  0  0  0  0
  -26.4496  -31.6575   25.0731 C   0  0  0  0  0  0
  -25.3707  -31.3759   26.1448 C   0  0  0  0  0  0
  -27.0320  -30.2973   24.6242 C   0  0  0  0  0  0
  -27.6049  -32.4308   25.7506 C   0  0  0  0  0  0
  -27.5592  -37.1790   24.8450 C   0  0  0  0  0  0
  -21.4225  -29.3039   22.3661 N   0  0  0  0  0  0
  -26.4286  -37.3780   23.9421 N   0  0  0  0  0  0
  -24.6987  -31.0520   22.0961 N   0  0  0  0  0  0
  -23.4219  -28.8152   23.3026 O   0  0  0  0  0  0
  -28.2957  -26.3359   20.2168 O   0  0  0  0  0  0
  -26.5639  -34.8918   22.4660 O   0  0  0  0  0  0
  -23.5479  -32.1388   23.7274 O   0  0  0  0  0  0
  -28.0420  -22.2715   20.8794 C   0  0  0  0  0  0
  -30.7102  -20.7358   20.0361 C   0  0  0  0  0  0
  -28.8797  -23.6115   20.5967 C   0  0  1  0  0  0
  -29.4516  -20.0866   20.6754 C   0  0  2  0  0  0
  -30.1809  -23.2477   19.8108 C   0  0  1  0  0  0
  -31.5763  -25.1882   20.8528 C   0  0  0  0  0  0
  -32.3229  -24.1112   18.6878 C   0  0  0  0  0  0
  -27.9965  -24.8662   20.0417 C   0  0  0  0  0  0
  -29.2302  -18.5059   20.3239 C   0  0  0  0  0  0
  -30.2391  -17.3358   20.8204 C   0  0  0  0  0  0
  -31.1116  -24.4706   19.5688 C   0  0  0  0  0  0
  -28.3288  -20.9552   20.2093 N   0  0  0  0  0  0
  -29.8335  -15.8621   20.7041 N   0  0  0  0  0  0
  -30.9576  -22.1463   20.4718 N   0  3  0  0  0  0
  -31.4738  -12.5855   19.1633 H   0  0  0  0  0  0
  -30.3856  -11.4757   19.9515 H   0  0  0  0  0  0
  -29.7911  -11.7297   17.5164 H   0  0  0  0  0  0
  -29.6352  -13.4585   17.7175 H   0  0  0  0  0  0
  -27.8952  -11.2785   18.9125 H   0  0  0  0  0  0
  -27.3782  -12.5158   17.7981 H   0  0  0  0  0  0
  -27.6373  -14.2499   19.4719 H   0  0  0  0  0  0
  -28.7212  -12.1512   21.4129 H   0  0  0  0  0  0
  -28.4210  -13.8271   21.7999 H   0  0  0  0  0  0
  -25.2772   -9.5682   22.4783 H   0  0  0  0  0  0
  -24.0029   -7.4617   22.7461 H   0  0  0  0  0  0
  -21.0862   -8.8773   19.8951 H   0  0  0  0  0  0
  -22.3710  -10.9682   19.6187 H   0  0  0  0  0  0
  -21.2008   -7.6161   23.9727 H   0  0  0  0  0  0
  -21.1477   -6.0530   25.9079 H   0  0  0  0  0  0
  -22.0602   -2.7623   23.2849 H   0  0  0  0  0  0
  -22.4090  -11.9903   22.4845 H   0  0  0  0  0  0
  -21.1074  -13.1242   22.2579 H   0  0  0  0  0  0
  -24.6553  -15.8446   20.5183 H   0  0  0  0  0  0
  -26.2638  -15.6249   20.0533 H   0  0  0  0  0  0
  -26.7230  -32.5397   23.1081 H   0  0  0  0  0  0
  -25.0085  -33.9691   25.0391 H   0  0  0  0  0  0
  -22.7257  -31.3005   21.3963 H   0  0  0  0  0  0
  -23.3770  -35.9602   23.3245 H   0  0  0  0  0  0
  -24.3600  -36.8965   22.2057 H   0  0  0  0  0  0
  -23.7221  -37.6463   23.6687 H   0  0  0  0  0  0
  -26.1222  -31.5283   20.6158 H   0  0  0  0  0  0
  -26.8523  -30.8110   22.0178 H   0  0  0  0  0  0
  -28.1122  -28.9067   21.2333 H   0  0  0  0  0  0
  -25.9504  -25.9325   18.9547 H   0  0  0  0  0  0
  -23.9785  -27.3265   18.9729 H   0  0  0  0  0  0
  -23.7701  -30.5900   19.4019 H   0  0  0  0  0  0
  -22.7664  -29.2453   19.8536 H   0  0  0  0  0  0
  -25.1296  -36.1906   25.0809 H   0  0  0  0  0  0
  -20.9987  -28.3266   24.1394 H   0  0  0  0  0  0
  -20.5685  -26.2306   23.3622 H   0  0  0  0  0  0
  -21.6658  -26.7429   22.1211 H   0  0  0  0  0  0
  -19.6933  -25.6278   21.1245 H   0  0  0  0  0  0
  -19.6699  -27.3181   20.6744 H   0  0  0  0  0  0
  -17.4224  -26.6681   21.3994 H   0  0  0  0  0  0
  -18.0316  -26.0043   22.8988 H   0  0  0  0  0  0
  -19.7947  -30.7269   24.2240 H   0  0  0  0  0  0
  -17.5017  -31.6251   24.5151 H   0  0  0  0  0  0
  -15.5357  -30.2955   23.7649 H   0  0  0  0  0  0
  -15.8688  -28.0787   22.7071 H   0  0  0  0  0  0
  -24.5899  -30.7073   25.7806 H   0  0  0  0  0  0
  -24.8869  -32.2936   26.4806 H   0  0  0  0  0  0
  -25.8020  -30.9007   27.0267 H   0  0  0  0  0  0
  -26.2903  -29.6741   24.1228 H   0  0  0  0  0  0
  -27.3927  -29.7225   25.4784 H   0  0  0  0  0  0
  -27.8824  -30.4217   23.9533 H   0  0  0  0  0  0
  -27.2653  -33.3604   26.2087 H   0  0  0  0  0  0
  -28.3860  -32.6873   25.0339 H   0  0  0  0  0  0
  -28.0711  -31.8425   26.5422 H   0  0  0  0  0  0
  -28.2569  -38.0128   24.7553 H   0  0  0  0  0  0
  -28.1122  -36.2660   24.6185 H   0  0  0  0  0  0
  -27.2325  -37.1340   25.8854 H   0  0  0  0  0  0
  -20.9421  -29.8760   21.6857 H   0  0  0  0  0  0
  -26.0157  -38.2844   24.1448 H   0  0  0  0  0  0
  -27.0023  -22.4899   20.6330 H   0  0  0  0  0  0
  -28.0202  -22.0921   21.9562 H   0  0  0  0  0  0
  -30.6713  -20.6810   18.9465 H   0  0  0  0  0  0
  -31.5805  -20.1487   20.3316 H   0  0  0  0  0  0
  -29.1924  -23.9337   21.5905 H   0  0  0  0  0  0
  -29.5128  -20.1612   21.7626 H   0  0  0  0  0  0
  -29.8751  -22.8922   18.8250 H   0  0  0  0  0  0
  -30.7392  -25.6069   21.4109 H   0  0  0  0  0  0
  -32.2336  -26.0244   20.6116 H   0  0  0  0  0  0
  -32.1282  -24.5273   21.5210 H   0  0  0  0  0  0
  -32.0113  -23.6181   17.7664 H   0  0  0  0  0  0
  -33.0259  -23.4533   19.1992 H   0  0  0  0  0  0
  -32.8743  -25.0081   18.4022 H   0  0  0  0  0  0
  -27.0268  -24.7202   20.5181 H   0  0  0  0  0  0
  -27.8290  -24.6943   18.9781 H   0  0  0  0  0  0
  -29.1360  -18.4150   19.2416 H   0  0  0  0  0  0
  -28.2454  -18.2400   20.7090 H   0  0  0  0  0  0
  -30.4425  -17.5046   21.8787 H   0  0  0  0  0  0
  -31.1975  -17.4707   20.3168 H   0  0  0  0  0  0
  -30.5352  -25.1995   18.9971 H   0  0  0  0  0  0
  -27.4765  -20.4020   20.2793 H   0  0  0  0  0  0
  -28.8599  -15.6656   20.8813 H   0  0  0  0  0  0
  -31.9202  -22.3296   20.2402 H   0  0  0  0  0  0
  -30.8767  -22.2101   21.4728 H   0  0  0  0  0  0
  1 25  1  0  0  0
  1 30  2  0  0  0
  1 83  1  0  0  0
  2  3  1  0  0  0
  2 25  1  0  0  0
  2 85  1  0  0  0
  2 86  1  0  0  0
  3  4  1  0  0  0
  3 87  1  0  0  0
  3 88  1  0  0  0
  4  5  1  0  0  0
  4 89  1  0  0  0
  4 90  1  0  0  0
  5  6  1  0  0  0
  5 26  1  0  0  0
  5 91  1  0  0  0
  6 25  1  0  0  0
  6 92  1  0  0  0
  6 93  1  0  0  0
  7  8  2  0  0  0
  7 26  1  0  0  0
  7 29  1  0  0  0
  8  9  1  0  0  0
  8 22  1  0  0  0
  9 10  1  0  0  0
  9 27  2  0  0  0
 10 11  2  0  0  0
 10 15  1  0  0  0
 11 12  1  0  0  0
 11 94  1  0  0  0
 12 13  2  0  0  0
 12 95  1  0  0  0
 13 14  1  0  0  0
 13 31  1  0  0  0
 14 15  2  0  0  0
 14 96  1  0  0  0
 15 97  1  0  0  0
 16 17  2  0  0  0
 16 21  1  0  0  0
 16 31  1  0  0  0
 17 18  1  0  0  0
 17 98  1  0  0  0
 18 19  2  0  0  0
 18 99  1  0  0  0
 19 20  1  0  0  0
 19 24  1  0  0  0
 20 21  2  0  0  0
 20100  1  0  0  0
 21 23  1  0  0  0
 22 28  1  0  0  0
 22 32  2  0  0  0
 26 27  1  0  0  0
 28101  1  0  0  0
 28102  1  0  0  0
 29103  1  0  0  0
 29104  1  0  0  0
 33 34  1  0  0  0
 33 66  1  0  0  0
 33 70  2  0  0  0
 34 36  1  0  0  0
 34 59  1  0  0  0
 34105  1  0  0  0
 35 44  2  0  0  0
 35 45  1  0  0  0
 35 68  1  0  0  0
 36 56  1  0  0  0
 36106  1  0  0  0
 37 39  1  0  0  0
 37 47  1  0  0  0
 37 66  1  0  0  0
 37107  1  0  0  0
 38 43  2  0  0  0
 38 46  1  0  0  0
 38 47  1  0  0  0
 39 64  1  0  0  0
 39 67  2  0  0  0
 40 52  1  0  0  0
 40 53  2  0  0  0
 40 58  1  0  0  0
 41108  1  0  0  0
 41109  1  0  0  0
 41110  1  0  0  0
 41 48  1  0  0  0
 42 43  1  0  0  0
 42 66  1  0  0  0
 42111  1  0  0  0
 42112  1  0  0  0
 43 44  1  0  0  0
 44113  1  0  0  0
 45 46  2  0  0  0
 45114  1  0  0  0
 46115  1  0  0  0
 47116  1  0  0  0
 47117  1  0  0  0
 48 56  1  0  0  0
 48 65  1  0  0  0
 48118  1  0  0  0
 49 50  1  0  0  0
 49 53  1  0  0  0
 49 64  1  0  0  0
 49119  1  0  0  0
 50 51  1  0  0  0
 50120  1  0  0  0
 50121  1  0  0  0
 51 52  1  0  0  0
 51122  1  0  0  0
 51123  1  0  0  0
 52124  1  0  0  0
 52125  1  0  0  0
 53 54  1  0  0  0
 54 55  2  0  0  0
 54126  1  0  0  0
 55 57  1  0  0  0
 55127  1  0  0  0
 56 69  2  0  0  0
 57 58  2  0  0  0
 57128  1  0  0  0
 58129  1  0  0  0
 59 60  1  0  0  0
 59 61  1  0  0  0
 59 62  1  0  0  0
 60130  1  0  0  0
 60131  1  0  0  0
 60132  1  0  0  0
 61133  1  0  0  0
 61134  1  0  0  0
 61135  1  0  0  0
 62136  1  0  0  0
 62137  1  0  0  0
 62138  1  0  0  0
 63 65  1  0  0  0
 63139  1  0  0  0
 63140  1  0  0  0
 63141  1  0  0  0
 64142  1  0  0  0
 65143  1  0  0  0
 68 78  1  0  0  0
 71 73  1  0  0  0
 71 82  1  0  0  0
 71144  1  0  0  0
 71145  1  0  0  0
 72 74  1  0  0  0
 72 84  1  0  0  0
 72146  1  0  0  0
 72147  1  0  0  0
 73 75  1  0  0  0
 73 78  1  0  0  0
 73148  1  0  0  0
 74 79  1  0  0  0
 74 82  1  0  0  0
 74149  1  0  0  0
 75 81  1  0  0  0
 75 84  1  0  0  0
 75150  1  0  0  0
 76151  1  0  0  0
 76152  1  0  0  0
 76153  1  0  0  0
 76 81  1  0  0  0
 77 81  1  0  0  0
 77154  1  0  0  0
 77155  1  0  0  0
 77156  1  0  0  0
 78157  1  0  0  0
 78158  1  0  0  0
 79 80  1  0  0  0
 79159  1  0  0  0
 79160  1  0  0  0
 80 83  1  0  0  0
 80161  1  0  0  0
 80162  1  0  0  0
 81163  1  0  0  0
 82164  1  0  0  0
 83165  1  0  0  0
 84166  1  0  0  0
 84167  1  0  0  0
M  CHG  1  84   1
M  ISO  4   1 100  68 101  78 101  83 100
M  END
> <chiral flag>
0

> <version>
0

> <s_m_source_file>
/data/baiqing/PycharmProjects/Reinvent-master-3.2/result/LINK_invent/BTK/process_docking_weight1_custom_sum_contain_oxygen_bond_distance_aromatic_linkinvent_7_9_3/rearranged_h_0133.sdf

> <i_m_source_file_index>
45

> <r_mmod_Potential_Energy-OPLS-2005>
115.760345458984

> <r_mmod_Stretch_Energy-OPLS-2005>
127.405609130859

> <r_mmod_Bend_Energy-OPLS-2005>
198.878692626953

> <r_mmod_Torsional_Energy-OPLS-2005>
275.9931640625

> <r_mmod_Improper_Torsional_Energy-OPLS-2005>
4.28782653808594

> <r_mmod_Van_der_Waal_Energy-OPLS-2005>
129.188522338867

> <r_mmod_Electrostatic_Energy-OPLS-2005>
-264.950347900391

> <r_mmod_Solvation_Energy-OPLS-2005>
-443.414764404297

> <b_mmod_Minimization_Converged-OPLS-2005>
0

> <r_mmod_RMS_Derivative-OPLS-2005>
1.43997323513031

$$$$
46
                    3D
 Structure written by MMmdl.
147155  0  0  1  0            999 V2000
  -30.4751  -15.1823   20.3805 C   0  0  0  0  0  0
  -30.4354  -12.7503   19.5208 C   0  0  0  0  0  0
  -29.5293  -12.5597   18.2802 C   0  0  0  0  0  0
  -28.0737  -12.3019   18.7063 C   0  0  0  0  0  0
  -27.6140  -13.2691   19.8262 C   0  0  2  0  0  0
  -28.6501  -13.4142   20.9608 C   0  0  0  0  0  0
  -25.2396  -13.8243   20.5741 C   0  0  0  0  0  0
  -24.1743  -13.0438   20.9256 C   0  0  0  0  0  0
  -24.6391  -11.6934   20.8765 C   0  0  0  0  0  0
  -23.9084  -10.4293   21.0410 C   0  0  0  0  0  0
  -24.3633   -9.4206   21.9185 C   0  0  0  0  0  0
  -23.6307   -8.2242   22.0750 C   0  0  0  0  0  0
  -22.4286   -8.0281   21.3544 C   0  0  0  0  0  0
  -21.9928   -9.0255   20.4643 C   0  0  0  0  0  0
  -22.7259  -10.2134   20.3055 C   0  0  0  0  0  0
  -21.6855   -6.0739   22.5281 C   0  0  0  0  0  0
  -21.4015   -6.5642   23.8214 C   0  0  0  0  0  0
  -21.3659   -5.6794   24.9175 C   0  0  0  0  0  0
  -21.6045   -4.3055   24.7226 C   0  0  0  0  0  0
  -21.8819   -3.8149   23.4346 C   0  0  0  0  0  0
  -21.9196   -4.6968   22.3404 C   0  0  0  0  0  0
  -22.7761  -13.5192   21.1912 C   0  0  0  0  0  0
  -22.1663   -4.2153   21.0981 F   0  0  0  0  0  0
  -21.5631   -3.4538   25.7738 F   0  0  0  0  0  0
  -29.8927  -13.8922   20.3375 N   0  0  0  0  0  0
  -26.2822  -12.9509   20.3229 N   0  0  0  0  0  0
  -25.9325  -11.6618   20.5732 N   0  0  0  0  0  0
  -22.0426  -12.8163   22.0464 N   0  0  0  0  0  0
  -25.4030  -15.1977   20.4173 N   0  0  0  0  0  0
  -31.6935  -15.1828   20.1597 O   0  0  0  0  0  0
  -21.6644   -6.8882   21.4241 O   0  0  0  0  0  0
  -22.3438  -14.5497   20.6759 O   0  0  0  0  0  0
  -24.6588  -31.8286   23.1761 C   0  0  0  0  0  0
  -25.9293  -32.4618   23.8201 C   0  0  1  0  0  0
  -27.2114  -26.9740   20.1745 C   0  0  0  0  0  0
  -25.5981  -33.8429   24.2108 N   0  0  0  0  0  0
  -23.4707  -30.4443   21.5237 C   0  0  2  0  0  0
  -24.9232  -28.8455   20.1093 C   0  0  0  0  0  0
  -22.7642  -29.4472   22.4790 C   0  0  0  0  0  0
  -18.0320  -28.1410   22.8475 C   0  0  0  0  0  0
  -24.1486  -36.7203   23.2645 C   0  0  0  0  0  0
  -26.0381  -30.6502   21.4006 C   0  0  0  0  0  0
  -26.1063  -29.2463   20.7427 C   0  0  0  0  0  0
  -27.2474  -28.3300   20.7549 C   0  0  0  0  0  0
  -26.0015  -26.7223   19.4877 C   0  0  0  0  0  0
  -24.8939  -27.6023   19.4623 C   0  0  0  0  0  0
  -23.7077  -29.7672   20.1472 C   0  0  0  0  0  0
  -25.4125  -36.2979   24.0306 C   0  0  1  0  0  0
  -20.5944  -28.3749   23.1193 C   0  0  2  0  0  0
  -20.6796  -26.9435   22.5401 C   0  0  0  0  0  0
  -19.5767  -26.6385   21.5213 C   0  0  0  0  0  0
  -18.1950  -26.7945   22.1627 C   0  0  0  0  0  0
  -19.1582  -28.8900   23.2826 C   0  0  0  0  0  0
  -18.9495  -30.1489   23.8861 C   0  0  0  0  0  0
  -17.6490  -30.6605   24.0555 C   0  0  0  0  0  0
  -25.9093  -34.9366   23.5024 C   0  0  0  0  0  0
  -16.5377  -29.9094   23.6348 C   0  0  0  0  0  0
  -16.7304  -28.6512   23.0375 C   0  0  0  0  0  0
  -26.4558  -31.6552   25.0712 C   0  0  0  0  0  0
  -25.3702  -31.3799   26.1381 C   0  0  0  0  0  0
  -27.0443  -30.2921   24.6420 C   0  0  0  0  0  0
  -27.6054  -32.4355   25.7514 C   0  0  0  0  0  0
  -27.5563  -37.1755   24.8468 C   0  0  0  0  0  0
  -21.4319  -29.3048   22.3543 N   0  0  0  0  0  0
  -26.4267  -37.3717   23.9420 N   0  0  0  0  0  0
  -24.7433  -30.9997   22.0872 N   0  0  0  0  0  0
  -23.4214  -28.8031   23.3007 O   0  0  0  0  0  0
  -28.1962  -25.8671   20.2637 O   0  0  0  0  0  0
  -26.5687  -34.8895   22.4609 O   0  0  0  0  0  0
  -23.5671  -32.1232   23.6885 O   0  0  0  0  0  0
  -28.2774  -20.1783   20.9076 C   0  0  0  0  0  0
  -30.1456  -20.7584   19.6963 C   0  0  0  0  0  0
  -27.8545  -21.6057   20.8710 C   0  0  0  0  0  0
  -29.7223  -22.1796   19.6571 C   0  0  0  0  0  0
  -29.4725  -19.6132   20.3050 C   0  0  0  0  0  0
  -28.5298  -22.7500   20.2537 C   0  0  0  0  0  0
  -30.1825  -18.0265   20.3361 C   0  0  0  0  0  0
  -27.8040  -24.3101   20.0193 C   0  0  0  0  0  0
  -29.7353  -16.4509   20.4631 N   0  0  0  0  0  0
  -31.4594  -12.9371   19.1947 H   0  0  0  0  0  0
  -30.4796  -11.8355   20.1142 H   0  0  0  0  0  0
  -29.8932  -11.7354   17.6652 H   0  0  0  0  0  0
  -29.5747  -13.4531   17.6556 H   0  0  0  0  0  0
  -28.0144  -11.2735   19.0644 H   0  0  0  0  0  0
  -27.4061  -12.3652   17.8463 H   0  0  0  0  0  0
  -27.5393  -14.2436   19.3423 H   0  0  0  0  0  0
  -28.7973  -12.4727   21.4919 H   0  0  0  0  0  0
  -28.3051  -14.1392   21.6999 H   0  0  0  0  0  0
  -25.2775   -9.5686   22.4766 H   0  0  0  0  0  0
  -24.0018   -7.4629   22.7465 H   0  0  0  0  0  0
  -21.0861   -8.8777   19.8943 H   0  0  0  0  0  0
  -22.3716  -10.9677   19.6168 H   0  0  0  0  0  0
  -21.2001   -7.6149   23.9719 H   0  0  0  0  0  0
  -21.1482   -6.0522   25.9080 H   0  0  0  0  0  0
  -22.0598   -2.7611   23.2844 H   0  0  0  0  0  0
  -22.4066  -11.9826   22.4836 H   0  0  0  0  0  0
  -21.1039  -13.1162   22.2684 H   0  0  0  0  0  0
  -24.6307  -15.8462   20.5268 H   0  0  0  0  0  0
  -26.2426  -15.6401   20.0678 H   0  0  0  0  0  0
  -26.7360  -32.5170   23.0915 H   0  0  0  0  0  0
  -25.0108  -33.9519   25.0247 H   0  0  0  0  0  0
  -22.7817  -31.2753   21.3586 H   0  0  0  0  0  0
  -23.3765  -35.9516   23.3288 H   0  0  0  0  0  0
  -24.3561  -36.8862   22.2063 H   0  0  0  0  0  0
  -23.7225  -37.6381   23.6704 H   0  0  0  0  0  0
  -26.2147  -31.3959   20.6243 H   0  0  0  0  0  0
  -26.8998  -30.7033   22.0539 H   0  0  0  0  0  0
  -28.1398  -28.6311   21.2848 H   0  0  0  0  0  0
  -25.8646  -25.7763   18.9864 H   0  0  0  0  0  0
  -23.9957  -27.2900   18.9472 H   0  0  0  0  0  0
  -23.8604  -30.5388   19.3918 H   0  0  0  0  0  0
  -22.8182  -29.2207   19.8291 H   0  0  0  0  0  0
  -25.1322  -36.1770   25.0795 H   0  0  0  0  0  0
  -21.0038  -28.3354   24.1314 H   0  0  0  0  0  0
  -20.5671  -26.2370   23.3639 H   0  0  0  0  0  0
  -21.6659  -26.7417   22.1202 H   0  0  0  0  0  0
  -19.6920  -25.6286   21.1269 H   0  0  0  0  0  0
  -19.6698  -27.3172   20.6723 H   0  0  0  0  0  0
  -17.4213  -26.6691   21.4036 H   0  0  0  0  0  0
  -18.0346  -26.0100   22.9037 H   0  0  0  0  0  0
  -19.7970  -30.7314   24.2214 H   0  0  0  0  0  0
  -17.5045  -31.6283   24.5161 H   0  0  0  0  0  0
  -15.5376  -30.2985   23.7697 H   0  0  0  0  0  0
  -15.8703  -28.0812   22.7124 H   0  0  0  0  0  0
  -24.5887  -30.7140   25.7706 H   0  0  0  0  0  0
  -24.8887  -32.3001   26.4697 H   0  0  0  0  0  0
  -25.7949  -30.9045   27.0232 H   0  0  0  0  0  0
  -26.3101  -29.6613   24.1393 H   0  0  0  0  0  0
  -27.3950  -29.7270   25.5066 H   0  0  0  0  0  0
  -27.9059  -30.4114   23.9849 H   0  0  0  0  0  0
  -27.2623  -33.3701   26.1969 H   0  0  0  0  0  0
  -28.3933  -32.6842   25.0392 H   0  0  0  0  0  0
  -28.0644  -31.8559   26.5535 H   0  0  0  0  0  0
  -28.2564  -38.0066   24.7527 H   0  0  0  0  0  0
  -28.1075  -36.2596   24.6281 H   0  0  0  0  0  0
  -27.2284  -37.1386   25.8872 H   0  0  0  0  0  0
  -20.9555  -29.8749   21.6692 H   0  0  0  0  0  0
  -26.0113  -38.2769   24.1454 H   0  0  0  0  0  0
  -27.6291  -19.4927   21.4361 H   0  0  0  0  0  0
  -31.0814  -20.5404   19.1999 H   0  0  0  0  0  0
  -26.9033  -21.8209   21.3381 H   0  0  0  0  0  0
  -30.3513  -22.8578   19.0974 H   0  0  0  0  0  0
  -30.9305  -18.1209   21.1241 H   0  0  0  0  0  0
  -30.7794  -18.0194   19.4234 H   0  0  0  0  0  0
  -26.8452  -24.2068   20.5276 H   0  0  0  0  0  0
  -27.5507  -24.2802   18.9596 H   0  0  0  0  0  0
  -28.7435  -16.3219   20.5965 H   0  0  0  0  0  0
  1 25  1  0  0  0
  1 30  2  0  0  0
  1 79  1  0  0  0
  2  3  1  0  0  0
  2 25  1  0  0  0
  2 80  1  0  0  0
  2 81  1  0  0  0
  3  4  1  0  0  0
  3 82  1  0  0  0
  3 83  1  0  0  0
  4  5  1  0  0  0
  4 84  1  0  0  0
  4 85  1  0  0  0
  5  6  1  0  0  0
  5 26  1  0  0  0
  5 86  1  0  0  0
  6 25  1  0  0  0
  6 87  1  0  0  0
  6 88  1  0  0  0
  7  8  2  0  0  0
  7 26  1  0  0  0
  7 29  1  0  0  0
  8  9  1  0  0  0
  8 22  1  0  0  0
  9 10  1  0  0  0
  9 27  2  0  0  0
 10 11  2  0  0  0
 10 15  1  0  0  0
 11 12  1  0  0  0
 11 89  1  0  0  0
 12 13  2  0  0  0
 12 90  1  0  0  0
 13 14  1  0  0  0
 13 31  1  0  0  0
 14 15  2  0  0  0
 14 91  1  0  0  0
 15 92  1  0  0  0
 16 17  2  0  0  0
 16 21  1  0  0  0
 16 31  1  0  0  0
 17 18  1  0  0  0
 17 93  1  0  0  0
 18 19  2  0  0  0
 18 94  1  0  0  0
 19 20  1  0  0  0
 19 24  1  0  0  0
 20 21  2  0  0  0
 20 95  1  0  0  0
 21 23  1  0  0  0
 22 28  1  0  0  0
 22 32  2  0  0  0
 26 27  1  0  0  0
 28 96  1  0  0  0
 28 97  1  0  0  0
 29 98  1  0  0  0
 29 99  1  0  0  0
 33 34  1  0  0  0
 33 66  1  0  0  0
 33 70  2  0  0  0
 34 36  1  0  0  0
 34 59  1  0  0  0
 34100  1  0  0  0
 35 44  2  0  0  0
 35 45  1  0  0  0
 35 68  1  0  0  0
 36 56  1  0  0  0
 36101  1  0  0  0
 37 39  1  0  0  0
 37 47  1  0  0  0
 37 66  1  0  0  0
 37102  1  0  0  0
 38 43  2  0  0  0
 38 46  1  0  0  0
 38 47  1  0  0  0
 39 64  1  0  0  0
 39 67  2  0  0  0
 40 52  1  0  0  0
 40 53  2  0  0  0
 40 58  1  0  0  0
 41103  1  0  0  0
 41104  1  0  0  0
 41105  1  0  0  0
 41 48  1  0  0  0
 42 43  1  0  0  0
 42 66  1  0  0  0
 42106  1  0  0  0
 42107  1  0  0  0
 43 44  1  0  0  0
 44108  1  0  0  0
 45 46  2  0  0  0
 45109  1  0  0  0
 46110  1  0  0  0
 47111  1  0  0  0
 47112  1  0  0  0
 48 56  1  0  0  0
 48 65  1  0  0  0
 48113  1  0  0  0
 49 50  1  0  0  0
 49 53  1  0  0  0
 49 64  1  0  0  0
 49114  1  0  0  0
 50 51  1  0  0  0
 50115  1  0  0  0
 50116  1  0  0  0
 51 52  1  0  0  0
 51117  1  0  0  0
 51118  1  0  0  0
 52119  1  0  0  0
 52120  1  0  0  0
 53 54  1  0  0  0
 54 55  2  0  0  0
 54121  1  0  0  0
 55 57  1  0  0  0
 55122  1  0  0  0
 56 69  2  0  0  0
 57 58  2  0  0  0
 57123  1  0  0  0
 58124  1  0  0  0
 59 60  1  0  0  0
 59 61  1  0  0  0
 59 62  1  0  0  0
 60125  1  0  0  0
 60126  1  0  0  0
 60127  1  0  0  0
 61128  1  0  0  0
 61129  1  0  0  0
 61130  1  0  0  0
 62131  1  0  0  0
 62132  1  0  0  0
 62133  1  0  0  0
 63 65  1  0  0  0
 63134  1  0  0  0
 63135  1  0  0  0
 63136  1  0  0  0
 64137  1  0  0  0
 65138  1  0  0  0
 68 78  1  0  0  0
 71 73  2  0  0  0
 71 75  1  0  0  0
 71139  1  0  0  0
 72 74  1  0  0  0
 72 75  2  0  0  0
 72140  1  0  0  0
 73 76  1  0  0  0
 73141  1  0  0  0
 74 76  2  0  0  0
 74142  1  0  0  0
 75 77  1  0  0  0
 76 78  1  0  0  0
 77 79  1  0  0  0
 77143  1  0  0  0
 77144  1  0  0  0
 78145  1  0  0  0
 78146  1  0  0  0
 79147  1  0  0  0
M  ISO  4   1 100  68 101  78 101  79 100
M  END
> <chiral flag>
0

> <version>
0

> <s_m_source_file>
/data/baiqing/PycharmProjects/Reinvent-master-3.2/result/LINK_invent/BTK/process_docking_weight1_custom_sum_contain_oxygen_bond_distance_aromatic_linkinvent_7_9_3/rearranged_h_0133.sdf

> <i_m_source_file_index>
46

> <r_mmod_Potential_Energy-OPLS-2005>
1015.4599609375

> <r_mmod_Stretch_Energy-OPLS-2005>
443.456787109375

> <r_mmod_Bend_Energy-OPLS-2005>
422.297058105469

> <r_mmod_Torsional_Energy-OPLS-2005>
215.021911621094

> <r_mmod_Improper_Torsional_Energy-OPLS-2005>
7.18429374694824

> <r_mmod_Van_der_Waal_Energy-OPLS-2005>
133.087112426758

> <r_mmod_Electrostatic_Energy-OPLS-2005>
-379.332244873047

> <r_mmod_Solvation_Energy-OPLS-2005>
-213.699493408203

> <b_mmod_Minimization_Converged-OPLS-2005>
0

> <r_mmod_RMS_Derivative-OPLS-2005>
0.623550474643707

$$$$
47
                    3D
 Structure written by MMmdl.
160169  0  0  1  0            999 V2000
  -30.5838  -14.8559   20.4741 C   0  0  0  0  0  0
  -30.4377  -12.5430   19.4845 C   0  0  0  0  0  0
  -29.5171  -12.5308   18.2445 C   0  0  0  0  0  0
  -28.0463  -12.3332   18.6542 C   0  0  0  0  0  0
  -27.6342  -13.2449   19.8398 C   0  0  2  0  0  0
  -28.6738  -13.2318   20.9808 C   0  0  0  0  0  0
  -25.2488  -13.8241   20.5678 C   0  0  0  0  0  0
  -24.1796  -13.0461   20.9213 C   0  0  0  0  0  0
  -24.6402  -11.6946   20.8717 C   0  0  0  0  0  0
  -23.9084  -10.4322   21.0376 C   0  0  0  0  0  0
  -24.3636   -9.4237   21.9153 C   0  0  0  0  0  0
  -23.6326   -8.2257   22.0715 C   0  0  0  0  0  0
  -22.4296   -8.0284   21.3524 C   0  0  0  0  0  0
  -21.9929   -9.0253   20.4620 C   0  0  0  0  0  0
  -22.7250  -10.2144   20.3028 C   0  0  0  0  0  0
  -21.6886   -6.0741   22.5269 C   0  0  0  0  0  0
  -21.4031   -6.5637   23.8196 C   0  0  0  0  0  0
  -21.3668   -5.6776   24.9156 C   0  0  0  0  0  0
  -21.6043   -4.3038   24.7196 C   0  0  0  0  0  0
  -21.8841   -3.8140   23.4319 C   0  0  0  0  0  0
  -21.9214   -4.6969   22.3383 C   0  0  0  0  0  0
  -22.7820  -13.5216   21.1881 C   0  0  0  0  0  0
  -22.1672   -4.2163   21.0959 F   0  0  0  0  0  0
  -21.5638   -3.4509   25.7710 F   0  0  0  0  0  0
  -29.9668  -13.6167   20.4003 N   0  0  0  0  0  0
  -26.2898  -12.9450   20.3238 N   0  0  0  0  0  0
  -25.9334  -11.6584   20.5729 N   0  0  0  0  0  0
  -22.0488  -12.8169   22.0435 N   0  0  0  0  0  0
  -25.4189  -15.1959   20.4092 N   0  0  0  0  0  0
  -31.7731  -14.9395   20.1574 O   0  0  0  0  0  0
  -21.6661   -6.8880   21.4230 O   0  0  0  0  0  0
  -22.3489  -14.5509   20.6748 O   0  0  0  0  0  0
  -24.6392  -31.8526   23.1947 C   0  0  0  0  0  0
  -25.9200  -32.4720   23.8289 C   0  0  1  0  0  0
  -27.2011  -27.1879   20.1584 C   0  0  0  0  0  0
  -25.5996  -33.8520   24.2234 N   0  0  0  0  0  0
  -23.4339  -30.4810   21.5382 C   0  0  2  0  0  0
  -24.8806  -28.9247   20.1057 C   0  0  0  0  0  0
  -22.7527  -29.4643   22.4854 C   0  0  0  0  0  0
  -18.0314  -28.1392   22.8509 C   0  0  0  0  0  0
  -24.1494  -36.7263   23.2633 C   0  0  0  0  0  0
  -25.9873  -30.7453   21.3832 C   0  0  0  0  0  0
  -26.0574  -29.3631   20.7275 C   0  0  0  0  0  0
  -27.2175  -28.5107   20.7438 C   0  0  0  0  0  0
  -26.0043  -26.8560   19.4740 C   0  0  0  0  0  0
  -24.8638  -27.6799   19.4673 C   0  0  0  0  0  0
  -23.6541  -29.8190   20.1540 C   0  0  0  0  0  0
  -25.4121  -36.3033   24.0317 C   0  0  1  0  0  0
  -20.5923  -28.3735   23.1239 C   0  0  2  0  0  0
  -20.6815  -26.9440   22.5410 C   0  0  0  0  0  0
  -19.5785  -26.6398   21.5228 C   0  0  0  0  0  0
  -18.1961  -26.7938   22.1635 C   0  0  0  0  0  0
  -19.1568  -28.8882   23.2870 C   0  0  0  0  0  0
  -18.9491  -30.1478   23.8896 C   0  0  0  0  0  0
  -17.6486  -30.6600   24.0565 C   0  0  0  0  0  0
  -25.9094  -34.9403   23.5074 C   0  0  0  0  0  0
  -16.5378  -29.9099   23.6321 C   0  0  0  0  0  0
  -16.7297  -28.6500   23.0376 C   0  0  0  0  0  0
  -26.4528  -31.6556   25.0699 C   0  0  0  0  0  0
  -25.3745  -31.3756   26.1422 C   0  0  0  0  0  0
  -27.0378  -30.2955   24.6240 C   0  0  0  0  0  0
  -27.6054  -32.4319   25.7508 C   0  0  0  0  0  0
  -27.5570  -37.1787   24.8461 C   0  0  0  0  0  0
  -21.4237  -29.3070   22.3595 N   0  0  0  0  0  0
  -26.4275  -37.3750   23.9406 N   0  0  0  0  0  0
  -24.7060  -31.0471   22.0939 N   0  0  0  0  0  0
  -23.4203  -28.8186   23.2974 O   0  0  0  0  0  0
  -28.2309  -26.1932   20.2854 O   0  0  0  0  0  0
  -26.5638  -34.8896   22.4627 O   0  0  0  0  0  0
  -23.5543  -32.1374   23.7227 O   0  0  0  0  0  0
  -28.3291  -21.0929   21.5705 C   0  0  0  0  0  0
  -28.0612  -22.5054   21.4595 C   0  0  0  0  0  0
  -29.7020  -21.1757   19.6345 C   0  0  0  0  0  0
  -29.4732  -22.6227   19.5561 C   0  0  0  0  0  0
  -29.0919  -20.3298   20.6291 C   0  0  0  0  0  0
  -28.5641  -23.3346   20.4078 C   0  0  0  0  0  0
  -30.6299  -20.5143   18.6181 C   0  0  0  0  0  0
  -30.1942  -23.4530   18.4952 C   0  0  0  0  0  0
  -31.1049  -21.4570   17.4977 C   0  0  0  0  0  0
  -28.9979  -18.6884   20.6284 C   0  0  0  0  0  0
  -27.8412  -24.7391   20.0017 C   0  0  0  0  0  0
  -30.1844  -17.5356   20.6419 C   0  0  0  0  0  0
  -29.8223  -16.0165   20.7046 N   0  0  0  0  0  0
  -31.4234  -22.7854   18.0471 N   0  3  0  0  0  0
  -30.4296  -11.5765   19.9892 H   0  0  0  0  0  0
  -31.4670  -12.7035   19.1690 H   0  0  0  0  0  0
  -29.8248  -11.7404   17.5587 H   0  0  0  0  0  0
  -29.6310  -13.4683   17.6994 H   0  0  0  0  0  0
  -27.9158  -11.2860   18.9282 H   0  0  0  0  0  0
  -27.3922  -12.5094   17.8000 H   0  0  0  0  0  0
  -27.6111  -14.2567   19.4352 H   0  0  0  0  0  0
  -28.3850  -13.9292   21.7671 H   0  0  0  0  0  0
  -28.7277  -12.2476   21.4477 H   0  0  0  0  0  0
  -25.2795   -9.5740   22.4712 H   0  0  0  0  0  0
  -24.0079   -7.4648   22.7406 H   0  0  0  0  0  0
  -21.0879   -8.8752   19.8910 H   0  0  0  0  0  0
  -22.3702  -10.9665   19.6116 H   0  0  0  0  0  0
  -21.2003   -7.6136   23.9716 H   0  0  0  0  0  0
  -21.1471   -6.0486   25.9074 H   0  0  0  0  0  0
  -22.0615   -2.7609   23.2793 H   0  0  0  0  0  0
  -22.4163  -11.9866   22.4845 H   0  0  0  0  0  0
  -21.1067  -13.1118   22.2595 H   0  0  0  0  0  0
  -24.6505  -15.8491   20.5125 H   0  0  0  0  0  0
  -26.2613  -15.6353   20.0603 H   0  0  0  0  0  0
  -26.7261  -32.5330   23.1012 H   0  0  0  0  0  0
  -25.0142  -33.9659   25.0377 H   0  0  0  0  0  0
  -22.7341  -31.3055   21.3930 H   0  0  0  0  0  0
  -23.3746  -35.9611   23.3294 H   0  0  0  0  0  0
  -24.3579  -36.8903   22.2050 H   0  0  0  0  0  0
  -23.7273  -37.6472   23.6669 H   0  0  0  0  0  0
  -26.1385  -31.4990   20.6091 H   0  0  0  0  0  0
  -26.8608  -30.7934   22.0199 H   0  0  0  0  0  0
  -28.1025  -28.8426   21.2672 H   0  0  0  0  0  0
  -25.8805  -25.9148   18.9621 H   0  0  0  0  0  0
  -23.9658  -27.3365   18.9736 H   0  0  0  0  0  0
  -23.7814  -30.5968   19.4008 H   0  0  0  0  0  0
  -22.7672  -29.2605   19.8446 H   0  0  0  0  0  0
  -25.1300  -36.1855   25.0814 H   0  0  0  0  0  0
  -21.0040  -28.3338   24.1343 H   0  0  0  0  0  0
  -20.5756  -26.2344   23.3621 H   0  0  0  0  0  0
  -21.6678  -26.7483   22.1172 H   0  0  0  0  0  0
  -19.6955  -25.6312   21.1260 H   0  0  0  0  0  0
  -19.6715  -27.3195   20.6740 H   0  0  0  0  0  0
  -17.4235  -26.6704   21.4024 H   0  0  0  0  0  0
  -18.0349  -26.0071   22.9021 H   0  0  0  0  0  0
  -19.7974  -30.7299   24.2253 H   0  0  0  0  0  0
  -17.5047  -31.6276   24.5172 H   0  0  0  0  0  0
  -15.5381  -30.3000   23.7663 H   0  0  0  0  0  0
  -15.8695  -28.0810   22.7106 H   0  0  0  0  0  0
  -24.5931  -30.7073   25.7781 H   0  0  0  0  0  0
  -24.8917  -32.2946   26.4756 H   0  0  0  0  0  0
  -25.8063  -30.9018   27.0247 H   0  0  0  0  0  0
  -26.2976  -29.6701   24.1240 H   0  0  0  0  0  0
  -27.3997  -29.7222   25.4784 H   0  0  0  0  0  0
  -27.8878  -30.4188   23.9528 H   0  0  0  0  0  0
  -27.2620  -33.3640   26.2012 H   0  0  0  0  0  0
  -28.3914  -32.6864   25.0382 H   0  0  0  0  0  0
  -28.0649  -31.8487   26.5505 H   0  0  0  0  0  0
  -28.2573  -38.0097   24.7488 H   0  0  0  0  0  0
  -28.1085  -36.2618   24.6297 H   0  0  0  0  0  0
  -27.2282  -37.1427   25.8866 H   0  0  0  0  0  0
  -20.9419  -29.8733   21.6754 H   0  0  0  0  0  0
  -26.0140  -38.2825   24.1411 H   0  0  0  0  0  0
  -27.8426  -20.5661   22.3828 H   0  0  0  0  0  0
  -27.3701  -22.9370   22.1678 H   0  0  0  0  0  0
  -30.1237  -19.6580   18.1722 H   0  0  0  0  0  0
  -31.4909  -20.1235   19.1622 H   0  0  0  0  0  0
  -30.4507  -24.4282   18.9091 H   0  0  0  0  0  0
  -29.5341  -23.6335   17.6448 H   0  0  0  0  0  0
  -30.3234  -21.5708   16.7439 H   0  0  0  0  0  0
  -31.9695  -21.0366   16.9839 H   0  0  0  0  0  0
  -28.3686  -18.4638   19.7666 H   0  0  0  0  0  0
  -28.3678  -18.4415   21.4839 H   0  0  0  0  0  0
  -26.8303  -24.5963   20.3881 H   0  0  0  0  0  0
  -27.7346  -24.6854   18.9169 H   0  0  0  0  0  0
  -30.8389  -17.7374   21.4917 H   0  0  0  0  0  0
  -30.8073  -17.6700   19.7594 H   0  0  0  0  0  0
  -28.8558  -15.8246   20.9167 H   0  0  0  0  0  0
  -32.0398  -22.6919   18.8370 H   0  0  0  0  0  0
  -31.8865  -23.3593   17.3610 H   0  0  0  0  0  0
  1 25  1  0  0  0
  1 30  2  0  0  0
  1 83  1  0  0  0
  2  3  1  0  0  0
  2 25  1  0  0  0
  2 85  1  0  0  0
  2 86  1  0  0  0
  3  4  1  0  0  0
  3 87  1  0  0  0
  3 88  1  0  0  0
  4  5  1  0  0  0
  4 89  1  0  0  0
  4 90  1  0  0  0
  5  6  1  0  0  0
  5 26  1  0  0  0
  5 91  1  0  0  0
  6 25  1  0  0  0
  6 92  1  0  0  0
  6 93  1  0  0  0
  7  8  2  0  0  0
  7 26  1  0  0  0
  7 29  1  0  0  0
  8  9  1  0  0  0
  8 22  1  0  0  0
  9 10  1  0  0  0
  9 27  2  0  0  0
 10 11  2  0  0  0
 10 15  1  0  0  0
 11 12  1  0  0  0
 11 94  1  0  0  0
 12 13  2  0  0  0
 12 95  1  0  0  0
 13 14  1  0  0  0
 13 31  1  0  0  0
 14 15  2  0  0  0
 14 96  1  0  0  0
 15 97  1  0  0  0
 16 17  2  0  0  0
 16 21  1  0  0  0
 16 31  1  0  0  0
 17 18  1  0  0  0
 17 98  1  0  0  0
 18 19  2  0  0  0
 18 99  1  0  0  0
 19 20  1  0  0  0
 19 24  1  0  0  0
 20 21  2  0  0  0
 20100  1  0  0  0
 21 23  1  0  0  0
 22 28  1  0  0  0
 22 32  2  0  0  0
 26 27  1  0  0  0
 28101  1  0  0  0
 28102  1  0  0  0
 29103  1  0  0  0
 29104  1  0  0  0
 33 34  1  0  0  0
 33 66  1  0  0  0
 33 70  2  0  0  0
 34 36  1  0  0  0
 34 59  1  0  0  0
 34105  1  0  0  0
 35 44  2  0  0  0
 35 45  1  0  0  0
 35 68  1  0  0  0
 36 56  1  0  0  0
 36106  1  0  0  0
 37 39  1  0  0  0
 37 47  1  0  0  0
 37 66  1  0  0  0
 37107  1  0  0  0
 38 43  2  0  0  0
 38 46  1  0  0  0
 38 47  1  0  0  0
 39 64  1  0  0  0
 39 67  2  0  0  0
 40 52  1  0  0  0
 40 53  2  0  0  0
 40 58  1  0  0  0
 41108  1  0  0  0
 41109  1  0  0  0
 41110  1  0  0  0
 41 48  1  0  0  0
 42 43  1  0  0  0
 42 66  1  0  0  0
 42111  1  0  0  0
 42112  1  0  0  0
 43 44  1  0  0  0
 44113  1  0  0  0
 45 46  2  0  0  0
 45114  1  0  0  0
 46115  1  0  0  0
 47116  1  0  0  0
 47117  1  0  0  0
 48 56  1  0  0  0
 48 65  1  0  0  0
 48118  1  0  0  0
 49 50  1  0  0  0
 49 53  1  0  0  0
 49 64  1  0  0  0
 49119  1  0  0  0
 50 51  1  0  0  0
 50120  1  0  0  0
 50121  1  0  0  0
 51 52  1  0  0  0
 51122  1  0  0  0
 51123  1  0  0  0
 52124  1  0  0  0
 52125  1  0  0  0
 53 54  1  0  0  0
 54 55  2  0  0  0
 54126  1  0  0  0
 55 57  1  0  0  0
 55127  1  0  0  0
 56 69  2  0  0  0
 57 58  2  0  0  0
 57128  1  0  0  0
 58129  1  0  0  0
 59 60  1  0  0  0
 59 61  1  0  0  0
 59 62  1  0  0  0
 60130  1  0  0  0
 60131  1  0  0  0
 60132  1  0  0  0
 61133  1  0  0  0
 61134  1  0  0  0
 61135  1  0  0  0
 62136  1  0  0  0
 62137  1  0  0  0
 62138  1  0  0  0
 63 65  1  0  0  0
 63139  1  0  0  0
 63140  1  0  0  0
 63141  1  0  0  0
 64142  1  0  0  0
 65143  1  0  0  0
 68 81  1  0  0  0
 71 72  2  0  0  0
 71 75  1  0  0  0
 71144  1  0  0  0
 72 76  1  0  0  0
 72145  1  0  0  0
 73 74  1  0  0  0
 73 75  2  0  0  0
 73 77  1  0  0  0
 74 76  2  0  0  0
 74 78  1  0  0  0
 75 80  1  0  0  0
 76 81  1  0  0  0
 77 79  1  0  0  0
 77146  1  0  0  0
 77147  1  0  0  0
 78 84  1  0  0  0
 78148  1  0  0  0
 78149  1  0  0  0
 79 84  1  0  0  0
 79150  1  0  0  0
 79151  1  0  0  0
 80 82  1  0  0  0
 80152  1  0  0  0
 80153  1  0  0  0
 81154  1  0  0  0
 81155  1  0  0  0
 82 83  1  0  0  0
 82156  1  0  0  0
 82157  1  0  0  0
 83158  1  0  0  0
 84159  1  0  0  0
 84160  1  0  0  0
M  CHG  1  84   1
M  ISO  4   1 100  68 101  81 101  83 100
M  END
> <chiral flag>
0

> <version>
0

> <s_m_source_file>
/data/baiqing/PycharmProjects/Reinvent-master-3.2/result/LINK_invent/BTK/process_docking_weight1_custom_sum_contain_oxygen_bond_distance_aromatic_linkinvent_7_9_3/rearranged_h_0133.sdf

> <i_m_source_file_index>
47

> <r_mmod_Potential_Energy-OPLS-2005>
169.680618286133

> <r_mmod_Stretch_Energy-OPLS-2005>
186.439392089844

> <r_mmod_Bend_Energy-OPLS-2005>
231.557861328125

> <r_mmod_Torsional_Energy-OPLS-2005>
256.398132324219

> <r_mmod_Improper_Torsional_Energy-OPLS-2005>
9.42114639282227

> <r_mmod_Van_der_Waal_Energy-OPLS-2005>
149.640975952148

> <r_mmod_Electrostatic_Energy-OPLS-2005>
-336.667144775391

> <r_mmod_Solvation_Energy-OPLS-2005>
-475.742340087891

> <b_mmod_Minimization_Converged-OPLS-2005>
0

> <r_mmod_RMS_Derivative-OPLS-2005>
4.44180488586426

$$$$
48
                    3D
 Structure written by MMmdl.
165174  0  0  1  0            999 V2000
  -30.6844  -14.6274   20.5099 C   0  0  0  0  0  0
  -30.4225  -12.3905   19.4585 C   0  0  0  0  0  0
  -29.5007  -12.4969   18.2256 C   0  0  0  0  0  0
  -28.0269  -12.3370   18.6430 C   0  0  0  0  0  0
  -27.6488  -13.2253   19.8582 C   0  0  2  0  0  0
  -28.6957  -13.1225   20.9904 C   0  0  0  0  0  0
  -25.2542  -13.8179   20.5715 C   0  0  0  0  0  0
  -24.1812  -13.0427   20.9199 C   0  0  0  0  0  0
  -24.6392  -11.6900   20.8730 C   0  0  0  0  0  0
  -23.9056  -10.4284   21.0398 C   0  0  0  0  0  0
  -24.3600   -9.4212   21.9188 C   0  0  0  0  0  0
  -23.6290   -8.2238   22.0755 C   0  0  0  0  0  0
  -22.4274   -8.0272   21.3543 C   0  0  0  0  0  0
  -21.9905   -9.0232   20.4635 C   0  0  0  0  0  0
  -22.7221  -10.2118   20.3050 C   0  0  0  0  0  0
  -21.6854   -6.0725   22.5279 C   0  0  0  0  0  0
  -21.4008   -6.5638   23.8208 C   0  0  0  0  0  0
  -21.3663   -5.6796   24.9175 C   0  0  0  0  0  0
  -21.6046   -4.3058   24.7227 C   0  0  0  0  0  0
  -21.8817   -3.8139   23.4353 C   0  0  0  0  0  0
  -21.9190   -4.6954   22.3406 C   0  0  0  0  0  0
  -22.7836  -13.5218   21.1869 C   0  0  0  0  0  0
  -22.1663   -4.2133   21.0986 F   0  0  0  0  0  0
  -21.5630   -3.4548   25.7746 F   0  0  0  0  0  0
  -30.0089  -13.4396   20.4119 N   0  0  0  0  0  0
  -26.2971  -12.9383   20.3334 N   0  0  0  0  0  0
  -25.9330  -11.6523   20.5759 N   0  0  0  0  0  0
  -22.0488  -12.8181   22.0403 N   0  0  0  0  0  0
  -25.4263  -15.1908   20.4167 N   0  0  0  0  0  0
  -31.8568  -14.7217   20.1422 O   0  0  0  0  0  0
  -21.6644   -6.8860   21.4237 O   0  0  0  0  0  0
  -22.3531  -14.5542   20.6752 O   0  0  0  0  0  0
  -24.6301  -31.8589   23.2055 C   0  0  0  0  0  0
  -25.9146  -32.4779   23.8370 C   0  0  1  0  0  0
  -27.2119  -27.3021   20.1001 C   0  0  0  0  0  0
  -25.5956  -33.8580   24.2290 N   0  0  0  0  0  0
  -23.4217  -30.4898   21.5495 C   0  0  2  0  0  0
  -24.8643  -28.9572   20.1068 C   0  0  0  0  0  0
  -22.7484  -29.4630   22.4924 C   0  0  0  0  0  0
  -18.0290  -28.1377   22.8501 C   0  0  0  0  0  0
  -24.1485  -36.7289   23.2642 C   0  0  0  0  0  0
  -25.9693  -30.7809   21.3839 C   0  0  0  0  0  0
  -26.0378  -29.4103   20.7236 C   0  0  0  0  0  0
  -27.2106  -28.5926   20.7219 C   0  0  0  0  0  0
  -26.0184  -26.9362   19.4263 C   0  0  0  0  0  0
  -24.8590  -27.7223   19.4526 C   0  0  0  0  0  0
  -23.6336  -29.8362   20.1614 C   0  0  0  0  0  0
  -25.4107  -36.3077   24.0330 C   0  0  1  0  0  0
  -20.5903  -28.3681   23.1266 C   0  0  2  0  0  0
  -20.6789  -26.9397   22.5393 C   0  0  0  0  0  0
  -19.5745  -26.6372   21.5217 C   0  0  0  0  0  0
  -18.1922  -26.7927   22.1620 C   0  0  0  0  0  0
  -19.1549  -28.8845   23.2883 C   0  0  0  0  0  0
  -18.9475  -30.1459   23.8893 C   0  0  0  0  0  0
  -17.6478  -30.6586   24.0582 C   0  0  0  0  0  0
  -25.9046  -34.9453   23.5094 C   0  0  0  0  0  0
  -16.5365  -29.9079   23.6352 C   0  0  0  0  0  0
  -16.7274  -28.6501   23.0370 C   0  0  0  0  0  0
  -26.4505  -31.6601   25.0752 C   0  0  0  0  0  0
  -25.3739  -31.3727   26.1486 C   0  0  0  0  0  0
  -27.0408  -30.3050   24.6218 C   0  0  0  0  0  0
  -27.6049  -32.4363   25.7529 C   0  0  0  0  0  0
  -27.5570  -37.1813   24.8471 C   0  0  0  0  0  0
  -21.4194  -29.3062   22.3677 N   0  0  0  0  0  0
  -26.4280  -37.3774   23.9409 N   0  0  0  0  0  0
  -24.6932  -31.0598   22.1018 N   0  0  0  0  0  0
  -23.4196  -28.8133   23.2989 O   0  0  0  0  0  0
  -28.2942  -26.3959   20.1848 O   0  0  0  0  0  0
  -26.5603  -34.8924   22.4658 O   0  0  0  0  0  0
  -23.5462  -32.1384   23.7367 O   0  0  0  0  0  0
  -28.2082  -22.9617   21.3010 C   0  0  0  0  0  0
  -28.6191  -21.6349   21.6100 C   0  0  0  0  0  0
  -30.2218  -21.7247   19.8277 C   0  0  0  0  0  0
  -29.8399  -23.0743   19.5248 C   0  0  0  0  0  0
  -28.7795  -23.7157   20.2415 C   0  0  0  0  0  0
  -29.6190  -20.9673   20.8651 C   0  0  0  0  0  0
  -31.7472  -23.5430   16.3003 C   0  0  0  0  0  0
  -32.8120  -23.4178   17.3885 C   0  0  0  0  0  0
  -30.4489  -23.1856   17.0246 C   0  0  0  0  0  0
  -32.1238  -23.8909   18.6760 C   0  0  0  0  0  0
  -30.6021  -23.8095   18.4213 C   0  0  0  0  0  0
  -28.0198  -25.0032   19.7406 C   0  0  0  0  0  0
  -29.6877  -18.3962   20.5890 C   0  0  0  0  0  0
  -30.5364  -17.1345   21.0622 C   0  0  0  0  0  0
  -30.0790  -19.6696   21.2562 N   0  0  0  0  0  0
  -29.9823  -15.7500   20.8611 N   0  0  0  0  0  0
  -31.4676  -12.4846   19.1590 H   0  0  0  0  0  0
  -30.3324  -11.4051   19.9198 H   0  0  0  0  0  0
  -29.7637  -11.7356   17.4897 H   0  0  0  0  0  0
  -29.6442  -13.4602   17.7333 H   0  0  0  0  0  0
  -27.8723  -11.2868   18.8923 H   0  0  0  0  0  0
  -27.3678  -12.5472   17.7999 H   0  0  0  0  0  0
  -27.6555  -14.2536   19.4969 H   0  0  0  0  0  0
  -28.7044  -12.1194   21.4190 H   0  0  0  0  0  0
  -28.4460  -13.7982   21.8098 H   0  0  0  0  0  0
  -25.2738   -9.5701   22.4775 H   0  0  0  0  0  0
  -23.9991   -7.4643   22.7490 H   0  0  0  0  0  0
  -21.0836   -8.8739   19.8952 H   0  0  0  0  0  0
  -22.3673  -10.9649   19.6156 H   0  0  0  0  0  0
  -21.1999   -7.6145   23.9699 H   0  0  0  0  0  0
  -21.1489   -6.0537   25.9074 H   0  0  0  0  0  0
  -22.0589   -2.7598   23.2865 H   0  0  0  0  0  0
  -22.4110  -11.9808   22.4720 H   0  0  0  0  0  0
  -21.1107  -13.1187   22.2631 H   0  0  0  0  0  0
  -24.6616  -15.8470   20.5329 H   0  0  0  0  0  0
  -26.2810  -15.6296   20.0984 H   0  0  0  0  0  0
  -26.7211  -32.5430   23.1117 H   0  0  0  0  0  0
  -25.0206  -33.9720   25.0504 H   0  0  0  0  0  0
  -22.7186  -31.3144   21.4107 H   0  0  0  0  0  0
  -23.3754  -35.9614   23.3289 H   0  0  0  0  0  0
  -24.3580  -36.8909   22.2059 H   0  0  0  0  0  0
  -23.7221  -37.6482   23.6672 H   0  0  0  0  0  0
  -26.1088  -31.5402   20.6129 H   0  0  0  0  0  0
  -26.8499  -30.8251   22.0119 H   0  0  0  0  0  0
  -28.1022  -28.9279   21.2331 H   0  0  0  0  0  0
  -25.9191  -26.0192   18.8670 H   0  0  0  0  0  0
  -23.9687  -27.3707   18.9488 H   0  0  0  0  0  0
  -23.7468  -30.6190   19.4106 H   0  0  0  0  0  0
  -22.7536  -29.2653   19.8577 H   0  0  0  0  0  0
  -25.1273  -36.1941   25.0821 H   0  0  0  0  0  0
  -21.0011  -28.3245   24.1377 H   0  0  0  0  0  0
  -20.5708  -26.2273   23.3589 H   0  0  0  0  0  0
  -21.6636  -26.7425   22.1161 H   0  0  0  0  0  0
  -19.6902  -25.6283   21.1231 H   0  0  0  0  0  0
  -19.6689  -27.3205   20.6774 H   0  0  0  0  0  0
  -17.4191  -26.6732   21.4007 H   0  0  0  0  0  0
  -18.0291  -26.0037   22.8985 H   0  0  0  0  0  0
  -19.7951  -30.7310   24.2213 H   0  0  0  0  0  0
  -17.5021  -31.6271   24.5181 H   0  0  0  0  0  0
  -15.5369  -30.2998   23.7672 H   0  0  0  0  0  0
  -15.8663  -28.0832   22.7084 H   0  0  0  0  0  0
  -24.5953  -30.7010   25.7830 H   0  0  0  0  0  0
  -24.8898  -32.2887   26.4882 H   0  0  0  0  0  0
  -25.8076  -30.8952   27.0283 H   0  0  0  0  0  0
  -26.3022  -29.6769   24.1222 H   0  0  0  0  0  0
  -27.4123  -29.7301   25.4714 H   0  0  0  0  0  0
  -27.8854  -30.4351   23.9444 H   0  0  0  0  0  0
  -27.2655  -33.3703   26.1999 H   0  0  0  0  0  0
  -28.3922  -32.6851   25.0406 H   0  0  0  0  0  0
  -28.0648  -31.8565   26.5535 H   0  0  0  0  0  0
  -28.2584  -38.0125   24.7529 H   0  0  0  0  0  0
  -28.1066  -36.2650   24.6272 H   0  0  0  0  0  0
  -27.2280  -37.1407   25.8875 H   0  0  0  0  0  0
  -20.9349  -29.8840   21.6952 H   0  0  0  0  0  0
  -26.0157  -38.2839   24.1430 H   0  0  0  0  0  0
  -27.3869  -23.3827   21.8640 H   0  0  0  0  0  0
  -28.1338  -21.1244   22.4303 H   0  0  0  0  0  0
  -31.0275  -21.2726   19.2644 H   0  0  0  0  0  0
  -31.9450  -22.8976   15.4434 H   0  0  0  0  0  0
  -31.7048  -24.5722   15.9402 H   0  0  0  0  0  0
  -33.7195  -23.9795   17.1600 H   0  0  0  0  0  0
  -33.0979  -22.3699   17.4978 H   0  0  0  0  0  0
  -30.3834  -22.0985   17.0907 H   0  0  0  0  0  0
  -29.5578  -23.5340   16.5017 H   0  0  0  0  0  0
  -32.4012  -24.9223   18.8970 H   0  0  0  0  0  0
  -32.4512  -23.2922   19.5271 H   0  0  0  0  0  0
  -30.2489  -24.8389   18.3576 H   0  0  0  0  0  0
  -27.0075  -24.7451   20.0474 H   0  0  0  0  0  0
  -28.0068  -24.9910   18.6496 H   0  0  0  0  0  0
  -28.6343  -18.2236   20.8150 H   0  0  0  0  0  0
  -29.7564  -18.5101   19.5059 H   0  0  0  0  0  0
  -30.6994  -17.2174   22.1367 H   0  0  0  0  0  0
  -31.5310  -17.2022   20.6188 H   0  0  0  0  0  0
  -30.0322  -19.5527   22.2661 H   0  0  0  0  0  0
  -29.0082  -15.6144   21.0872 H   0  0  0  0  0  0
  1 25  1  0  0  0
  1 30  2  0  0  0
  1 86  1  0  0  0
  2  3  1  0  0  0
  2 25  1  0  0  0
  2 87  1  0  0  0
  2 88  1  0  0  0
  3  4  1  0  0  0
  3 89  1  0  0  0
  3 90  1  0  0  0
  4  5  1  0  0  0
  4 91  1  0  0  0
  4 92  1  0  0  0
  5  6  1  0  0  0
  5 26  1  0  0  0
  5 93  1  0  0  0
  6 25  1  0  0  0
  6 94  1  0  0  0
  6 95  1  0  0  0
  7  8  2  0  0  0
  7 26  1  0  0  0
  7 29  1  0  0  0
  8  9  1  0  0  0
  8 22  1  0  0  0
  9 10  1  0  0  0
  9 27  2  0  0  0
 10 11  2  0  0  0
 10 15  1  0  0  0
 11 12  1  0  0  0
 11 96  1  0  0  0
 12 13  2  0  0  0
 12 97  1  0  0  0
 13 14  1  0  0  0
 13 31  1  0  0  0
 14 15  2  0  0  0
 14 98  1  0  0  0
 15 99  1  0  0  0
 16 17  2  0  0  0
 16 21  1  0  0  0
 16 31  1  0  0  0
 17 18  1  0  0  0
 17100  1  0  0  0
 18 19  2  0  0  0
 18101  1  0  0  0
 19 20  1  0  0  0
 19 24  1  0  0  0
 20 21  2  0  0  0
 20102  1  0  0  0
 21 23  1  0  0  0
 22 28  1  0  0  0
 22 32  2  0  0  0
 26 27  1  0  0  0
 28103  1  0  0  0
 28104  1  0  0  0
 29105  1  0  0  0
 29106  1  0  0  0
 33 34  1  0  0  0
 33 66  1  0  0  0
 33 70  2  0  0  0
 34 36  1  0  0  0
 34 59  1  0  0  0
 34107  1  0  0  0
 35 44  2  0  0  0
 35 45  1  0  0  0
 35 68  1  0  0  0
 36 56  1  0  0  0
 36108  1  0  0  0
 37 39  1  0  0  0
 37 47  1  0  0  0
 37 66  1  0  0  0
 37109  1  0  0  0
 38 43  2  0  0  0
 38 46  1  0  0  0
 38 47  1  0  0  0
 39 64  1  0  0  0
 39 67  2  0  0  0
 40 52  1  0  0  0
 40 53  2  0  0  0
 40 58  1  0  0  0
 41110  1  0  0  0
 41111  1  0  0  0
 41112  1  0  0  0
 41 48  1  0  0  0
 42 43  1  0  0  0
 42 66  1  0  0  0
 42113  1  0  0  0
 42114  1  0  0  0
 43 44  1  0  0  0
 44115  1  0  0  0
 45 46  2  0  0  0
 45116  1  0  0  0
 46117  1  0  0  0
 47118  1  0  0  0
 47119  1  0  0  0
 48 56  1  0  0  0
 48 65  1  0  0  0
 48120  1  0  0  0
 49 50  1  0  0  0
 49 53  1  0  0  0
 49 64  1  0  0  0
 49121  1  0  0  0
 50 51  1  0  0  0
 50122  1  0  0  0
 50123  1  0  0  0
 51 52  1  0  0  0
 51124  1  0  0  0
 51125  1  0  0  0
 52126  1  0  0  0
 52127  1  0  0  0
 53 54  1  0  0  0
 54 55  2  0  0  0
 54128  1  0  0  0
 55 57  1  0  0  0
 55129  1  0  0  0
 56 69  2  0  0  0
 57 58  2  0  0  0
 57130  1  0  0  0
 58131  1  0  0  0
 59 60  1  0  0  0
 59 61  1  0  0  0
 59 62  1  0  0  0
 60132  1  0  0  0
 60133  1  0  0  0
 60134  1  0  0  0
 61135  1  0  0  0
 61136  1  0  0  0
 61137  1  0  0  0
 62138  1  0  0  0
 62139  1  0  0  0
 62140  1  0  0  0
 63 65  1  0  0  0
 63141  1  0  0  0
 63142  1  0  0  0
 63143  1  0  0  0
 64144  1  0  0  0
 65145  1  0  0  0
 68 82  1  0  0  0
 71 72  2  0  0  0
 71 75  1  0  0  0
 71146  1  0  0  0
 72 76  1  0  0  0
 72147  1  0  0  0
 73 74  1  0  0  0
 73 76  2  0  0  0
 73148  1  0  0  0
 74 75  2  0  0  0
 74 81  1  0  0  0
 75 82  1  0  0  0
 76 85  1  0  0  0
 77 78  1  0  0  0
 77 79  1  0  0  0
 77149  1  0  0  0
 77150  1  0  0  0
 78 80  1  0  0  0
 78151  1  0  0  0
 78152  1  0  0  0
 79 81  1  0  0  0
 79153  1  0  0  0
 79154  1  0  0  0
 80 81  1  0  0  0
 80155  1  0  0  0
 80156  1  0  0  0
 81157  1  0  0  0
 82158  1  0  0  0
 82159  1  0  0  0
 83 84  1  0  0  0
 83 85  1  0  0  0
 83160  1  0  0  0
 83161  1  0  0  0
 84 86  1  0  0  0
 84162  1  0  0  0
 84163  1  0  0  0
 85164  1  0  0  0
 86165  1  0  0  0
M  ISO  4   1 100  68 101  82 101  86 100
M  END
> <chiral flag>
0

> <version>
0

> <s_m_source_file>
/data/baiqing/PycharmProjects/Reinvent-master-3.2/result/LINK_invent/BTK/process_docking_weight1_custom_sum_contain_oxygen_bond_distance_aromatic_linkinvent_7_9_3/rearranged_h_0133.sdf

> <i_m_source_file_index>
48

> <r_mmod_Potential_Energy-OPLS-2005>
129.103713989258

> <r_mmod_Stretch_Energy-OPLS-2005>
79.1309585571289

> <r_mmod_Bend_Energy-OPLS-2005>
175.347091674805

> <r_mmod_Torsional_Energy-OPLS-2005>
288.511932373047

> <r_mmod_Improper_Torsional_Energy-OPLS-2005>
10.5718421936035

> <r_mmod_Van_der_Waal_Energy-OPLS-2005>
154.715286254883

> <r_mmod_Electrostatic_Energy-OPLS-2005>
-414.751861572266

> <r_mmod_Solvation_Energy-OPLS-2005>
-222.071334838867

> <b_mmod_Minimization_Converged-OPLS-2005>
0

> <r_mmod_RMS_Derivative-OPLS-2005>
2.53725385665894

$$$$
49
                    3D
 Structure written by MMmdl.
158167  0  0  1  0            999 V2000
  -30.6051  -14.7457   20.4857 C   0  0  0  0  0  0
  -30.4328  -12.4599   19.4828 C   0  0  0  0  0  0
  -29.5136  -12.5066   18.2422 C   0  0  0  0  0  0
  -28.0397  -12.3231   18.6523 C   0  0  0  0  0  0
  -27.6405  -13.2249   19.8513 C   0  0  2  0  0  0
  -28.6808  -13.1605   20.9905 C   0  0  0  0  0  0
  -25.2504  -13.8155   20.5657 C   0  0  0  0  0  0
  -24.1794  -13.0413   20.9194 C   0  0  0  0  0  0
  -24.6376  -11.6892   20.8730 C   0  0  0  0  0  0
  -23.9046  -10.4282   21.0387 C   0  0  0  0  0  0
  -24.3609   -9.4210   21.9170 C   0  0  0  0  0  0
  -23.6291   -8.2243   22.0754 C   0  0  0  0  0  0
  -22.4274   -8.0271   21.3542 C   0  0  0  0  0  0
  -21.9900   -9.0235   20.4643 C   0  0  0  0  0  0
  -22.7209  -10.2128   20.3053 C   0  0  0  0  0  0
  -21.6842   -6.0741   22.5284 C   0  0  0  0  0  0
  -21.4010   -6.5657   23.8212 C   0  0  0  0  0  0
  -21.3666   -5.6815   24.9181 C   0  0  0  0  0  0
  -21.6048   -4.3073   24.7237 C   0  0  0  0  0  0
  -21.8813   -3.8159   23.4356 C   0  0  0  0  0  0
  -21.9193   -4.6973   22.3413 C   0  0  0  0  0  0
  -22.7827  -13.5217   21.1867 C   0  0  0  0  0  0
  -22.1655   -4.2150   21.0992 F   0  0  0  0  0  0
  -21.5628   -3.4563   25.7755 F   0  0  0  0  0  0
  -29.9821  -13.5192   20.4145 N   0  0  0  0  0  0
  -26.2918  -12.9346   20.3259 N   0  0  0  0  0  0
  -25.9300  -11.6493   20.5732 N   0  0  0  0  0  0
  -22.0474  -12.8209   22.0425 N   0  0  0  0  0  0
  -25.4234  -15.1871   20.4043 N   0  0  0  0  0  0
  -31.7897  -14.8500   20.1554 O   0  0  0  0  0  0
  -21.6631   -6.8869   21.4238 O   0  0  0  0  0  0
  -22.3530  -14.5526   20.6713 O   0  0  0  0  0  0
  -24.6313  -31.8549   23.1984 C   0  0  0  0  0  0
  -25.9134  -32.4756   23.8324 C   0  0  1  0  0  0
  -27.2184  -27.2526   20.1492 C   0  0  0  0  0  0
  -25.5932  -33.8557   24.2246 N   0  0  0  0  0  0
  -23.4285  -30.4757   21.5418 C   0  0  2  0  0  0
  -24.8777  -28.9161   20.1175 C   0  0  0  0  0  0
  -22.7494  -29.4593   22.4911 C   0  0  0  0  0  0
  -18.0288  -28.1392   22.8477 C   0  0  0  0  0  0
  -24.1492  -36.7289   23.2637 C   0  0  0  0  0  0
  -25.9743  -30.7639   21.3811 C   0  0  0  0  0  0
  -26.0478  -29.3824   20.7328 C   0  0  0  0  0  0
  -27.2226  -28.5619   20.7404 C   0  0  0  0  0  0
  -26.0373  -26.8637   19.4886 C   0  0  0  0  0  0
  -24.8781  -27.6642   19.4829 C   0  0  0  0  0  0
  -23.6495  -29.8057   20.1597 C   0  0  0  0  0  0
  -25.4119  -36.3069   24.0320 C   0  0  1  0  0  0
  -20.5888  -28.3702   23.1268 C   0  0  2  0  0  0
  -20.6779  -26.9420   22.5407 C   0  0  0  0  0  0
  -19.5755  -26.6384   21.5211 C   0  0  0  0  0  0
  -18.1934  -26.7929   22.1622 C   0  0  0  0  0  0
  -19.1541  -28.8866   23.2867 C   0  0  0  0  0  0
  -18.9459  -30.1462   23.8888 C   0  0  0  0  0  0
  -17.6458  -30.6590   24.0561 C   0  0  0  0  0  0
  -25.9056  -34.9440   23.5085 C   0  0  0  0  0  0
  -16.5349  -29.9083   23.6335 C   0  0  0  0  0  0
  -16.7272  -28.6506   23.0347 C   0  0  0  0  0  0
  -26.4508  -31.6578   25.0712 C   0  0  0  0  0  0
  -25.3736  -31.3724   26.1434 C   0  0  0  0  0  0
  -27.0363  -30.2994   24.6207 C   0  0  0  0  0  0
  -27.6051  -32.4336   25.7484 C   0  0  0  0  0  0
  -27.5576  -37.1805   24.8462 C   0  0  0  0  0  0
  -21.4199  -29.3041   22.3651 N   0  0  0  0  0  0
  -26.4288  -37.3769   23.9399 N   0  0  0  0  0  0
  -24.6971  -31.0496   22.0978 N   0  0  0  0  0  0
  -23.4186  -28.8138   23.3017 O   0  0  0  0  0  0
  -28.3177  -26.3690   20.1008 O   0  0  0  0  0  0
  -26.5627  -34.8920   22.4652 O   0  0  0  0  0  0
  -23.5458  -32.1373   23.7269 O   0  0  0  0  0  0
  -27.0056  -23.2500   19.8356 C   0  0  0  0  0  0
  -29.0957  -22.5237   20.7617 C   0  0  0  0  0  0
  -28.2074  -23.6382   20.4587 C   0  0  0  0  0  0
  -26.7389  -21.8938   19.5580 C   0  0  0  0  0  0
  -28.7619  -21.1445   20.4518 C   0  0  0  0  0  0
  -25.0154  -21.9919   17.6082 C   0  0  0  0  0  0
  -25.3290  -20.5295   17.7965 C   0  0  0  0  0  0
  -25.4242  -21.4785   18.9719 C   0  0  0  0  0  0
  -28.3793  -25.1481   20.9745 C   0  0  0  0  0  0
  -29.1538  -18.5289   20.5623 C   0  0  0  0  0  0
  -30.2609  -17.3514   20.7317 C   0  0  0  0  0  0
  -27.5842  -20.8801   19.8593 N   0  0  0  0  0  0
  -29.5759  -19.9823   20.7357 N   0  0  0  0  0  0
  -29.8412  -15.8769   20.7402 N   0  0  0  0  0  0
  -31.4740  -12.5898   19.1824 H   0  0  0  0  0  0
  -30.3838  -11.4842   19.9672 H   0  0  0  0  0  0
  -29.8021  -11.7322   17.5302 H   0  0  0  0  0  0
  -29.6372  -13.4598   17.7252 H   0  0  0  0  0  0
  -27.9017  -11.2739   18.9160 H   0  0  0  0  0  0
  -27.3809  -12.5089   17.8032 H   0  0  0  0  0  0
  -27.6363  -14.2451   19.4674 H   0  0  0  0  0  0
  -28.7199  -12.1604   21.4253 H   0  0  0  0  0  0
  -28.4089  -13.8370   21.8034 H   0  0  0  0  0  0
  -25.2769   -9.5701   22.4719 H   0  0  0  0  0  0
  -24.0002   -7.4636   22.7474 H   0  0  0  0  0  0
  -21.0824   -8.8749   19.8962 H   0  0  0  0  0  0
  -22.3618  -10.9673   19.6191 H   0  0  0  0  0  0
  -21.1981   -7.6163   23.9713 H   0  0  0  0  0  0
  -21.1494   -6.0548   25.9083 H   0  0  0  0  0  0
  -22.0583   -2.7625   23.2854 H   0  0  0  0  0  0
  -22.4079  -11.9858   22.4798 H   0  0  0  0  0  0
  -21.1081  -13.1241   22.2608 H   0  0  0  0  0  0
  -24.6541  -15.8413   20.4997 H   0  0  0  0  0  0
  -26.2648  -15.6175   20.0439 H   0  0  0  0  0  0
  -26.7187  -32.5416   23.1049 H   0  0  0  0  0  0
  -25.0071  -33.9684   25.0388 H   0  0  0  0  0  0
  -22.7264  -31.2985   21.3923 H   0  0  0  0  0  0
  -23.3751  -35.9624   23.3297 H   0  0  0  0  0  0
  -24.3568  -36.8923   22.2051 H   0  0  0  0  0  0
  -23.7261  -37.6497   23.6668 H   0  0  0  0  0  0
  -26.1070  -31.5201   20.6060 H   0  0  0  0  0  0
  -26.8537  -30.8197   22.0116 H   0  0  0  0  0  0
  -28.1219  -28.9189   21.2224 H   0  0  0  0  0  0
  -26.0092  -25.9289   18.9542 H   0  0  0  0  0  0
  -23.9921  -27.3096   18.9738 H   0  0  0  0  0  0
  -23.7760  -30.5810   19.4025 H   0  0  0  0  0  0
  -22.7689  -29.2375   19.8545 H   0  0  0  0  0  0
  -25.1307  -36.1904   25.0814 H   0  0  0  0  0  0
  -20.9969  -28.3283   24.1393 H   0  0  0  0  0  0
  -20.5684  -26.2308   23.3607 H   0  0  0  0  0  0
  -21.6649  -26.7453   22.1198 H   0  0  0  0  0  0
  -19.6920  -25.6294   21.1248 H   0  0  0  0  0  0
  -19.6700  -27.3192   20.6740 H   0  0  0  0  0  0
  -17.4201  -26.6661   21.4026 H   0  0  0  0  0  0
  -18.0343  -26.0079   22.9034 H   0  0  0  0  0  0
  -19.7936  -30.7278   24.2253 H   0  0  0  0  0  0
  -17.5015  -31.6271   24.5162 H   0  0  0  0  0  0
  -15.5349  -30.2981   23.7671 H   0  0  0  0  0  0
  -15.8670  -28.0828   22.7056 H   0  0  0  0  0  0
  -24.5892  -30.7093   25.7761 H   0  0  0  0  0  0
  -24.8948  -32.2899   26.4874 H   0  0  0  0  0  0
  -25.8060  -30.8888   27.0203 H   0  0  0  0  0  0
  -26.2946  -29.6716   24.1252 H   0  0  0  0  0  0
  -27.4064  -29.7281   25.4731 H   0  0  0  0  0  0
  -27.8820  -30.4261   23.9438 H   0  0  0  0  0  0
  -27.2629  -33.3624   26.2059 H   0  0  0  0  0  0
  -28.3860  -32.6918   25.0319 H   0  0  0  0  0  0
  -28.0720  -31.8473   26.5407 H   0  0  0  0  0  0
  -28.2603  -38.0095   24.7497 H   0  0  0  0  0  0
  -28.1067  -36.2625   24.6307 H   0  0  0  0  0  0
  -27.2283  -37.1482   25.8863 H   0  0  0  0  0  0
  -20.9380  -29.8759   21.6860 H   0  0  0  0  0  0
  -26.0168  -38.2843   24.1402 H   0  0  0  0  0  0
  -26.2402  -23.9791   19.6289 H   0  0  0  0  0  0
  -30.0233  -22.7368   21.2759 H   0  0  0  0  0  0
  -23.9720  -22.2617   17.4613 H   0  0  0  0  0  0
  -25.7376  -22.5854   17.0508 H   0  0  0  0  0  0
  -26.2597  -20.1497   17.3795 H   0  0  0  0  0  0
  -24.4883  -19.8387   17.7746 H   0  0  0  0  0  0
  -24.6571  -21.4089   19.7414 H   0  0  0  0  0  0
  -29.3514  -25.1954   21.4669 H   0  0  0  0  0  0
  -27.6583  -25.2842   21.7816 H   0  0  0  0  0  0
  -28.3454  -18.3488   21.2733 H   0  0  0  0  0  0
  -28.6985  -18.4294   19.5762 H   0  0  0  0  0  0
  -30.7920  -17.5181   21.6694 H   0  0  0  0  0  0
  -31.0098  -17.4799   19.9480 H   0  0  0  0  0  0
  -30.4675  -20.1423   21.1944 H   0  0  0  0  0  0
  -28.8734  -15.7005   20.9663 H   0  0  0  0  0  0
  1 25  1  0  0  0
  1 30  2  0  0  0
  1 84  1  0  0  0
  2  3  1  0  0  0
  2 25  1  0  0  0
  2 85  1  0  0  0
  2 86  1  0  0  0
  3  4  1  0  0  0
  3 87  1  0  0  0
  3 88  1  0  0  0
  4  5  1  0  0  0
  4 89  1  0  0  0
  4 90  1  0  0  0
  5  6  1  0  0  0
  5 26  1  0  0  0
  5 91  1  0  0  0
  6 25  1  0  0  0
  6 92  1  0  0  0
  6 93  1  0  0  0
  7  8  2  0  0  0
  7 26  1  0  0  0
  7 29  1  0  0  0
  8  9  1  0  0  0
  8 22  1  0  0  0
  9 10  1  0  0  0
  9 27  2  0  0  0
 10 11  2  0  0  0
 10 15  1  0  0  0
 11 12  1  0  0  0
 11 94  1  0  0  0
 12 13  2  0  0  0
 12 95  1  0  0  0
 13 14  1  0  0  0
 13 31  1  0  0  0
 14 15  2  0  0  0
 14 96  1  0  0  0
 15 97  1  0  0  0
 16 17  2  0  0  0
 16 21  1  0  0  0
 16 31  1  0  0  0
 17 18  1  0  0  0
 17 98  1  0  0  0
 18 19  2  0  0  0
 18 99  1  0  0  0
 19 20  1  0  0  0
 19 24  1  0  0  0
 20 21  2  0  0  0
 20100  1  0  0  0
 21 23  1  0  0  0
 22 28  1  0  0  0
 22 32  2  0  0  0
 26 27  1  0  0  0
 28101  1  0  0  0
 28102  1  0  0  0
 29103  1  0  0  0
 29104  1  0  0  0
 33 34  1  0  0  0
 33 66  1  0  0  0
 33 70  2  0  0  0
 34 36  1  0  0  0
 34 59  1  0  0  0
 34105  1  0  0  0
 35 44  2  0  0  0
 35 45  1  0  0  0
 35 68  1  0  0  0
 36 56  1  0  0  0
 36106  1  0  0  0
 37 39  1  0  0  0
 37 47  1  0  0  0
 37 66  1  0  0  0
 37107  1  0  0  0
 38 43  2  0  0  0
 38 46  1  0  0  0
 38 47  1  0  0  0
 39 64  1  0  0  0
 39 67  2  0  0  0
 40 52  1  0  0  0
 40 53  2  0  0  0
 40 58  1  0  0  0
 41108  1  0  0  0
 41109  1  0  0  0
 41110  1  0  0  0
 41 48  1  0  0  0
 42 43  1  0  0  0
 42 66  1  0  0  0
 42111  1  0  0  0
 42112  1  0  0  0
 43 44  1  0  0  0
 44113  1  0  0  0
 45 46  2  0  0  0
 45114  1  0  0  0
 46115  1  0  0  0
 47116  1  0  0  0
 47117  1  0  0  0
 48 56  1  0  0  0
 48 65  1  0  0  0
 48118  1  0  0  0
 49 50  1  0  0  0
 49 53  1  0  0  0
 49 64  1  0  0  0
 49119  1  0  0  0
 50 51  1  0  0  0
 50120  1  0  0  0
 50121  1  0  0  0
 51 52  1  0  0  0
 51122  1  0  0  0
 51123  1  0  0  0
 52124  1  0  0  0
 52125  1  0  0  0
 53 54  1  0  0  0
 54 55  2  0  0  0
 54126  1  0  0  0
 55 57  1  0  0  0
 55127  1  0  0  0
 56 69  2  0  0  0
 57 58  2  0  0  0
 57128  1  0  0  0
 58129  1  0  0  0
 59 60  1  0  0  0
 59 61  1  0  0  0
 59 62  1  0  0  0
 60130  1  0  0  0
 60131  1  0  0  0
 60132  1  0  0  0
 61133  1  0  0  0
 61134  1  0  0  0
 61135  1  0  0  0
 62136  1  0  0  0
 62137  1  0  0  0
 62138  1  0  0  0
 63 65  1  0  0  0
 63139  1  0  0  0
 63140  1  0  0  0
 63141  1  0  0  0
 64142  1  0  0  0
 65143  1  0  0  0
 68 79  1  0  0  0
 71 73  2  0  0  0
 71 74  1  0  0  0
 71144  1  0  0  0
 72 73  1  0  0  0
 72 75  2  0  0  0
 72145  1  0  0  0
 73 79  1  0  0  0
 74 82  2  0  0  0
 74 78  1  0  0  0
 75 82  1  0  0  0
 75 83  1  0  0  0
 76 77  1  0  0  0
 76 78  1  0  0  0
 76146  1  0  0  0
 76147  1  0  0  0
 77 78  1  0  0  0
 77148  1  0  0  0
 77149  1  0  0  0
 78150  1  0  0  0
 79151  1  0  0  0
 79152  1  0  0  0
 80 81  1  0  0  0
 80 83  1  0  0  0
 80153  1  0  0  0
 80154  1  0  0  0
 81 84  1  0  0  0
 81155  1  0  0  0
 81156  1  0  0  0
 83157  1  0  0  0
 84158  1  0  0  0
M  ISO  4   1 100  68 101  79 101  84 100
M  END
> <chiral flag>
0

> <version>
0

> <s_m_source_file>
/data/baiqing/PycharmProjects/Reinvent-master-3.2/result/LINK_invent/BTK/process_docking_weight1_custom_sum_contain_oxygen_bond_distance_aromatic_linkinvent_7_9_3/rearranged_h_0133.sdf

> <i_m_source_file_index>
49

> <r_mmod_Potential_Energy-OPLS-2005>
-120.425064086914

> <r_mmod_Stretch_Energy-OPLS-2005>
119.153282165527

> <r_mmod_Bend_Energy-OPLS-2005>
175.559722900391

> <r_mmod_Torsional_Energy-OPLS-2005>
252.408172607422

> <r_mmod_Improper_Torsional_Energy-OPLS-2005>
5.91677045822144

> <r_mmod_Van_der_Waal_Energy-OPLS-2005>
132.351135253906

> <r_mmod_Electrostatic_Energy-OPLS-2005>
-649.54541015625

> <r_mmod_Solvation_Energy-OPLS-2005>
-240.622894287109

> <b_mmod_Minimization_Converged-OPLS-2005>
0

> <r_mmod_RMS_Derivative-OPLS-2005>
1.74369406700134

$$$$
50
                    3D
 Structure written by MMmdl.
160168  0  0  1  0            999 V2000
  -30.7661  -14.5176   20.5095 C   0  0  0  0  0  0
  -30.4059  -12.3193   19.4605 C   0  0  0  0  0  0
  -29.5019  -12.4771   18.2216 C   0  0  0  0  0  0
  -28.0256  -12.3289   18.6353 C   0  0  0  0  0  0
  -27.6508  -13.2251   19.8469 C   0  0  2  0  0  0
  -28.6953  -13.1308   20.9854 C   0  0  0  0  0  0
  -25.2541  -13.8188   20.5629 C   0  0  0  0  0  0
  -24.1834  -13.0461   20.9139 C   0  0  0  0  0  0
  -24.6442  -11.6922   20.8741 C   0  0  0  0  0  0
  -23.9117  -10.4307   21.0436 C   0  0  0  0  0  0
  -24.3642   -9.4202   21.9216 C   0  0  0  0  0  0
  -23.6280   -8.2278   22.0812 C   0  0  0  0  0  0
  -22.4284   -8.0296   21.3576 C   0  0  0  0  0  0
  -21.9907   -9.0301   20.4697 C   0  0  0  0  0  0
  -22.7283  -10.2144   20.3086 C   0  0  0  0  0  0
  -21.6852   -6.0740   22.5298 C   0  0  0  0  0  0
  -21.4034   -6.5640   23.8218 C   0  0  0  0  0  0
  -21.3655   -5.6792   24.9183 C   0  0  0  0  0  0
  -21.6048   -4.3060   24.7235 C   0  0  0  0  0  0
  -21.8815   -3.8144   23.4356 C   0  0  0  0  0  0
  -21.9178   -4.6978   22.3397 C   0  0  0  0  0  0
  -22.7851  -13.5269   21.1814 C   0  0  0  0  0  0
  -22.1660   -4.2159   21.0988 F   0  0  0  0  0  0
  -21.5620   -3.4527   25.7742 F   0  0  0  0  0  0
  -30.0262  -13.3778   20.4125 N   0  0  0  0  0  0
  -26.2974  -12.9398   20.3210 N   0  0  0  0  0  0
  -25.9361  -11.6538   20.5730 N   0  0  0  0  0  0
  -22.0439  -12.8332   22.0343 N   0  0  0  0  0  0
  -25.4195  -15.1912   20.4049 N   0  0  0  0  0  0
  -31.9178  -14.5800   20.0793 O   0  0  0  0  0  0
  -21.6661   -6.8890   21.4251 O   0  0  0  0  0  0
  -22.3546  -14.5592   20.6635 O   0  0  0  0  0  0
  -24.6143  -31.8699   23.2049 C   0  0  0  0  0  0
  -25.9050  -32.4827   23.8342 C   0  0  1  0  0  0
  -27.2192  -27.4224   20.1075 C   0  0  0  0  0  0
  -25.5866  -33.8599   24.2293 N   0  0  0  0  0  0
  -23.3967  -30.4947   21.5464 C   0  0  2  0  0  0
  -24.8430  -28.9550   20.1105 C   0  0  0  0  0  0
  -22.7408  -29.4709   22.4991 C   0  0  0  0  0  0
  -18.0269  -28.1346   22.8450 C   0  0  0  0  0  0
  -24.1482  -36.7312   23.2621 C   0  0  0  0  0  0
  -25.9238  -30.8390   21.3519 C   0  0  0  0  0  0
  -26.0028  -29.4719   20.6985 C   0  0  0  0  0  0
  -27.1985  -28.7141   20.6840 C   0  0  0  0  0  0
  -26.0409  -26.9268   19.5020 C   0  0  0  0  0  0
  -24.8559  -27.6825   19.5087 C   0  0  0  0  0  0
  -23.6049  -29.8248   20.1600 C   0  0  0  0  0  0
  -25.4083  -36.3083   24.0330 C   0  0  1  0  0  0
  -20.5844  -28.3672   23.1348 C   0  0  2  0  0  0
  -20.6766  -26.9412   22.5470 C   0  0  0  0  0  0
  -19.5792  -26.6375   21.5246 C   0  0  0  0  0  0
  -18.1960  -26.7904   22.1613 C   0  0  0  0  0  0
  -19.1491  -28.8840   23.2873 C   0  0  0  0  0  0
  -18.9428  -30.1413   23.8893 C   0  0  0  0  0  0
  -17.6390  -30.6533   24.0521 C   0  0  0  0  0  0
  -25.9004  -34.9469   23.5120 C   0  0  0  0  0  0
  -16.5320  -29.9017   23.6228 C   0  0  0  0  0  0
  -16.7243  -28.6438   23.0297 C   0  0  0  0  0  0
  -26.4485  -31.6574   25.0679 C   0  0  0  0  0  0
  -25.3733  -31.3710   26.1431 C   0  0  0  0  0  0
  -27.0306  -30.3006   24.6047 C   0  0  0  0  0  0
  -27.6091  -32.4243   25.7437 C   0  0  0  0  0  0
  -27.5566  -37.1822   24.8476 C   0  0  0  0  0  0
  -21.4130  -29.3072   22.3797 N   0  0  0  0  0  0
  -26.4298  -37.3759   23.9401 N   0  0  0  0  0  0
  -24.6637  -31.0793   22.0954 N   0  0  0  0  0  0
  -23.4201  -28.8257   23.2981 O   0  0  0  0  0  0
  -28.3924  -26.6971   20.1591 O   0  0  0  0  0  0
  -26.5580  -34.8948   22.4713 O   0  0  0  0  0  0
  -23.5353  -32.1470   23.7512 O   0  0  0  0  0  0
  -29.0110  -24.6792   21.1998 C   0  0  0  0  0  0
  -27.6037  -24.2886   20.8436 C   0  0  1  0  0  0
  -28.3785  -25.2716   19.9538 C   0  0  2  0  0  0
  -26.8622  -21.9916   21.3157 C   0  0  0  0  0  0
  -30.8959  -16.9459   20.9006 C   0  0  0  0  0  0
  -27.1638  -20.5254   20.9074 C   0  0  0  0  0  0
  -29.0917  -18.9033   20.6414 C   0  0  0  0  0  0
  -30.1989  -18.2063   21.5062 C   0  0  2  0  0  0
  -31.2959  -19.1491   21.7120 N   0  0  0  0  0  0
  -30.1642  -15.6586   20.9193 N   0  0  0  0  0  0
  -27.4523  -22.9169   20.3483 N   0  0  0  0  0  0
  -28.5247  -20.1055   21.3166 N   0  3  0  0  0  0
  -31.4602  -12.3553   19.1798 H   0  0  0  0  0  0
  -30.2574  -11.3393   19.9227 H   0  0  0  0  0  0
  -29.7598  -11.7239   17.4758 H   0  0  0  0  0  0
  -29.6678  -13.4458   17.7465 H   0  0  0  0  0  0
  -27.8696  -11.2788   18.8847 H   0  0  0  0  0  0
  -27.3739  -12.5411   17.7844 H   0  0  0  0  0  0
  -27.6606  -14.2521   19.4738 H   0  0  0  0  0  0
  -28.6715  -12.1498   21.4629 H   0  0  0  0  0  0
  -28.4589  -13.8507   21.7702 H   0  0  0  0  0  0
  -25.2778   -9.5677   22.4784 H   0  0  0  0  0  0
  -23.9972   -7.4680   22.7539 H   0  0  0  0  0  0
  -21.0819   -8.8843   19.9005 H   0  0  0  0  0  0
  -22.3753  -10.9701   19.6189 H   0  0  0  0  0  0
  -21.2059   -7.6149   23.9731 H   0  0  0  0  0  0
  -21.1469   -6.0526   25.9084 H   0  0  0  0  0  0
  -22.0579   -2.7609   23.2864 H   0  0  0  0  0  0
  -22.4015  -12.0006   22.4787 H   0  0  0  0  0  0
  -21.1077  -13.1458   22.2538 H   0  0  0  0  0  0
  -24.6383  -15.8301   20.5040 H   0  0  0  0  0  0
  -26.2535  -15.6356   20.0444 H   0  0  0  0  0  0
  -26.7134  -32.5567   23.1120 H   0  0  0  0  0  0
  -25.0031  -33.9702   25.0442 H   0  0  0  0  0  0
  -22.6853  -31.3118   21.4042 H   0  0  0  0  0  0
  -23.3697  -35.9703   23.3367 H   0  0  0  0  0  0
  -24.3552  -36.8873   22.2025 H   0  0  0  0  0  0
  -23.7340  -37.6579   23.6602 H   0  0  0  0  0  0
  -26.0105  -31.6015   20.5773 H   0  0  0  0  0  0
  -26.8178  -30.9092   21.9631 H   0  0  0  0  0  0
  -28.1017  -29.1069   21.1372 H   0  0  0  0  0  0
  -26.0207  -25.9535   19.0320 H   0  0  0  0  0  0
  -23.9616  -27.2907   19.0406 H   0  0  0  0  0  0
  -23.7104  -30.5951   19.3934 H   0  0  0  0  0  0
  -22.7340  -29.2401   19.8609 H   0  0  0  0  0  0
  -25.1272  -36.1950   25.0820 H   0  0  0  0  0  0
  -20.9982  -28.3189   24.1442 H   0  0  0  0  0  0
  -20.5659  -26.2381   23.3733 H   0  0  0  0  0  0
  -21.6594  -26.7391   22.1199 H   0  0  0  0  0  0
  -19.6963  -25.6298   21.1304 H   0  0  0  0  0  0
  -19.6736  -27.3182   20.6786 H   0  0  0  0  0  0
  -17.4247  -26.6586   21.3997 H   0  0  0  0  0  0
  -18.0401  -26.0076   22.9025 H   0  0  0  0  0  0
  -19.7923  -30.7164   24.2263 H   0  0  0  0  0  0
  -17.4940  -31.6219   24.5128 H   0  0  0  0  0  0
  -15.5302  -30.2916   23.7481 H   0  0  0  0  0  0
  -15.8620  -28.0742   22.7063 H   0  0  0  0  0  0
  -24.5894  -30.7087   25.7778 H   0  0  0  0  0  0
  -24.8949  -32.2897   26.4834 H   0  0  0  0  0  0
  -25.8061  -30.8915   27.0213 H   0  0  0  0  0  0
  -26.2867  -29.6777   24.1093 H   0  0  0  0  0  0
  -27.4088  -29.7237   25.4486 H   0  0  0  0  0  0
  -27.8682  -30.4304   23.9175 H   0  0  0  0  0  0
  -27.2717  -33.3494   26.2086 H   0  0  0  0  0  0
  -28.3855  -32.6852   25.0240 H   0  0  0  0  0  0
  -28.0779  -31.8308   26.5297 H   0  0  0  0  0  0
  -28.2629  -38.0040   24.7376 H   0  0  0  0  0  0
  -28.0978  -36.2599   24.6438 H   0  0  0  0  0  0
  -27.2271  -37.1659   25.8861 H   0  0  0  0  0  0
  -20.9258  -29.8847   21.7100 H   0  0  0  0  0  0
  -26.0192  -38.2868   24.1321 H   0  0  0  0  0  0
  -29.8217  -23.9636   21.0572 H   0  0  0  0  0  0
  -29.1041  -25.3044   22.0871 H   0  0  0  0  0  0
  -26.7977  -24.7496   21.4161 H   0  0  0  0  0  0
  -28.6996  -24.9530   18.9601 H   0  0  0  0  0  0
  -27.2115  -22.1861   22.3318 H   0  0  0  0  0  0
  -25.7817  -22.1498   21.3269 H   0  0  0  0  0  0
  -31.8133  -16.7635   21.4757 H   0  0  0  0  0  0
  -31.2375  -17.1551   19.8830 H   0  0  0  0  0  0
  -27.0250  -20.3926   19.8358 H   0  0  0  0  0  0
  -26.4494  -19.8591   21.3931 H   0  0  0  0  0  0
  -28.2871  -18.1925   20.4379 H   0  0  0  0  0  0
  -29.4785  -19.2104   19.6667 H   0  0  0  0  0  0
  -29.7901  -17.9400   22.4853 H   0  0  0  0  0  0
  -31.5818  -19.6150   20.8556 H   0  0  0  0  0  0
  -31.0817  -19.8852   22.3780 H   0  0  0  0  0  0
  -29.1922  -15.6428   21.1848 H   0  0  0  0  0  0
  -26.8673  -22.9132   19.5127 H   0  0  0  0  0  0
  -28.5101  -19.9283   22.3063 H   0  0  0  0  0  0
  -29.1338  -20.8910   21.1539 H   0  0  0  0  0  0
  1 25  1  0  0  0
  1 30  2  0  0  0
  1 80  1  0  0  0
  2  3  1  0  0  0
  2 25  1  0  0  0
  2 83  1  0  0  0
  2 84  1  0  0  0
  3  4  1  0  0  0
  3 85  1  0  0  0
  3 86  1  0  0  0
  4  5  1  0  0  0
  4 87  1  0  0  0
  4 88  1  0  0  0
  5  6  1  0  0  0
  5 26  1  0  0  0
  5 89  1  0  0  0
  6 25  1  0  0  0
  6 90  1  0  0  0
  6 91  1  0  0  0
  7  8  2  0  0  0
  7 26  1  0  0  0
  7 29  1  0  0  0
  8  9  1  0  0  0
  8 22  1  0  0  0
  9 10  1  0  0  0
  9 27  2  0  0  0
 10 11  2  0  0  0
 10 15  1  0  0  0
 11 12  1  0  0  0
 11 92  1  0  0  0
 12 13  2  0  0  0
 12 93  1  0  0  0
 13 14  1  0  0  0
 13 31  1  0  0  0
 14 15  2  0  0  0
 14 94  1  0  0  0
 15 95  1  0  0  0
 16 17  2  0  0  0
 16 21  1  0  0  0
 16 31  1  0  0  0
 17 18  1  0  0  0
 17 96  1  0  0  0
 18 19  2  0  0  0
 18 97  1  0  0  0
 19 20  1  0  0  0
 19 24  1  0  0  0
 20 21  2  0  0  0
 20 98  1  0  0  0
 21 23  1  0  0  0
 22 28  1  0  0  0
 22 32  2  0  0  0
 26 27  1  0  0  0
 28 99  1  0  0  0
 28100  1  0  0  0
 29101  1  0  0  0
 29102  1  0  0  0
 33 34  1  0  0  0
 33 66  1  0  0  0
 33 70  2  0  0  0
 34 36  1  0  0  0
 34 59  1  0  0  0
 34103  1  0  0  0
 35 44  2  0  0  0
 35 45  1  0  0  0
 35 68  1  0  0  0
 36 56  1  0  0  0
 36104  1  0  0  0
 37 39  1  0  0  0
 37 47  1  0  0  0
 37 66  1  0  0  0
 37105  1  0  0  0
 38 43  2  0  0  0
 38 46  1  0  0  0
 38 47  1  0  0  0
 39 64  1  0  0  0
 39 67  2  0  0  0
 40 52  1  0  0  0
 40 53  2  0  0  0
 40 58  1  0  0  0
 41106  1  0  0  0
 41107  1  0  0  0
 41108  1  0  0  0
 41 48  1  0  0  0
 42 43  1  0  0  0
 42 66  1  0  0  0
 42109  1  0  0  0
 42110  1  0  0  0
 43 44  1  0  0  0
 44111  1  0  0  0
 45 46  2  0  0  0
 45112  1  0  0  0
 46113  1  0  0  0
 47114  1  0  0  0
 47115  1  0  0  0
 48 56  1  0  0  0
 48 65  1  0  0  0
 48116  1  0  0  0
 49 50  1  0  0  0
 49 53  1  0  0  0
 49 64  1  0  0  0
 49117  1  0  0  0
 50 51  1  0  0  0
 50118  1  0  0  0
 50119  1  0  0  0
 51 52  1  0  0  0
 51120  1  0  0  0
 51121  1  0  0  0
 52122  1  0  0  0
 52123  1  0  0  0
 53 54  1  0  0  0
 54 55  2  0  0  0
 54124  1  0  0  0
 55 57  1  0  0  0
 55125  1  0  0  0
 56 69  2  0  0  0
 57 58  2  0  0  0
 57126  1  0  0  0
 58127  1  0  0  0
 59 60  1  0  0  0
 59 61  1  0  0  0
 59 62  1  0  0  0
 60128  1  0  0  0
 60129  1  0  0  0
 60130  1  0  0  0
 61131  1  0  0  0
 61132  1  0  0  0
 61133  1  0  0  0
 62134  1  0  0  0
 62135  1  0  0  0
 62136  1  0  0  0
 63 65  1  0  0  0
 63137  1  0  0  0
 63138  1  0  0  0
 63139  1  0  0  0
 64140  1  0  0  0
 65141  1  0  0  0
 68 73  1  0  0  0
 71 72  1  0  0  0
 71 73  1  0  0  0
 71142  1  0  0  0
 71143  1  0  0  0
 72 73  1  0  0  0
 72 81  1  0  0  0
 72144  1  0  0  0
 73145  1  0  0  0
 74 76  1  0  0  0
 74 81  1  0  0  0
 74146  1  0  0  0
 74147  1  0  0  0
 75 78  1  0  0  0
 75 80  1  0  0  0
 75148  1  0  0  0
 75149  1  0  0  0
 76 82  1  0  0  0
 76150  1  0  0  0
 76151  1  0  0  0
 77 78  1  0  0  0
 77 82  1  0  0  0
 77152  1  0  0  0
 77153  1  0  0  0
 78 79  1  0  0  0
 78154  1  0  0  0
 79155  1  0  0  0
 79156  1  0  0  0
 80157  1  0  0  0
 81158  1  0  0  0
 82159  1  0  0  0
 82160  1  0  0  0
M  CHG  1  82   1
M  ISO  4   1 100  68 101  73 101  80 100
M  END
> <chiral flag>
0

> <version>
0

> <s_m_source_file>
/data/baiqing/PycharmProjects/Reinvent-master-3.2/result/LINK_invent/BTK/process_docking_weight1_custom_sum_contain_oxygen_bond_distance_aromatic_linkinvent_7_9_3/rearranged_h_0133.sdf

> <i_m_source_file_index>
50

> <r_mmod_Potential_Energy-OPLS-2005>
-271.388519287109

> <r_mmod_Stretch_Energy-OPLS-2005>
41.0408058166504

> <r_mmod_Bend_Energy-OPLS-2005>
130.684478759766

> <r_mmod_Torsional_Energy-OPLS-2005>
227.091384887695

> <r_mmod_Improper_Torsional_Energy-OPLS-2005>
3.84377694129944

> <r_mmod_Van_der_Waal_Energy-OPLS-2005>
131.276473999023

> <r_mmod_Electrostatic_Energy-OPLS-2005>
-314.999633789062

> <r_mmod_Solvation_Energy-OPLS-2005>
-516.575378417969

> <b_mmod_Minimization_Converged-OPLS-2005>
0

> <r_mmod_RMS_Derivative-OPLS-2005>
8.06548118591309

$$$$
51
                    3D
 Structure written by MMmdl.
154163  0  0  1  0            999 V2000
  -30.4827  -15.0850   20.3812 C   0  0  0  0  0  0
  -30.4402  -12.6707   19.5317 C   0  0  0  0  0  0
  -29.5338  -12.5591   18.2812 C   0  0  0  0  0  0
  -28.0693  -12.3232   18.6917 C   0  0  0  0  0  0
  -27.6261  -13.2639   19.8414 C   0  0  2  0  0  0
  -28.6612  -13.3373   20.9854 C   0  0  0  0  0  0
  -25.2438  -13.8248   20.5737 C   0  0  0  0  0  0
  -24.1767  -13.0449   20.9233 C   0  0  0  0  0  0
  -24.6401  -11.6938   20.8753 C   0  0  0  0  0  0
  -23.9091  -10.4302   21.0407 C   0  0  0  0  0  0
  -24.3637   -9.4212   21.9183 C   0  0  0  0  0  0
  -23.6304   -8.2250   22.0754 C   0  0  0  0  0  0
  -22.4282   -8.0290   21.3549 C   0  0  0  0  0  0
  -21.9921   -9.0266   20.4650 C   0  0  0  0  0  0
  -22.7261  -10.2140   20.3058 C   0  0  0  0  0  0
  -21.6855   -6.0742   22.5281 C   0  0  0  0  0  0
  -21.4018   -6.5644   23.8216 C   0  0  0  0  0  0
  -21.3658   -5.6794   24.9176 C   0  0  0  0  0  0
  -21.6042   -4.3057   24.7227 C   0  0  0  0  0  0
  -21.8818   -3.8150   23.4347 C   0  0  0  0  0  0
  -21.9194   -4.6970   22.3404 C   0  0  0  0  0  0
  -22.7787  -13.5211   21.1888 C   0  0  0  0  0  0
  -22.1664   -4.2156   21.0983 F   0  0  0  0  0  0
  -21.5622   -3.4539   25.7738 F   0  0  0  0  0  0
  -29.9287  -13.7891   20.3939 N   0  0  0  0  0  0
  -26.2868  -12.9503   20.3253 N   0  0  0  0  0  0
  -25.9337  -11.6616   20.5732 N   0  0  0  0  0  0
  -22.0437  -12.8196   22.0444 N   0  0  0  0  0  0
  -25.4097  -15.1982   20.4200 N   0  0  0  0  0  0
  -31.6718  -15.1319   20.0342 O   0  0  0  0  0  0
  -21.6643   -6.8887   21.4244 O   0  0  0  0  0  0
  -22.3466  -14.5514   20.6730 O   0  0  0  0  0  0
  -24.6508  -31.8324   23.1783 C   0  0  0  0  0  0
  -25.9239  -32.4631   23.8210 C   0  0  1  0  0  0
  -27.2239  -27.0420   20.1655 C   0  0  0  0  0  0
  -25.5951  -33.8443   24.2123 N   0  0  0  0  0  0
  -23.4602  -30.4461   21.5237 C   0  0  2  0  0  0
  -24.9135  -28.8516   20.1031 C   0  0  0  0  0  0
  -22.7605  -29.4479   22.4807 C   0  0  0  0  0  0
  -18.0310  -28.1401   22.8471 C   0  0  0  0  0  0
  -24.1492  -36.7232   23.2646 C   0  0  0  0  0  0
  -26.0200  -30.6747   21.3918 C   0  0  0  0  0  0
  -26.0885  -29.2762   20.7341 C   0  0  0  0  0  0
  -27.2359  -28.3858   20.7495 C   0  0  0  0  0  0
  -26.0262  -26.7371   19.4847 C   0  0  0  0  0  0
  -24.9008  -27.6001   19.4615 C   0  0  0  0  0  0
  -23.6924  -29.7646   20.1457 C   0  0  0  0  0  0
  -25.4128  -36.2994   24.0306 C   0  0  1  0  0  0
  -20.5926  -28.3730   23.1214 C   0  0  2  0  0  0
  -20.6789  -26.9420   22.5410 C   0  0  0  0  0  0
  -19.5766  -26.6374   21.5217 C   0  0  0  0  0  0
  -18.1946  -26.7936   22.1622 C   0  0  0  0  0  0
  -19.1569  -28.8886   23.2833 C   0  0  0  0  0  0
  -18.9484  -30.1480   23.8862 C   0  0  0  0  0  0
  -17.6478  -30.6593   24.0556 C   0  0  0  0  0  0
  -25.9082  -34.9372   23.5032 C   0  0  0  0  0  0
  -16.5368  -29.9082   23.6341 C   0  0  0  0  0  0
  -16.7294  -28.6504   23.0357 C   0  0  0  0  0  0
  -26.4533  -31.6548   25.0701 C   0  0  0  0  0  0
  -25.3695  -31.3773   26.1385 C   0  0  0  0  0  0
  -27.0417  -30.2927   24.6369 C   0  0  0  0  0  0
  -27.6038  -32.4344   25.7496 C   0  0  0  0  0  0
  -27.5572  -37.1772   24.8462 C   0  0  0  0  0  0
  -21.4286  -29.3033   22.3567 N   0  0  0  0  0  0
  -26.4282  -37.3719   23.9405 N   0  0  0  0  0  0
  -24.7304  -31.0090   22.0858 N   0  0  0  0  0  0
  -23.4207  -28.8044   23.3004 O   0  0  0  0  0  0
  -28.2689  -26.0298   20.3135 O   0  0  0  0  0  0
  -26.5686  -34.8888   22.4623 O   0  0  0  0  0  0
  -23.5606  -32.1242   23.6950 O   0  0  0  0  0  0
  -29.3626  -17.7416   18.6940 C   0  0  0  0  0  0
  -28.8263  -20.1490   18.6375 C   0  0  0  0  0  0
  -28.9861  -18.9069   17.9815 C   0  0  0  0  0  0
  -29.5752  -17.7329   20.0873 C   0  0  0  0  0  0
  -29.0625  -20.2705   20.0117 C   0  0  0  0  0  0
  -27.4616  -19.3123   15.8912 C   0  0  0  0  0  0
  -27.7582  -17.8313   15.9382 C   0  0  0  0  0  0
  -28.7506  -18.8189   16.5060 C   0  0  0  0  0  0
  -28.4061  -24.5373   19.7495 C   0  0  0  0  0  0
  -28.1480  -22.9086   20.3209 C   0  0  0  0  0  0
  -29.4202  -19.0438   20.6993 N   0  0  0  0  0  0
  -29.7292  -16.2884   20.6834 N   0  0  0  0  0  0
  -29.0647  -21.6349   20.6088 O   0  0  0  0  0  0
  -31.4734  -12.8325   19.2213 H   0  0  0  0  0  0
  -30.4496  -11.7309   20.0860 H   0  0  0  0  0  0
  -29.8767  -11.7524   17.6318 H   0  0  0  0  0  0
  -29.6074  -13.4761   17.6946 H   0  0  0  0  0  0
  -27.9806  -11.2847   19.0122 H   0  0  0  0  0  0
  -27.4098  -12.4363   17.8305 H   0  0  0  0  0  0
  -27.5757  -14.2580   19.3956 H   0  0  0  0  0  0
  -28.7732  -12.3700   21.4771 H   0  0  0  0  0  0
  -28.3330  -14.0373   21.7546 H   0  0  0  0  0  0
  -25.2780   -9.5685   22.4761 H   0  0  0  0  0  0
  -24.0012   -7.4638   22.7468 H   0  0  0  0  0  0
  -21.0851   -8.8792   19.8957 H   0  0  0  0  0  0
  -22.3721  -10.9681   19.6170 H   0  0  0  0  0  0
  -21.2017   -7.6152   23.9723 H   0  0  0  0  0  0
  -21.1478   -6.0524   25.9079 H   0  0  0  0  0  0
  -22.0597   -2.7611   23.2847 H   0  0  0  0  0  0
  -22.4061  -11.9870   22.4851 H   0  0  0  0  0  0
  -21.1052  -13.1212   22.2647 H   0  0  0  0  0  0
  -24.6394  -15.8482   20.5350 H   0  0  0  0  0  0
  -26.2510  -15.6405   20.0733 H   0  0  0  0  0  0
  -26.7302  -32.5202   23.0926 H   0  0  0  0  0  0
  -25.0051  -33.9537   25.0240 H   0  0  0  0  0  0
  -22.7680  -31.2747   21.3605 H   0  0  0  0  0  0
  -23.3756  -35.9560   23.3284 H   0  0  0  0  0  0
  -24.3573  -36.8899   22.2066 H   0  0  0  0  0  0
  -23.7249  -37.6417   23.6711 H   0  0  0  0  0  0
  -26.1889  -31.4235   20.6166 H   0  0  0  0  0  0
  -26.8843  -30.7262   22.0424 H   0  0  0  0  0  0
  -28.1241  -28.7013   21.2786 H   0  0  0  0  0  0
  -25.9241  -25.7725   19.0097 H   0  0  0  0  0  0
  -24.0031  -27.2699   18.9570 H   0  0  0  0  0  0
  -23.8342  -30.5353   19.3871 H   0  0  0  0  0  0
  -22.8052  -29.2100   19.8347 H   0  0  0  0  0  0
  -25.1323  -36.1802   25.0798 H   0  0  0  0  0  0
  -21.0022  -28.3335   24.1334 H   0  0  0  0  0  0
  -20.5673  -26.2342   23.3638 H   0  0  0  0  0  0
  -21.6653  -26.7407   22.1215 H   0  0  0  0  0  0
  -19.6922  -25.6275   21.1271 H   0  0  0  0  0  0
  -19.6709  -27.3162   20.6730 H   0  0  0  0  0  0
  -17.4214  -26.6676   21.4028 H   0  0  0  0  0  0
  -18.0343  -26.0091   22.9032 H   0  0  0  0  0  0
  -19.7959  -30.7311   24.2210 H   0  0  0  0  0  0
  -17.5028  -31.6271   24.5163 H   0  0  0  0  0  0
  -15.5366  -30.2971   23.7688 H   0  0  0  0  0  0
  -15.8695  -28.0814   22.7087 H   0  0  0  0  0  0
  -24.5861  -30.7139   25.7702 H   0  0  0  0  0  0
  -24.8905  -32.2971   26.4751 H   0  0  0  0  0  0
  -25.7953  -30.8975   27.0207 H   0  0  0  0  0  0
  -26.3061  -29.6621   24.1364 H   0  0  0  0  0  0
  -27.3967  -29.7269   25.4994 H   0  0  0  0  0  0
  -27.8994  -30.4130   23.9747 H   0  0  0  0  0  0
  -27.2603  -33.3663   26.1998 H   0  0  0  0  0  0
  -28.3886  -32.6879   25.0357 H   0  0  0  0  0  0
  -28.0664  -31.8529   26.5481 H   0  0  0  0  0  0
  -28.2572  -38.0084   24.7508 H   0  0  0  0  0  0
  -28.1086  -36.2612   24.6286 H   0  0  0  0  0  0
  -27.2289  -37.1412   25.8864 H   0  0  0  0  0  0
  -20.9511  -29.8726   21.6717 H   0  0  0  0  0  0
  -26.0137  -38.2779   24.1413 H   0  0  0  0  0  0
  -29.4382  -16.8136   18.1433 H   0  0  0  0  0  0
  -28.5696  -21.0273   18.0617 H   0  0  0  0  0  0
  -26.6896  -19.6894   16.5597 H   0  0  0  0  0  0
  -27.5148  -19.7950   14.9174 H   0  0  0  0  0  0
  -28.0061  -17.3467   14.9960 H   0  0  0  0  0  0
  -27.1814  -17.2289   16.6376 H   0  0  0  0  0  0
  -29.6729  -18.9849   15.9519 H   0  0  0  0  0  0
  -27.8733  -24.5748   18.7997 H   0  0  0  0  0  0
  -29.4461  -24.5193   19.4245 H   0  0  0  0  0  0
  -27.3722  -22.5122   19.6657 H   0  0  0  0  0  0
  -27.6166  -23.0391   21.2630 H   0  0  0  0  0  0
  -28.9406  -16.0593   21.2677 H   0  0  0  0  0  0
  1 25  1  0  0  0
  1 30  2  0  0  0
  1 82  1  0  0  0
  2  3  1  0  0  0
  2 25  1  0  0  0
  2 84  1  0  0  0
  2 85  1  0  0  0
  3  4  1  0  0  0
  3 86  1  0  0  0
  3 87  1  0  0  0
  4  5  1  0  0  0
  4 88  1  0  0  0
  4 89  1  0  0  0
  5  6  1  0  0  0
  5 26  1  0  0  0
  5 90  1  0  0  0
  6 25  1  0  0  0
  6 91  1  0  0  0
  6 92  1  0  0  0
  7  8  2  0  0  0
  7 26  1  0  0  0
  7 29  1  0  0  0
  8  9  1  0  0  0
  8 22  1  0  0  0
  9 10  1  0  0  0
  9 27  2  0  0  0
 10 11  2  0  0  0
 10 15  1  0  0  0
 11 12  1  0  0  0
 11 93  1  0  0  0
 12 13  2  0  0  0
 12 94  1  0  0  0
 13 14  1  0  0  0
 13 31  1  0  0  0
 14 15  2  0  0  0
 14 95  1  0  0  0
 15 96  1  0  0  0
 16 17  2  0  0  0
 16 21  1  0  0  0
 16 31  1  0  0  0
 17 18  1  0  0  0
 17 97  1  0  0  0
 18 19  2  0  0  0
 18 98  1  0  0  0
 19 20  1  0  0  0
 19 24  1  0  0  0
 20 21  2  0  0  0
 20 99  1  0  0  0
 21 23  1  0  0  0
 22 28  1  0  0  0
 22 32  2  0  0  0
 26 27  1  0  0  0
 28100  1  0  0  0
 28101  1  0  0  0
 29102  1  0  0  0
 29103  1  0  0  0
 33 34  1  0  0  0
 33 66  1  0  0  0
 33 70  2  0  0  0
 34 36  1  0  0  0
 34 59  1  0  0  0
 34104  1  0  0  0
 35 44  2  0  0  0
 35 45  1  0  0  0
 35 68  1  0  0  0
 36 56  1  0  0  0
 36105  1  0  0  0
 37 39  1  0  0  0
 37 47  1  0  0  0
 37 66  1  0  0  0
 37106  1  0  0  0
 38 43  2  0  0  0
 38 46  1  0  0  0
 38 47  1  0  0  0
 39 64  1  0  0  0
 39 67  2  0  0  0
 40 52  1  0  0  0
 40 53  2  0  0  0
 40 58  1  0  0  0
 41107  1  0  0  0
 41108  1  0  0  0
 41109  1  0  0  0
 41 48  1  0  0  0
 42 43  1  0  0  0
 42 66  1  0  0  0
 42110  1  0  0  0
 42111  1  0  0  0
 43 44  1  0  0  0
 44112  1  0  0  0
 45 46  2  0  0  0
 45113  1  0  0  0
 46114  1  0  0  0
 47115  1  0  0  0
 47116  1  0  0  0
 48 56  1  0  0  0
 48 65  1  0  0  0
 48117  1  0  0  0
 49 50  1  0  0  0
 49 53  1  0  0  0
 49 64  1  0  0  0
 49118  1  0  0  0
 50 51  1  0  0  0
 50119  1  0  0  0
 50120  1  0  0  0
 51 52  1  0  0  0
 51121  1  0  0  0
 51122  1  0  0  0
 52123  1  0  0  0
 52124  1  0  0  0
 53 54  1  0  0  0
 54 55  2  0  0  0
 54125  1  0  0  0
 55 57  1  0  0  0
 55126  1  0  0  0
 56 69  2  0  0  0
 57 58  2  0  0  0
 57127  1  0  0  0
 58128  1  0  0  0
 59 60  1  0  0  0
 59 61  1  0  0  0
 59 62  1  0  0  0
 60129  1  0  0  0
 60130  1  0  0  0
 60131  1  0  0  0
 61132  1  0  0  0
 61133  1  0  0  0
 61134  1  0  0  0
 62135  1  0  0  0
 62136  1  0  0  0
 62137  1  0  0  0
 63 65  1  0  0  0
 63138  1  0  0  0
 63139  1  0  0  0
 63140  1  0  0  0
 64141  1  0  0  0
 65142  1  0  0  0
 68 79  1  0  0  0
 71 73  2  0  0  0
 71 74  1  0  0  0
 71143  1  0  0  0
 72 73  1  0  0  0
 72 75  2  0  0  0
 72144  1  0  0  0
 73 78  1  0  0  0
 74 81  2  0  0  0
 74 82  1  0  0  0
 75 81  1  0  0  0
 75 83  1  0  0  0
 76 77  1  0  0  0
 76 78  1  0  0  0
 76145  1  0  0  0
 76146  1  0  0  0
 77 78  1  0  0  0
 77147  1  0  0  0
 77148  1  0  0  0
 78149  1  0  0  0
 79 80  1  0  0  0
 79150  1  0  0  0
 79151  1  0  0  0
 80 83  1  0  0  0
 80152  1  0  0  0
 80153  1  0  0  0
 82154  1  0  0  0
M  ISO  4   1 100  68 101  79 101  82 100
M  END
> <chiral flag>
0

> <version>
0

> <s_m_source_file>
/data/baiqing/PycharmProjects/Reinvent-master-3.2/result/LINK_invent/BTK/process_docking_weight1_custom_sum_contain_oxygen_bond_distance_aromatic_linkinvent_7_9_3/rearranged_h_0133.sdf

> <i_m_source_file_index>
51

> <r_mmod_Potential_Energy-OPLS-2005>
700.077331542969

> <r_mmod_Stretch_Energy-OPLS-2005>
380.931762695312

> <r_mmod_Bend_Energy-OPLS-2005>
395.121612548828

> <r_mmod_Torsional_Energy-OPLS-2005>
283.652618408203

> <r_mmod_Improper_Torsional_Energy-OPLS-2005>
4.75090169906616

> <r_mmod_Van_der_Waal_Energy-OPLS-2005>
120.570640563965

> <r_mmod_Electrostatic_Energy-OPLS-2005>
-545.440734863281

> <r_mmod_Solvation_Energy-OPLS-2005>
-233.003524780273

> <b_mmod_Minimization_Converged-OPLS-2005>
0

> <r_mmod_RMS_Derivative-OPLS-2005>
0.784664452075958

$$$$
52
                    3D
 Structure written by MMmdl.
160169  0  0  1  0            999 V2000
  -30.6537  -14.6283   20.4961 C   0  0  0  0  0  0
  -30.4266  -12.3935   19.4456 C   0  0  0  0  0  0
  -29.4919  -12.5020   18.2208 C   0  0  0  0  0  0
  -28.0239  -12.3273   18.6445 C   0  0  0  0  0  0
  -27.6487  -13.2203   19.8586 C   0  0  2  0  0  0
  -28.6927  -13.1054   20.9902 C   0  0  0  0  0  0
  -25.2566  -13.8206   20.5712 C   0  0  0  0  0  0
  -24.1827  -13.0503   20.9193 C   0  0  0  0  0  0
  -24.6397  -11.6961   20.8791 C   0  0  0  0  0  0
  -23.9093  -10.4351   21.0476 C   0  0  0  0  0  0
  -24.3661   -9.4248   21.9240 C   0  0  0  0  0  0
  -23.6334   -8.2289   22.0767 C   0  0  0  0  0  0
  -22.4306   -8.0333   21.3569 C   0  0  0  0  0  0
  -21.9962   -9.0303   20.4663 C   0  0  0  0  0  0
  -22.7288  -10.2190   20.3092 C   0  0  0  0  0  0
  -21.6870   -6.0788   22.5291 C   0  0  0  0  0  0
  -21.4011   -6.5681   23.8224 C   0  0  0  0  0  0
  -21.3637   -5.6820   24.9165 C   0  0  0  0  0  0
  -21.6023   -4.3079   24.7210 C   0  0  0  0  0  0
  -21.8811   -3.8192   23.4321 C   0  0  0  0  0  0
  -21.9204   -4.7019   22.3385 C   0  0  0  0  0  0
  -22.7846  -13.5282   21.1826 C   0  0  0  0  0  0
  -22.1668   -4.2210   21.0960 F   0  0  0  0  0  0
  -21.5609   -3.4545   25.7719 F   0  0  0  0  0  0
  -30.0039  -13.4246   20.4119 N   0  0  0  0  0  0
  -26.2976  -12.9382   20.3340 N   0  0  0  0  0  0
  -25.9320  -11.6544   20.5834 N   0  0  0  0  0  0
  -22.0492  -12.8286   22.0375 N   0  0  0  0  0  0
  -25.4411  -15.1913   20.4128 N   0  0  0  0  0  0
  -31.8231  -14.7499   20.1210 O   0  0  0  0  0  0
  -21.6641   -6.8949   21.4275 O   0  0  0  0  0  0
  -22.3593  -14.5657   20.6754 O   0  0  0  0  0  0
  -24.6180  -31.8611   23.2120 C   0  0  0  0  0  0
  -25.9058  -32.4796   23.8405 C   0  0  1  0  0  0
  -27.2127  -27.3585   20.1208 C   0  0  0  0  0  0
  -25.5900  -33.8589   24.2314 N   0  0  0  0  0  0
  -23.4064  -30.4883   21.5553 C   0  0  2  0  0  0
  -24.8573  -28.9577   20.1133 C   0  0  0  0  0  0
  -22.7387  -29.4643   22.5031 C   0  0  0  0  0  0
  -18.0164  -28.1445   22.8532 C   0  0  0  0  0  0
  -24.1492  -36.7311   23.2646 C   0  0  0  0  0  0
  -25.9479  -30.8141   21.3724 C   0  0  0  0  0  0
  -26.0273  -29.4468   20.7120 C   0  0  0  0  0  0
  -27.2129  -28.6586   20.7025 C   0  0  0  0  0  0
  -26.0276  -26.9186   19.4930 C   0  0  0  0  0  0
  -24.8570  -27.7001   19.4962 C   0  0  0  0  0  0
  -23.6242  -29.8379   20.1658 C   0  0  0  0  0  0
  -25.4113  -36.3100   24.0332 C   0  0  1  0  0  0
  -20.5788  -28.3577   23.1315 C   0  0  2  0  0  0
  -20.6644  -26.9455   22.5065 C   0  0  0  0  0  0
  -19.5406  -26.6456   21.5059 C   0  0  0  0  0  0
  -18.1678  -26.7998   22.1644 C   0  0  0  0  0  0
  -19.1468  -28.8772   23.3019 C   0  0  0  0  0  0
  -18.9455  -30.1322   23.9175 C   0  0  0  0  0  0
  -17.6523  -30.6576   24.0895 C   0  0  0  0  0  0
  -25.9050  -34.9457   23.5113 C   0  0  0  0  0  0
  -16.5359  -29.9171   23.6576 C   0  0  0  0  0  0
  -16.7207  -28.6622   23.0495 C   0  0  0  0  0  0
  -26.4513  -31.6620   25.0743 C   0  0  0  0  0  0
  -25.3805  -31.3728   26.1495 C   0  0  0  0  0  0
  -27.0354  -30.3036   24.6199 C   0  0  0  0  0  0
  -27.6083  -32.4358   25.7514 C   0  0  0  0  0  0
  -27.5573  -37.1815   24.8459 C   0  0  0  0  0  0
  -21.4066  -29.3129   22.3921 N   0  0  0  0  0  0
  -26.4266  -37.3789   23.9423 N   0  0  0  0  0  0
  -24.6756  -31.0700   22.1045 N   0  0  0  0  0  0
  -23.4149  -28.8049   23.2948 O   0  0  0  0  0  0
  -28.3022  -26.4880   20.1792 O   0  0  0  0  0  0
  -26.5595  -34.8896   22.4677 O   0  0  0  0  0  0
  -23.5362  -32.1415   23.7491 O   0  0  0  0  0  0
  -28.5415  -20.1060   21.5626 C   0  0  0  0  0  0
  -29.2060  -20.6711   19.3280 C   0  0  0  0  0  0
  -28.9240  -18.7471   21.3520 C   0  0  0  0  0  0
  -29.5918  -19.3151   19.1179 C   0  0  0  0  0  0
  -28.5935  -21.0974   20.5363 C   0  0  0  0  0  0
  -29.4174  -18.3062   20.1009 C   0  0  0  0  0  0
  -26.6976  -22.5416   21.7122 C   0  0  0  0  0  0
  -25.6886  -22.7465   20.5925 C   0  0  0  0  0  0
  -27.8251  -22.4808   20.6452 C   0  0  1  0  0  0
  -29.6904  -16.8060   19.7210 C   0  0  0  0  0  0
  -28.6543  -23.8232   20.3674 C   0  0  0  0  0  0
  -28.0223  -25.2097   20.8613 C   0  0  0  0  0  0
  -29.9011  -15.7390   20.7542 N   0  0  0  0  0  0
  -26.7405  -22.3936   19.6520 N   0  3  0  0  0  0
  -31.4669  -12.5156   19.1397 H   0  0  0  0  0  0
  -30.3566  -11.3998   19.8948 H   0  0  0  0  0  0
  -29.7547  -11.7525   17.4728 H   0  0  0  0  0  0
  -29.6218  -13.4708   17.7344 H   0  0  0  0  0  0
  -27.8869  -11.2793   18.9108 H   0  0  0  0  0  0
  -27.3532  -12.5254   17.8056 H   0  0  0  0  0  0
  -27.6640  -14.2505   19.5055 H   0  0  0  0  0  0
  -28.7002  -12.0963   21.4063 H   0  0  0  0  0  0
  -28.4501  -13.7785   21.8171 H   0  0  0  0  0  0
  -25.2791   -9.5715   22.4828 H   0  0  0  0  0  0
  -24.0026   -7.4675   22.7470 H   0  0  0  0  0  0
  -21.0885   -8.8871   19.8968 H   0  0  0  0  0  0
  -22.3772  -10.9764   19.6222 H   0  0  0  0  0  0
  -21.2013   -7.6189   23.9762 H   0  0  0  0  0  0
  -21.1454   -6.0525   25.9079 H   0  0  0  0  0  0
  -22.0619   -2.7671   23.2789 H   0  0  0  0  0  0
  -22.4068  -11.9851   22.4625 H   0  0  0  0  0  0
  -21.1187  -13.1433   22.2716 H   0  0  0  0  0  0
  -24.7048  -15.8748   20.5350 H   0  0  0  0  0  0
  -26.3312  -15.6131   20.1773 H   0  0  0  0  0  0
  -26.7147  -32.5521   23.1183 H   0  0  0  0  0  0
  -25.0104  -33.9792   25.0471 H   0  0  0  0  0  0
  -22.6923  -31.3022   21.4151 H   0  0  0  0  0  0
  -23.3741  -35.9651   23.3330 H   0  0  0  0  0  0
  -24.3551  -36.8903   22.2051 H   0  0  0  0  0  0
  -23.7265  -37.6530   23.6636 H   0  0  0  0  0  0
  -26.0627  -31.5883   20.6113 H   0  0  0  0  0  0
  -26.8309  -30.8670   21.9934 H   0  0  0  0  0  0
  -28.1118  -29.0275   21.1767 H   0  0  0  0  0  0
  -25.9871  -25.9459   19.0257 H   0  0  0  0  0  0
  -23.9551  -27.3256   19.0344 H   0  0  0  0  0  0
  -23.7480  -30.6236   19.4201 H   0  0  0  0  0  0
  -22.7447  -29.2746   19.8532 H   0  0  0  0  0  0
  -25.1302  -36.1962   25.0819 H   0  0  0  0  0  0
  -20.9915  -28.2769   24.1383 H   0  0  0  0  0  0
  -20.6024  -26.2113   23.3092 H   0  0  0  0  0  0
  -21.6364  -26.7802   22.0435 H   0  0  0  0  0  0
  -19.6459  -25.6422   21.0990 H   0  0  0  0  0  0
  -19.6197  -27.3306   20.6607 H   0  0  0  0  0  0
  -17.3839  -26.6805   21.4149 H   0  0  0  0  0  0
  -18.0083  -26.0149   22.9056 H   0  0  0  0  0  0
  -19.7955  -30.6939   24.2776 H   0  0  0  0  0  0
  -17.5101  -31.6181   24.5713 H   0  0  0  0  0  0
  -15.5392  -30.3070   23.8017 H   0  0  0  0  0  0
  -15.8587  -28.0966   22.7252 H   0  0  0  0  0  0
  -24.5942  -30.7098   25.7885 H   0  0  0  0  0  0
  -24.9024  -32.2876   26.5004 H   0  0  0  0  0  0
  -25.8154  -30.8883   27.0253 H   0  0  0  0  0  0
  -26.2904  -29.6747   24.1297 H   0  0  0  0  0  0
  -27.4152  -29.7316   25.4715 H   0  0  0  0  0  0
  -27.8750  -30.4348   23.9347 H   0  0  0  0  0  0
  -27.2695  -33.3650   26.2113 H   0  0  0  0  0  0
  -28.3872  -32.6952   25.0328 H   0  0  0  0  0  0
  -28.0789  -31.8492   26.5417 H   0  0  0  0  0  0
  -28.2617  -38.0099   24.7456 H   0  0  0  0  0  0
  -28.1052  -36.2616   24.6343 H   0  0  0  0  0  0
  -27.2266  -37.1522   25.8858 H   0  0  0  0  0  0
  -20.9131  -29.9056   21.7396 H   0  0  0  0  0  0
  -26.0172  -38.2869   24.1412 H   0  0  0  0  0  0
  -28.1326  -20.3476   22.5339 H   0  0  0  0  0  0
  -29.3158  -21.3645   18.5063 H   0  0  0  0  0  0
  -28.7793  -18.0347   22.1483 H   0  0  0  0  0  0
  -29.9906  -19.0489   18.1460 H   0  0  0  0  0  0
  -26.4740  -21.6129   22.2360 H   0  0  0  0  0  0
  -26.7592  -23.3635   22.4276 H   0  0  0  0  0  0
  -25.3282  -23.7660   20.4645 H   0  0  0  0  0  0
  -24.8650  -22.0302   20.5876 H   0  0  0  0  0  0
  -30.5228  -16.7880   19.0121 H   0  0  0  0  0  0
  -28.8284  -16.4839   19.1307 H   0  0  0  0  0  0
  -28.8975  -23.9076   19.3060 H   0  0  0  0  0  0
  -29.6261  -23.7368   20.8539 H   0  0  0  0  0  0
  -26.9495  -25.0951   20.9576 H   0  0  0  0  0  0
  -28.3386  -25.3482   21.8947 H   0  0  0  0  0  0
  -30.1686  -16.1507   21.6368 H   0  0  0  0  0  0
  -26.8257  -23.0270   18.8750 H   0  0  0  0  0  0
  -26.6343  -21.4455   19.3298 H   0  0  0  0  0  0
  1 25  1  0  0  0
  1 30  2  0  0  0
  1 83  1  0  0  0
  2  3  1  0  0  0
  2 25  1  0  0  0
  2 85  1  0  0  0
  2 86  1  0  0  0
  3  4  1  0  0  0
  3 87  1  0  0  0
  3 88  1  0  0  0
  4  5  1  0  0  0
  4 89  1  0  0  0
  4 90  1  0  0  0
  5  6  1  0  0  0
  5 26  1  0  0  0
  5 91  1  0  0  0
  6 25  1  0  0  0
  6 92  1  0  0  0
  6 93  1  0  0  0
  7  8  2  0  0  0
  7 26  1  0  0  0
  7 29  1  0  0  0
  8  9  1  0  0  0
  8 22  1  0  0  0
  9 10  1  0  0  0
  9 27  2  0  0  0
 10 11  2  0  0  0
 10 15  1  0  0  0
 11 12  1  0  0  0
 11 94  1  0  0  0
 12 13  2  0  0  0
 12 95  1  0  0  0
 13 14  1  0  0  0
 13 31  1  0  0  0
 14 15  2  0  0  0
 14 96  1  0  0  0
 15 97  1  0  0  0
 16 17  2  0  0  0
 16 21  1  0  0  0
 16 31  1  0  0  0
 17 18  1  0  0  0
 17 98  1  0  0  0
 18 19  2  0  0  0
 18 99  1  0  0  0
 19 20  1  0  0  0
 19 24  1  0  0  0
 20 21  2  0  0  0
 20100  1  0  0  0
 21 23  1  0  0  0
 22 28  1  0  0  0
 22 32  2  0  0  0
 26 27  1  0  0  0
 28101  1  0  0  0
 28102  1  0  0  0
 29103  1  0  0  0
 29104  1  0  0  0
 33 34  1  0  0  0
 33 66  1  0  0  0
 33 70  2  0  0  0
 34 36  1  0  0  0
 34 59  1  0  0  0
 34105  1  0  0  0
 35 44  2  0  0  0
 35 45  1  0  0  0
 35 68  1  0  0  0
 36 56  1  0  0  0
 36106  1  0  0  0
 37 39  1  0  0  0
 37 47  1  0  0  0
 37 66  1  0  0  0
 37107  1  0  0  0
 38 43  2  0  0  0
 38 46  1  0  0  0
 38 47  1  0  0  0
 39 64  1  0  0  0
 39 67  2  0  0  0
 40 52  1  0  0  0
 40 53  2  0  0  0
 40 58  1  0  0  0
 41108  1  0  0  0
 41109  1  0  0  0
 41110  1  0  0  0
 41 48  1  0  0  0
 42 43  1  0  0  0
 42 66  1  0  0  0
 42111  1  0  0  0
 42112  1  0  0  0
 43 44  1  0  0  0
 44113  1  0  0  0
 45 46  2  0  0  0
 45114  1  0  0  0
 46115  1  0  0  0
 47116  1  0  0  0
 47117  1  0  0  0
 48 56  1  0  0  0
 48 65  1  0  0  0
 48118  1  0  0  0
 49 50  1  0  0  0
 49 53  1  0  0  0
 49 64  1  0  0  0
 49119  1  0  0  0
 50 51  1  0  0  0
 50120  1  0  0  0
 50121  1  0  0  0
 51 52  1  0  0  0
 51122  1  0  0  0
 51123  1  0  0  0
 52124  1  0  0  0
 52125  1  0  0  0
 53 54  1  0  0  0
 54 55  2  0  0  0
 54126  1  0  0  0
 55 57  1  0  0  0
 55127  1  0  0  0
 56 69  2  0  0  0
 57 58  2  0  0  0
 57128  1  0  0  0
 58129  1  0  0  0
 59 60  1  0  0  0
 59 61  1  0  0  0
 59 62  1  0  0  0
 60130  1  0  0  0
 60131  1  0  0  0
 60132  1  0  0  0
 61133  1  0  0  0
 61134  1  0  0  0
 61135  1  0  0  0
 62136  1  0  0  0
 62137  1  0  0  0
 62138  1  0  0  0
 63 65  1  0  0  0
 63139  1  0  0  0
 63140  1  0  0  0
 63141  1  0  0  0
 64142  1  0  0  0
 65143  1  0  0  0
 68 82  1  0  0  0
 71 73  2  0  0  0
 71 75  1  0  0  0
 71144  1  0  0  0
 72 74  1  0  0  0
 72 75  2  0  0  0
 72145  1  0  0  0
 73 76  1  0  0  0
 73146  1  0  0  0
 74 76  2  0  0  0
 74147  1  0  0  0
 75 79  1  0  0  0
 76 80  1  0  0  0
 77 78  1  0  0  0
 77 79  1  0  0  0
 77148  1  0  0  0
 77149  1  0  0  0
 78 84  1  0  0  0
 78150  1  0  0  0
 78151  1  0  0  0
 79 81  1  0  0  0
 79 84  1  0  0  0
 80 83  1  0  0  0
 80152  1  0  0  0
 80153  1  0  0  0
 81 82  1  0  0  0
 81154  1  0  0  0
 81155  1  0  0  0
 82156  1  0  0  0
 82157  1  0  0  0
 83158  1  0  0  0
 84159  1  0  0  0
 84160  1  0  0  0
M  CHG  1  84   1
M  ISO  4   1 100  68 101  82 101  83 100
M  END
> <chiral flag>
0

> <version>
0

> <s_m_source_file>
/data/baiqing/PycharmProjects/Reinvent-master-3.2/result/LINK_invent/BTK/process_docking_weight1_custom_sum_contain_oxygen_bond_distance_aromatic_linkinvent_7_9_3/rearranged_h_0133.sdf

> <i_m_source_file_index>
52

> <r_mmod_Potential_Energy-OPLS-2005>
-58.7895050048828

> <r_mmod_Stretch_Energy-OPLS-2005>
80.1708526611328

> <r_mmod_Bend_Energy-OPLS-2005>
151.80712890625

> <r_mmod_Torsional_Energy-OPLS-2005>
342.822265625

> <r_mmod_Improper_Torsional_Energy-OPLS-2005>
11.9917554855347

> <r_mmod_Van_der_Waal_Energy-OPLS-2005>
147.214996337891

> <r_mmod_Electrostatic_Energy-OPLS-2005>
-358.747619628906

> <r_mmod_Solvation_Energy-OPLS-2005>
-479.034149169922

> <b_mmod_Minimization_Converged-OPLS-2005>
0

> <r_mmod_RMS_Derivative-OPLS-2005>
6.05036020278931

$$$$
53
                    3D
 Structure written by MMmdl.
159167  0  0  1  0            999 V2000
  -30.6813  -14.4624   20.5710 C   0  0  0  0  0  0
  -30.4221  -12.2968   19.4202 C   0  0  0  0  0  0
  -29.4966  -12.5024   18.2027 C   0  0  0  0  0  0
  -28.0128  -12.3729   18.6088 C   0  0  0  0  0  0
  -27.6597  -13.2056   19.8722 C   0  0  2  0  0  0
  -28.6972  -12.9650   20.9895 C   0  0  0  0  0  0
  -25.2560  -13.8148   20.5671 C   0  0  0  0  0  0
  -24.1826  -13.0423   20.9179 C   0  0  0  0  0  0
  -24.6375  -11.6890   20.8734 C   0  0  0  0  0  0
  -23.9055  -10.4280   21.0409 C   0  0  0  0  0  0
  -24.3600   -9.4196   21.9192 C   0  0  0  0  0  0
  -23.6274   -8.2228   22.0761 C   0  0  0  0  0  0
  -22.4261   -8.0271   21.3545 C   0  0  0  0  0  0
  -21.9895   -9.0253   20.4654 C   0  0  0  0  0  0
  -22.7225  -10.2127   20.3064 C   0  0  0  0  0  0
  -21.6846   -6.0732   22.5278 C   0  0  0  0  0  0
  -21.4017   -6.5635   23.8219 C   0  0  0  0  0  0
  -21.3662   -5.6786   24.9182 C   0  0  0  0  0  0
  -21.6040   -4.3049   24.7227 C   0  0  0  0  0  0
  -21.8816   -3.8147   23.4349 C   0  0  0  0  0  0
  -21.9185   -4.6964   22.3406 C   0  0  0  0  0  0
  -22.7847  -13.5233   21.1828 C   0  0  0  0  0  0
  -22.1651   -4.2154   21.0985 F   0  0  0  0  0  0
  -21.5626   -3.4533   25.7740 F   0  0  0  0  0  0
  -30.0253  -13.2794   20.4388 N   0  0  0  0  0  0
  -26.3005  -12.9323   20.3328 N   0  0  0  0  0  0
  -25.9303  -11.6478   20.5737 N   0  0  0  0  0  0
  -22.0464  -12.8265   22.0395 N   0  0  0  0  0  0
  -25.4270  -15.1873   20.4111 N   0  0  0  0  0  0
  -31.8197  -14.6516   20.1338 O   0  0  0  0  0  0
  -21.6619   -6.8876   21.4248 O   0  0  0  0  0  0
  -22.3547  -14.5543   20.6678 O   0  0  0  0  0  0
  -24.6136  -31.8697   23.2093 C   0  0  0  0  0  0
  -25.9054  -32.4816   23.8381 C   0  0  1  0  0  0
  -27.2201  -27.4395   20.0849 C   0  0  0  0  0  0
  -25.5918  -33.8618   24.2311 N   0  0  0  0  0  0
  -23.3953  -30.4970   21.5531 C   0  0  2  0  0  0
  -24.8355  -28.9608   20.1147 C   0  0  0  0  0  0
  -22.7392  -29.4685   22.5007 C   0  0  0  0  0  0
  -18.0272  -28.1380   22.8489 C   0  0  0  0  0  0
  -24.1491  -36.7317   23.2628 C   0  0  0  0  0  0
  -25.9249  -30.8353   21.3600 C   0  0  0  0  0  0
  -25.9981  -29.4712   20.7062 C   0  0  0  0  0  0
  -27.1934  -28.7181   20.6878 C   0  0  0  0  0  0
  -26.0371  -26.9412   19.4937 C   0  0  0  0  0  0
  -24.8494  -27.6934   19.5092 C   0  0  0  0  0  0
  -23.5986  -29.8307   20.1671 C   0  0  0  0  0  0
  -25.4107  -36.3101   24.0327 C   0  0  1  0  0  0
  -20.5864  -28.3658   23.1320 C   0  0  2  0  0  0
  -20.6766  -26.9408   22.5408 C   0  0  0  0  0  0
  -19.5753  -26.6397   21.5200 C   0  0  0  0  0  0
  -18.1926  -26.7927   22.1613 C   0  0  0  0  0  0
  -19.1520  -28.8842   23.2895 C   0  0  0  0  0  0
  -18.9442  -30.1444   23.8913 C   0  0  0  0  0  0
  -17.6445  -30.6587   24.0572 C   0  0  0  0  0  0
  -25.9044  -34.9472   23.5113 C   0  0  0  0  0  0
  -16.5344  -29.9090   23.6337 C   0  0  0  0  0  0
  -16.7255  -28.6513   23.0354 C   0  0  0  0  0  0
  -26.4487  -31.6586   25.0705 C   0  0  0  0  0  0
  -25.3756  -31.3713   26.1447 C   0  0  0  0  0  0
  -27.0313  -30.3026   24.6071 C   0  0  0  0  0  0
  -27.6055  -32.4304   25.7473 C   0  0  0  0  0  0
  -27.5581  -37.1813   24.8465 C   0  0  0  0  0  0
  -21.4136  -29.3033   22.3738 N   0  0  0  0  0  0
  -26.4294  -37.3787   23.9404 N   0  0  0  0  0  0
  -24.6626  -31.0822   22.0977 N   0  0  0  0  0  0
  -23.4185  -28.8242   23.3041 O   0  0  0  0  0  0
  -28.3951  -26.7182   20.0809 O   0  0  0  0  0  0
  -26.5597  -34.8926   22.4672 O   0  0  0  0  0  0
  -23.5344  -32.1435   23.7525 O   0  0  0  0  0  0
  -28.8906  -22.2418   20.0896 C   0  0  0  0  0  0
  -28.8847  -20.8673   20.4240 C   0  0  0  0  0  0
  -30.3182  -21.3371   22.3201 C   0  0  0  0  0  0
  -29.6083  -23.1798   20.8712 C   0  0  0  0  0  0
  -29.5885  -20.4046   21.5587 C   0  0  0  0  0  0
  -30.3631  -22.7117   21.9753 C   0  0  0  0  0  0
  -32.0656  -23.1416   23.6195 C   0  0  0  0  0  0
  -29.6190  -24.6797   20.5286 C   0  0  0  0  0  0
  -29.2914  -17.9052   21.1680 C   0  0  0  0  0  0
  -30.4185  -16.8470   21.2681 C   0  0  0  0  0  0
  -28.2839  -25.2886   20.0614 C   0  0  0  0  0  0
  -29.6041  -19.0672   21.9972 N   0  0  0  0  0  0
  -29.9511  -15.4698   21.0812 N   0  0  0  0  0  0
  -31.1283  -23.6290   22.6678 O   0  0  0  0  0  0
  -31.4700  -12.3922   19.1294 H   0  0  0  0  0  0
  -30.3144  -11.2853   19.8160 H   0  0  0  0  0  0
  -29.7374  -11.7785   17.4223 H   0  0  0  0  0  0
  -29.6748  -13.4886   17.7726 H   0  0  0  0  0  0
  -27.8108  -11.3172   18.7927 H   0  0  0  0  0  0
  -27.3699  -12.6591   17.7753 H   0  0  0  0  0  0
  -27.7071  -14.2559   19.5846 H   0  0  0  0  0  0
  -28.6755  -11.9190   21.3023 H   0  0  0  0  0  0
  -28.4648  -13.5383   21.8878 H   0  0  0  0  0  0
  -25.2748   -9.5666   22.4767 H   0  0  0  0  0  0
  -23.9976   -7.4630   22.7481 H   0  0  0  0  0  0
  -21.0815   -8.8777   19.8969 H   0  0  0  0  0  0
  -22.3689  -10.9664   19.6168 H   0  0  0  0  0  0
  -21.2017   -7.6149   23.9733 H   0  0  0  0  0  0
  -21.1485   -6.0513   25.9085 H   0  0  0  0  0  0
  -22.0594   -2.7607   23.2843 H   0  0  0  0  0  0
  -22.4038  -11.9915   22.4820 H   0  0  0  0  0  0
  -21.1086  -13.1334   22.2592 H   0  0  0  0  0  0
  -24.6566  -15.8360   20.5285 H   0  0  0  0  0  0
  -26.2732  -15.6325   20.0812 H   0  0  0  0  0  0
  -26.7132  -32.5533   23.1150 H   0  0  0  0  0  0
  -25.0110  -33.9792   25.0487 H   0  0  0  0  0  0
  -22.6803  -31.3109   21.4201 H   0  0  0  0  0  0
  -23.3740  -35.9665   23.3299 H   0  0  0  0  0  0
  -24.3593  -36.8922   22.2043 H   0  0  0  0  0  0
  -23.7266  -37.6533   23.6642 H   0  0  0  0  0  0
  -26.0407  -31.6030   20.5925 H   0  0  0  0  0  0
  -26.8130  -30.8840   21.9784 H   0  0  0  0  0  0
  -28.0914  -29.1080   21.1476 H   0  0  0  0  0  0
  -26.0179  -25.9777   19.0069 H   0  0  0  0  0  0
  -23.9548  -27.2939   19.0514 H   0  0  0  0  0  0
  -23.7041  -30.6067   19.4072 H   0  0  0  0  0  0
  -22.7186  -29.2545   19.8735 H   0  0  0  0  0  0
  -25.1294  -36.1957   25.0820 H   0  0  0  0  0  0
  -20.9944  -28.3227   24.1441 H   0  0  0  0  0  0
  -20.5686  -26.2269   23.3590 H   0  0  0  0  0  0
  -21.6632  -26.7479   22.1194 H   0  0  0  0  0  0
  -19.6909  -25.6314   21.1216 H   0  0  0  0  0  0
  -19.6680  -27.3220   20.6744 H   0  0  0  0  0  0
  -17.4192  -26.6670   21.4014 H   0  0  0  0  0  0
  -18.0323  -26.0069   22.9012 H   0  0  0  0  0  0
  -19.7930  -30.7252   24.2278 H   0  0  0  0  0  0
  -17.5019  -31.6268   24.5168 H   0  0  0  0  0  0
  -15.5349  -30.3001   23.7656 H   0  0  0  0  0  0
  -15.8651  -28.0839   22.7054 H   0  0  0  0  0  0
  -24.5915  -30.7062   25.7801 H   0  0  0  0  0  0
  -24.8968  -32.2886   26.4892 H   0  0  0  0  0  0
  -25.8117  -30.8892   27.0208 H   0  0  0  0  0  0
  -26.2849  -29.6777   24.1132 H   0  0  0  0  0  0
  -27.4094  -29.7264   25.4535 H   0  0  0  0  0  0
  -27.8692  -30.4339   23.9208 H   0  0  0  0  0  0
  -27.2654  -33.3577   26.2096 H   0  0  0  0  0  0
  -28.3853  -32.6898   25.0299 H   0  0  0  0  0  0
  -28.0727  -31.8392   26.5360 H   0  0  0  0  0  0
  -28.2608  -38.0101   24.7506 H   0  0  0  0  0  0
  -28.1074  -36.2642   24.6304 H   0  0  0  0  0  0
  -27.2309  -37.1469   25.8870 H   0  0  0  0  0  0
  -20.9267  -29.8759   21.6979 H   0  0  0  0  0  0
  -26.0182  -38.2864   24.1394 H   0  0  0  0  0  0
  -28.3353  -22.5630   19.2209 H   0  0  0  0  0  0
  -28.3177  -20.1834   19.8091 H   0  0  0  0  0  0
  -30.8544  -20.9702   23.1813 H   0  0  0  0  0  0
  -32.6948  -22.3565   23.1992 H   0  0  0  0  0  0
  -31.5585  -22.7626   24.5079 H   0  0  0  0  0  0
  -32.7282  -23.9496   23.9258 H   0  0  0  0  0  0
  -29.9144  -25.2448   21.4115 H   0  0  0  0  0  0
  -30.3907  -24.8708   19.7850 H   0  0  0  0  0  0
  -28.3558  -17.4908   21.5492 H   0  0  0  0  0  0
  -29.1186  -18.1694   20.1232 H   0  0  0  0  0  0
  -30.8755  -16.8773   22.2576 H   0  0  0  0  0  0
  -31.2104  -17.0989   20.5593 H   0  0  0  0  0  0
  -27.4908  -24.9667   20.7393 H   0  0  0  0  0  0
  -28.0354  -24.9362   19.0586 H   0  0  0  0  0  0
  -30.1096  -18.8725   22.8568 H   0  0  0  0  0  0
  -29.0107  -15.2513   21.3734 H   0  0  0  0  0  0
  1 25  1  0  0  0
  1 30  2  0  0  0
  1 83  1  0  0  0
  2  3  1  0  0  0
  2 25  1  0  0  0
  2 85  1  0  0  0
  2 86  1  0  0  0
  3  4  1  0  0  0
  3 87  1  0  0  0
  3 88  1  0  0  0
  4  5  1  0  0  0
  4 89  1  0  0  0
  4 90  1  0  0  0
  5  6  1  0  0  0
  5 26  1  0  0  0
  5 91  1  0  0  0
  6 25  1  0  0  0
  6 92  1  0  0  0
  6 93  1  0  0  0
  7  8  2  0  0  0
  7 26  1  0  0  0
  7 29  1  0  0  0
  8  9  1  0  0  0
  8 22  1  0  0  0
  9 10  1  0  0  0
  9 27  2  0  0  0
 10 11  2  0  0  0
 10 15  1  0  0  0
 11 12  1  0  0  0
 11 94  1  0  0  0
 12 13  2  0  0  0
 12 95  1  0  0  0
 13 14  1  0  0  0
 13 31  1  0  0  0
 14 15  2  0  0  0
 14 96  1  0  0  0
 15 97  1  0  0  0
 16 17  2  0  0  0
 16 21  1  0  0  0
 16 31  1  0  0  0
 17 18  1  0  0  0
 17 98  1  0  0  0
 18 19  2  0  0  0
 18 99  1  0  0  0
 19 20  1  0  0  0
 19 24  1  0  0  0
 20 21  2  0  0  0
 20100  1  0  0  0
 21 23  1  0  0  0
 22 28  1  0  0  0
 22 32  2  0  0  0
 26 27  1  0  0  0
 28101  1  0  0  0
 28102  1  0  0  0
 29103  1  0  0  0
 29104  1  0  0  0
 33 34  1  0  0  0
 33 66  1  0  0  0
 33 70  2  0  0  0
 34 36  1  0  0  0
 34 59  1  0  0  0
 34105  1  0  0  0
 35 44  2  0  0  0
 35 45  1  0  0  0
 35 68  1  0  0  0
 36 56  1  0  0  0
 36106  1  0  0  0
 37 39  1  0  0  0
 37 47  1  0  0  0
 37 66  1  0  0  0
 37107  1  0  0  0
 38 43  2  0  0  0
 38 46  1  0  0  0
 38 47  1  0  0  0
 39 64  1  0  0  0
 39 67  2  0  0  0
 40 52  1  0  0  0
 40 53  2  0  0  0
 40 58  1  0  0  0
 41108  1  0  0  0
 41109  1  0  0  0
 41110  1  0  0  0
 41 48  1  0  0  0
 42 43  1  0  0  0
 42 66  1  0  0  0
 42111  1  0  0  0
 42112  1  0  0  0
 43 44  1  0  0  0
 44113  1  0  0  0
 45 46  2  0  0  0
 45114  1  0  0  0
 46115  1  0  0  0
 47116  1  0  0  0
 47117  1  0  0  0
 48 56  1  0  0  0
 48 65  1  0  0  0
 48118  1  0  0  0
 49 50  1  0  0  0
 49 53  1  0  0  0
 49 64  1  0  0  0
 49119  1  0  0  0
 50 51  1  0  0  0
 50120  1  0  0  0
 50121  1  0  0  0
 51 52  1  0  0  0
 51122  1  0  0  0
 51123  1  0  0  0
 52124  1  0  0  0
 52125  1  0  0  0
 53 54  1  0  0  0
 54 55  2  0  0  0
 54126  1  0  0  0
 55 57  1  0  0  0
 55127  1  0  0  0
 56 69  2  0  0  0
 57 58  2  0  0  0
 57128  1  0  0  0
 58129  1  0  0  0
 59 60  1  0  0  0
 59 61  1  0  0  0
 59 62  1  0  0  0
 60130  1  0  0  0
 60131  1  0  0  0
 60132  1  0  0  0
 61133  1  0  0  0
 61134  1  0  0  0
 61135  1  0  0  0
 62136  1  0  0  0
 62137  1  0  0  0
 62138  1  0  0  0
 63 65  1  0  0  0
 63139  1  0  0  0
 63140  1  0  0  0
 63141  1  0  0  0
 64142  1  0  0  0
 65143  1  0  0  0
 68 81  1  0  0  0
 71 72  2  0  0  0
 71 74  1  0  0  0
 71144  1  0  0  0
 72 75  1  0  0  0
 72145  1  0  0  0
 73 75  2  0  0  0
 73 76  1  0  0  0
 73146  1  0  0  0
 74 76  2  0  0  0
 74 78  1  0  0  0
 75 82  1  0  0  0
 76 84  1  0  0  0
 77 84  1  0  0  0
 77147  1  0  0  0
 77148  1  0  0  0
 77149  1  0  0  0
 78 81  1  0  0  0
 78150  1  0  0  0
 78151  1  0  0  0
 79 80  1  0  0  0
 79 82  1  0  0  0
 79152  1  0  0  0
 79153  1  0  0  0
 80 83  1  0  0  0
 80154  1  0  0  0
 80155  1  0  0  0
 81156  1  0  0  0
 81157  1  0  0  0
 82158  1  0  0  0
 83159  1  0  0  0
M  ISO  4   1 100  68 101  81 101  83 100
M  END
> <chiral flag>
0

> <version>
0

> <s_m_source_file>
/data/baiqing/PycharmProjects/Reinvent-master-3.2/result/LINK_invent/BTK/process_docking_weight1_custom_sum_contain_oxygen_bond_distance_aromatic_linkinvent_7_9_3/rearranged_h_0133.sdf

> <i_m_source_file_index>
53

> <r_mmod_Potential_Energy-OPLS-2005>
-121.515022277832

> <r_mmod_Stretch_Energy-OPLS-2005>
36.2167625427246

> <r_mmod_Bend_Energy-OPLS-2005>
113.874359130859

> <r_mmod_Torsional_Energy-OPLS-2005>
194.985748291016

> <r_mmod_Improper_Torsional_Energy-OPLS-2005>
4.04114627838135

> <r_mmod_Van_der_Waal_Energy-OPLS-2005>
166.567260742188

> <r_mmod_Electrostatic_Energy-OPLS-2005>
-420.52392578125

> <r_mmod_Solvation_Energy-OPLS-2005>
-229.052276611328

> <b_mmod_Minimization_Converged-OPLS-2005>
0

> <r_mmod_RMS_Derivative-OPLS-2005>
3.32654666900635

$$$$
54
                    3D
 Structure written by MMmdl.
166175  0  0  1  0            999 V2000
  -30.7350  -14.3446   20.6610 C   0  0  0  0  0  0
  -30.4313  -12.2595   19.3937 C   0  0  0  0  0  0
  -29.4926  -12.5202   18.1989 C   0  0  0  0  0  0
  -28.0122  -12.3844   18.6094 C   0  0  0  0  0  0
  -27.6757  -13.1901   19.8900 C   0  0  2  0  0  0
  -28.7094  -12.8853   20.9983 C   0  0  0  0  0  0
  -25.2642  -13.8164   20.5627 C   0  0  0  0  0  0
  -24.1888  -13.0455   20.9220 C   0  0  0  0  0  0
  -24.6414  -11.6922   20.8764 C   0  0  0  0  0  0
  -23.9062  -10.4299   21.0423 C   0  0  0  0  0  0
  -24.3629   -9.4205   21.9181 C   0  0  0  0  0  0
  -23.6299   -8.2240   22.0747 C   0  0  0  0  0  0
  -22.4278   -8.0290   21.3548 C   0  0  0  0  0  0
  -21.9919   -9.0259   20.4649 C   0  0  0  0  0  0
  -22.7248  -10.2136   20.3060 C   0  0  0  0  0  0
  -21.6855   -6.0744   22.5284 C   0  0  0  0  0  0
  -21.4000   -6.5648   23.8216 C   0  0  0  0  0  0
  -21.3661   -5.6803   24.9178 C   0  0  0  0  0  0
  -21.6054   -4.3070   24.7232 C   0  0  0  0  0  0
  -21.8814   -3.8157   23.4356 C   0  0  0  0  0  0
  -21.9183   -4.6967   22.3408 C   0  0  0  0  0  0
  -22.7899  -13.5249   21.1832 C   0  0  0  0  0  0
  -22.1663   -4.2176   21.0980 F   0  0  0  0  0  0
  -21.5629   -3.4538   25.7730 F   0  0  0  0  0  0
  -30.0658  -13.1786   20.4788 N   0  0  0  0  0  0
  -26.3087  -12.9298   20.3415 N   0  0  0  0  0  0
  -25.9338  -11.6476   20.5789 N   0  0  0  0  0  0
  -22.0518  -12.8255   22.0409 N   0  0  0  0  0  0
  -25.4331  -15.1863   20.3916 N   0  0  0  0  0  0
  -31.7224  -14.6975   20.0077 O   0  0  0  0  0  0
  -21.6636   -6.8901   21.4258 O   0  0  0  0  0  0
  -22.3603  -14.5560   20.6689 O   0  0  0  0  0  0
  -24.6075  -31.8720   23.2185 C   0  0  0  0  0  0
  -25.8980  -32.4877   23.8431 C   0  0  1  0  0  0
  -27.2315  -27.4754   20.0877 C   0  0  0  0  0  0
  -25.5850  -33.8687   24.2374 N   0  0  0  0  0  0
  -23.3920  -30.4995   21.5587 C   0  0  2  0  0  0
  -24.8386  -28.9737   20.1160 C   0  0  0  0  0  0
  -22.7375  -29.4648   22.5019 C   0  0  0  0  0  0
  -18.0279  -28.1278   22.8536 C   0  0  0  0  0  0
  -24.1487  -36.7324   23.2644 C   0  0  0  0  0  0
  -25.9197  -30.8501   21.3669 C   0  0  0  0  0  0
  -25.9935  -29.4892   20.7136 C   0  0  0  0  0  0
  -27.1893  -28.7458   20.6980 C   0  0  0  0  0  0
  -26.0541  -26.9629   19.4884 C   0  0  0  0  0  0
  -24.8610  -27.7091   19.5016 C   0  0  0  0  0  0
  -23.6012  -29.8386   20.1696 C   0  0  0  0  0  0
  -25.4113  -36.3156   24.0366 C   0  0  1  0  0  0
  -20.5828  -28.3663   23.1349 C   0  0  2  0  0  0
  -20.6825  -26.9416   22.5385 C   0  0  0  0  0  0
  -19.5755  -26.6331   21.5240 C   0  0  0  0  0  0
  -18.1947  -26.7785   22.1710 C   0  0  0  0  0  0
  -19.1503  -28.8786   23.2949 C   0  0  0  0  0  0
  -18.9417  -30.1423   23.8925 C   0  0  0  0  0  0
  -17.6410  -30.6534   24.0530 C   0  0  0  0  0  0
  -25.9025  -34.9514   23.5175 C   0  0  0  0  0  0
  -16.5335  -29.9015   23.6287 C   0  0  0  0  0  0
  -16.7280  -28.6392   23.0366 C   0  0  0  0  0  0
  -26.4443  -31.6633   25.0729 C   0  0  0  0  0  0
  -25.3712  -31.3717   26.1470 C   0  0  0  0  0  0
  -27.0271  -30.3080   24.6083 C   0  0  0  0  0  0
  -27.6037  -32.4327   25.7476 C   0  0  0  0  0  0
  -27.5589  -37.1823   24.8469 C   0  0  0  0  0  0
  -21.4069  -29.3111   22.3846 N   0  0  0  0  0  0
  -26.4299  -37.3830   23.9420 N   0  0  0  0  0  0
  -24.6582  -31.0854   22.1074 N   0  0  0  0  0  0
  -23.4176  -28.8088   23.2968 O   0  0  0  0  0  0
  -28.4362  -26.8055   20.1116 O   0  0  0  0  0  0
  -26.5552  -34.8940   22.4715 O   0  0  0  0  0  0
  -23.5273  -32.1461   23.7570 O   0  0  0  0  0  0
  -26.7093  -23.5213   22.3175 C   0  0  0  0  0  0
  -27.3818  -22.0009   20.5340 C   0  0  0  0  0  0
  -27.2887  -24.5982   21.6184 C   0  0  0  0  0  0
  -27.9539  -23.0765   19.8382 C   0  0  0  0  0  0
  -26.7319  -22.2210   21.7658 C   0  0  0  0  0  0
  -27.9046  -24.3828   20.3625 C   0  0  0  0  0  0
  -25.2021  -20.1680   21.5926 C   0  0  0  0  0  0
  -25.7674  -18.7416   21.6341 C   0  0  0  0  0  0
  -27.1220  -20.1461   23.1615 C   0  0  0  0  0  0
  -26.0791  -21.0579   22.4976 C   0  0  1  0  0  0
  -27.0061  -18.7399   22.5484 C   0  0  2  0  0  0
  -28.5364  -25.5029   19.5498 C   0  0  0  0  0  0
  -29.9660  -16.5636   21.3675 C   0  0  0  0  0  0
  -28.6917  -16.9680   22.1288 C   0  0  0  0  0  0
  -30.1789  -15.1371   21.5726 N   0  0  0  0  0  0
  -28.2400  -18.3416   21.8265 N   0  3  0  0  0  0
  -31.4719  -12.3810   19.0872 H   0  0  0  0  0  0
  -30.3457  -11.2271   19.7356 H   0  0  0  0  0  0
  -29.7189  -11.8335   17.3816 H   0  0  0  0  0  0
  -29.6737  -13.5244   17.8123 H   0  0  0  0  0  0
  -27.8070  -11.3272   18.7755 H   0  0  0  0  0  0
  -27.3665  -12.6981   17.7873 H   0  0  0  0  0  0
  -27.7519  -14.2480   19.6398 H   0  0  0  0  0  0
  -28.6621  -11.8340   21.2849 H   0  0  0  0  0  0
  -28.4498  -13.4224   21.9105 H   0  0  0  0  0  0
  -25.2785   -9.5666   22.4753 H   0  0  0  0  0  0
  -24.0007   -7.4638   22.7461 H   0  0  0  0  0  0
  -21.0860   -8.8801   19.8959 H   0  0  0  0  0  0
  -22.3736  -10.9682   19.6171 H   0  0  0  0  0  0
  -21.1992   -7.6156   23.9739 H   0  0  0  0  0  0
  -21.1488   -6.0519   25.9089 H   0  0  0  0  0  0
  -22.0589   -2.7623   23.2835 H   0  0  0  0  0  0
  -22.4091  -11.9917   22.4828 H   0  0  0  0  0  0
  -21.1125  -13.1280   22.2560 H   0  0  0  0  0  0
  -24.6144  -15.7839   20.3742 H   0  0  0  0  0  0
  -26.2058  -15.5642   19.8603 H   0  0  0  0  0  0
  -26.7041  -32.5637   23.1181 H   0  0  0  0  0  0
  -25.0069  -33.9870   25.0573 H   0  0  0  0  0  0
  -22.6728  -31.3128   21.4258 H   0  0  0  0  0  0
  -23.3760  -35.9636   23.3331 H   0  0  0  0  0  0
  -24.3595  -36.8896   22.2043 H   0  0  0  0  0  0
  -23.7195  -37.6536   23.6630 H   0  0  0  0  0  0
  -26.0245  -31.6170   20.5972 H   0  0  0  0  0  0
  -26.8106  -30.9062   21.9842 H   0  0  0  0  0  0
  -28.0829  -29.1389   21.1628 H   0  0  0  0  0  0
  -26.0327  -25.9913   19.0176 H   0  0  0  0  0  0
  -23.9721  -27.3089   19.0303 H   0  0  0  0  0  0
  -23.7016  -30.6169   19.4128 H   0  0  0  0  0  0
  -22.7288  -29.2526   19.8812 H   0  0  0  0  0  0
  -25.1278  -36.2048   25.0861 H   0  0  0  0  0  0
  -20.9895  -28.3204   24.1483 H   0  0  0  0  0  0
  -20.5803  -26.2263   23.3568 H   0  0  0  0  0  0
  -21.6645  -26.7479   22.1100 H   0  0  0  0  0  0
  -19.6996  -25.6283   21.1217 H   0  0  0  0  0  0
  -19.6613  -27.3110   20.6781 H   0  0  0  0  0  0
  -17.4125  -26.6416   21.4213 H   0  0  0  0  0  0
  -18.0445  -25.9963   22.9141 H   0  0  0  0  0  0
  -19.7877  -30.7261   24.2268 H   0  0  0  0  0  0
  -17.4955  -31.6244   24.5111 H   0  0  0  0  0  0
  -15.5316  -30.2893   23.7501 H   0  0  0  0  0  0
  -15.8725  -28.0653   22.7102 H   0  0  0  0  0  0
  -24.5895  -30.7060   25.7787 H   0  0  0  0  0  0
  -24.8894  -32.2874   26.4918 H   0  0  0  0  0  0
  -25.8064  -30.8875   27.0217 H   0  0  0  0  0  0
  -26.2814  -29.6826   24.1150 H   0  0  0  0  0  0
  -27.4063  -29.7333   25.4541 H   0  0  0  0  0  0
  -27.8649  -30.4412   23.9225 H   0  0  0  0  0  0
  -27.2689  -33.3613   26.2104 H   0  0  0  0  0  0
  -28.3823  -32.6889   25.0283 H   0  0  0  0  0  0
  -28.0726  -31.8405   26.5340 H   0  0  0  0  0  0
  -28.2622  -38.0104   24.7525 H   0  0  0  0  0  0
  -28.1059  -36.2637   24.6294 H   0  0  0  0  0  0
  -27.2308  -37.1483   25.8869 H   0  0  0  0  0  0
  -20.9158  -29.9101   21.7349 H   0  0  0  0  0  0
  -26.0202  -38.2925   24.1398 H   0  0  0  0  0  0
  -26.2362  -23.7030   23.2709 H   0  0  0  0  0  0
  -27.4281  -21.0091   20.1057 H   0  0  0  0  0  0
  -27.2482  -25.5918   22.0457 H   0  0  0  0  0  0
  -28.4241  -22.9032   18.8811 H   0  0  0  0  0  0
  -24.1749  -20.1533   21.9627 H   0  0  0  0  0  0
  -25.1372  -20.5471   20.5707 H   0  0  0  0  0  0
  -26.0000  -18.3811   20.6292 H   0  0  0  0  0  0
  -25.0182  -18.0562   22.0371 H   0  0  0  0  0  0
  -26.9133  -20.0957   24.2316 H   0  0  0  0  0  0
  -28.1328  -20.5482   23.0869 H   0  0  0  0  0  0
  -25.4402  -21.4804   23.2756 H   0  0  0  0  0  0
  -26.8305  -18.0264   23.3586 H   0  0  0  0  0  0
  -28.1411  -25.4902   18.5326 H   0  0  0  0  0  0
  -29.6022  -25.2814   19.4684 H   0  0  0  0  0  0
  -29.8344  -16.7679   20.3024 H   0  0  0  0  0  0
  -30.8391  -17.1291   21.6953 H   0  0  0  0  0  0
  -27.8775  -16.2773   21.8935 H   0  0  0  0  0  0
  -28.8839  -16.8887   23.2003 H   0  0  0  0  0  0
  -29.5157  -14.6707   22.1735 H   0  0  0  0  0  0
  -28.0742  -18.4156   20.8354 H   0  0  0  0  0  0
  -28.9838  -18.9824   22.0578 H   0  0  0  0  0  0
  1 25  1  0  0  0
  1 30  2  0  0  0
  1 85  1  0  0  0
  2  3  1  0  0  0
  2 25  1  0  0  0
  2 87  1  0  0  0
  2 88  1  0  0  0
  3  4  1  0  0  0
  3 89  1  0  0  0
  3 90  1  0  0  0
  4  5  1  0  0  0
  4 91  1  0  0  0
  4 92  1  0  0  0
  5  6  1  0  0  0
  5 26  1  0  0  0
  5 93  1  0  0  0
  6 25  1  0  0  0
  6 94  1  0  0  0
  6 95  1  0  0  0
  7  8  2  0  0  0
  7 26  1  0  0  0
  7 29  1  0  0  0
  8  9  1  0  0  0
  8 22  1  0  0  0
  9 10  1  0  0  0
  9 27  2  0  0  0
 10 11  2  0  0  0
 10 15  1  0  0  0
 11 12  1  0  0  0
 11 96  1  0  0  0
 12 13  2  0  0  0
 12 97  1  0  0  0
 13 14  1  0  0  0
 13 31  1  0  0  0
 14 15  2  0  0  0
 14 98  1  0  0  0
 15 99  1  0  0  0
 16 17  2  0  0  0
 16 21  1  0  0  0
 16 31  1  0  0  0
 17 18  1  0  0  0
 17100  1  0  0  0
 18 19  2  0  0  0
 18101  1  0  0  0
 19 20  1  0  0  0
 19 24  1  0  0  0
 20 21  2  0  0  0
 20102  1  0  0  0
 21 23  1  0  0  0
 22 28  1  0  0  0
 22 32  2  0  0  0
 26 27  1  0  0  0
 28103  1  0  0  0
 28104  1  0  0  0
 29105  1  0  0  0
 29106  1  0  0  0
 33 34  1  0  0  0
 33 66  1  0  0  0
 33 70  2  0  0  0
 34 36  1  0  0  0
 34 59  1  0  0  0
 34107  1  0  0  0
 35 44  2  0  0  0
 35 45  1  0  0  0
 35 68  1  0  0  0
 36 56  1  0  0  0
 36108  1  0  0  0
 37 39  1  0  0  0
 37 47  1  0  0  0
 37 66  1  0  0  0
 37109  1  0  0  0
 38 43  2  0  0  0
 38 46  1  0  0  0
 38 47  1  0  0  0
 39 64  1  0  0  0
 39 67  2  0  0  0
 40 52  1  0  0  0
 40 53  2  0  0  0
 40 58  1  0  0  0
 41110  1  0  0  0
 41111  1  0  0  0
 41112  1  0  0  0
 41 48  1  0  0  0
 42 43  1  0  0  0
 42 66  1  0  0  0
 42113  1  0  0  0
 42114  1  0  0  0
 43 44  1  0  0  0
 44115  1  0  0  0
 45 46  2  0  0  0
 45116  1  0  0  0
 46117  1  0  0  0
 47118  1  0  0  0
 47119  1  0  0  0
 48 56  1  0  0  0
 48 65  1  0  0  0
 48120  1  0  0  0
 49 50  1  0  0  0
 49 53  1  0  0  0
 49 64  1  0  0  0
 49121  1  0  0  0
 50 51  1  0  0  0
 50122  1  0  0  0
 50123  1  0  0  0
 51 52  1  0  0  0
 51124  1  0  0  0
 51125  1  0  0  0
 52126  1  0  0  0
 52127  1  0  0  0
 53 54  1  0  0  0
 54 55  2  0  0  0
 54128  1  0  0  0
 55 57  1  0  0  0
 55129  1  0  0  0
 56 69  2  0  0  0
 57 58  2  0  0  0
 57130  1  0  0  0
 58131  1  0  0  0
 59 60  1  0  0  0
 59 61  1  0  0  0
 59 62  1  0  0  0
 60132  1  0  0  0
 60133  1  0  0  0
 60134  1  0  0  0
 61135  1  0  0  0
 61136  1  0  0  0
 61137  1  0  0  0
 62138  1  0  0  0
 62139  1  0  0  0
 62140  1  0  0  0
 63 65  1  0  0  0
 63141  1  0  0  0
 63142  1  0  0  0
 63143  1  0  0  0
 64144  1  0  0  0
 65145  1  0  0  0
 68 82  1  0  0  0
 71 73  2  0  0  0
 71 75  1  0  0  0
 71146  1  0  0  0
 72 74  1  0  0  0
 72 75  2  0  0  0
 72147  1  0  0  0
 73 76  1  0  0  0
 73148  1  0  0  0
 74 76  2  0  0  0
 74149  1  0  0  0
 75 80  1  0  0  0
 76 82  1  0  0  0
 77 78  1  0  0  0
 77 80  1  0  0  0
 77150  1  0  0  0
 77151  1  0  0  0
 78 81  1  0  0  0
 78152  1  0  0  0
 78153  1  0  0  0
 79 80  1  0  0  0
 79 81  1  0  0  0
 79154  1  0  0  0
 79155  1  0  0  0
 80156  1  0  0  0
 81 86  1  0  0  0
 81157  1  0  0  0
 82158  1  0  0  0
 82159  1  0  0  0
 83 84  1  0  0  0
 83 85  1  0  0  0
 83160  1  0  0  0
 83161  1  0  0  0
 84 86  1  0  0  0
 84162  1  0  0  0
 84163  1  0  0  0
 85164  1  0  0  0
 86165  1  0  0  0
 86166  1  0  0  0
M  CHG  1  86   1
M  ISO  4   1 100  68 101  82 101  85 100
M  END
> <chiral flag>
0

> <version>
0

> <s_m_source_file>
/data/baiqing/PycharmProjects/Reinvent-master-3.2/result/LINK_invent/BTK/process_docking_weight1_custom_sum_contain_oxygen_bond_distance_aromatic_linkinvent_7_9_3/rearranged_h_0133.sdf

> <i_m_source_file_index>
54

> <r_mmod_Potential_Energy-OPLS-2005>
-155.996566772461

> <r_mmod_Stretch_Energy-OPLS-2005>
32.1372604370117

> <r_mmod_Bend_Energy-OPLS-2005>
101.512969970703

> <r_mmod_Torsional_Energy-OPLS-2005>
314.567840576172

> <r_mmod_Improper_Torsional_Energy-OPLS-2005>
6.80435609817505

> <r_mmod_Van_der_Waal_Energy-OPLS-2005>
151.443420410156

> <r_mmod_Electrostatic_Energy-OPLS-2005>
-294.5283203125

> <r_mmod_Solvation_Energy-OPLS-2005>
-477.255920410156

> <b_mmod_Minimization_Converged-OPLS-2005>
0

> <r_mmod_RMS_Derivative-OPLS-2005>
5.92470788955688

$$$$
55
                    3D
 Structure written by MMmdl.
183192  0  0  1  0            999 V2000
  -30.7164  -14.4484   20.5228 C   0  0  0  0  0  0
  -30.4140  -12.2772   19.4270 C   0  0  0  0  0  0
  -29.4931  -12.4838   18.2071 C   0  0  0  0  0  0
  -28.0117  -12.3616   18.6181 C   0  0  0  0  0  0
  -27.6573  -13.2082   19.8709 C   0  0  2  0  0  0
  -28.7016  -13.0138   20.9941 C   0  0  0  0  0  0
  -25.2562  -13.8170   20.5677 C   0  0  0  0  0  0
  -24.1817  -13.0443   20.9164 C   0  0  0  0  0  0
  -24.6381  -11.6912   20.8737 C   0  0  0  0  0  0
  -23.9061  -10.4290   21.0411 C   0  0  0  0  0  0
  -24.3613   -9.4205   21.9182 C   0  0  0  0  0  0
  -23.6288   -8.2246   22.0753 C   0  0  0  0  0  0
  -22.4275   -8.0286   21.3542 C   0  0  0  0  0  0
  -21.9913   -9.0263   20.4644 C   0  0  0  0  0  0
  -22.7243  -10.2138   20.3055 C   0  0  0  0  0  0
  -21.6848   -6.0739   22.5278 C   0  0  0  0  0  0
  -21.4017   -6.5636   23.8216 C   0  0  0  0  0  0
  -21.3658   -5.6787   24.9170 C   0  0  0  0  0  0
  -21.6041   -4.3052   24.7224 C   0  0  0  0  0  0
  -21.8818   -3.8153   23.4347 C   0  0  0  0  0  0
  -21.9190   -4.6968   22.3399 C   0  0  0  0  0  0
  -22.7837  -13.5230   21.1828 C   0  0  0  0  0  0
  -22.1652   -4.2153   21.0975 F   0  0  0  0  0  0
  -21.5629   -3.4538   25.7738 F   0  0  0  0  0  0
  -30.0310  -13.2803   20.4275 N   0  0  0  0  0  0
  -26.3004  -12.9344   20.3377 N   0  0  0  0  0  0
  -25.9308  -11.6503   20.5792 N   0  0  0  0  0  0
  -22.0486  -12.8214   22.0389 N   0  0  0  0  0  0
  -25.4272  -15.1881   20.4053 N   0  0  0  0  0  0
  -31.9029  -14.5551   20.1960 O   0  0  0  0  0  0
  -21.6632   -6.8890   21.4243 O   0  0  0  0  0  0
  -22.3518  -14.5547   20.6700 O   0  0  0  0  0  0
  -24.6132  -31.8713   23.2136 C   0  0  0  0  0  0
  -25.9041  -32.4836   23.8423 C   0  0  1  0  0  0
  -27.2330  -27.4641   20.0673 C   0  0  0  0  0  0
  -25.5912  -33.8629   24.2348 N   0  0  0  0  0  0
  -23.3973  -30.4980   21.5529 C   0  0  2  0  0  0
  -24.8412  -28.9659   20.1158 C   0  0  0  0  0  0
  -22.7380  -29.4691   22.4999 C   0  0  0  0  0  0
  -18.0268  -28.1387   22.8505 C   0  0  0  0  0  0
  -24.1478  -36.7306   23.2642 C   0  0  0  0  0  0
  -25.9244  -30.8387   21.3666 C   0  0  0  0  0  0
  -25.9981  -29.4733   20.7185 C   0  0  0  0  0  0
  -27.1926  -28.7208   20.7073 C   0  0  0  0  0  0
  -26.0534  -26.9596   19.4758 C   0  0  0  0  0  0
  -24.8606  -27.7027   19.5018 C   0  0  0  0  0  0
  -23.6056  -29.8347   20.1658 C   0  0  0  0  0  0
  -25.4103  -36.3109   24.0333 C   0  0  1  0  0  0
  -20.5853  -28.3680   23.1323 C   0  0  2  0  0  0
  -20.6760  -26.9419   22.5416 C   0  0  0  0  0  0
  -19.5734  -26.6398   21.5215 C   0  0  0  0  0  0
  -18.1908  -26.7936   22.1623 C   0  0  0  0  0  0
  -19.1513  -28.8846   23.2915 C   0  0  0  0  0  0
  -18.9454  -30.1452   23.8947 C   0  0  0  0  0  0
  -17.6463  -30.6601   24.0582 C   0  0  0  0  0  0
  -25.9040  -34.9479   23.5134 C   0  0  0  0  0  0
  -16.5348  -29.9113   23.6331 C   0  0  0  0  0  0
  -16.7254  -28.6521   23.0370 C   0  0  0  0  0  0
  -26.4479  -31.6611   25.0738 C   0  0  0  0  0  0
  -25.3750  -31.3681   26.1491 C   0  0  0  0  0  0
  -27.0327  -30.3073   24.6084 C   0  0  0  0  0  0
  -27.6069  -32.4324   25.7492 C   0  0  0  0  0  0
  -27.5574  -37.1799   24.8458 C   0  0  0  0  0  0
  -21.4112  -29.3053   22.3727 N   0  0  0  0  0  0
  -26.4280  -37.3804   23.9427 N   0  0  0  0  0  0
  -24.6626  -31.0839   22.1028 N   0  0  0  0  0  0
  -23.4156  -28.8237   23.3035 O   0  0  0  0  0  0
  -28.4155  -26.7620   20.0577 O   0  0  0  0  0  0
  -26.5604  -34.8913   22.4697 O   0  0  0  0  0  0
  -23.5338  -32.1462   23.7552 O   0  0  0  0  0  0
  -28.8870  -17.3294   19.1236 C   0  0  0  0  0  0
  -28.5170  -17.2882   21.5972 C   0  0  0  0  0  0
  -30.1072  -16.4283   19.3318 C   0  0  0  0  0  0
  -29.7207  -16.3252   21.7339 C   0  0  0  0  0  0
  -26.8513  -19.6864   17.9521 C   0  0  0  0  0  0
  -27.4208  -21.4977   19.4013 C   0  0  0  0  0  0
  -28.6512  -18.2096   20.3655 C   0  0  0  0  0  0
  -27.2488  -20.4681   16.6836 C   0  0  2  0  0  0
  -27.0512  -21.9962   16.9103 C   0  0  1  0  0  0
  -27.8270  -22.3952   18.2041 C   0  0  1  0  0  0
  -26.4627  -19.8916   15.4885 C   0  0  0  0  0  0
  -26.6175  -24.1735   15.5483 C   0  0  0  0  0  0
  -28.9101  -23.0719   15.4070 C   0  0  0  0  0  0
  -27.4627  -19.1911   20.2236 C   0  0  0  0  0  0
  -28.8296  -24.5399   19.0530 C   0  0  0  0  0  0
  -28.7708  -26.0716   18.8578 C   0  0  0  0  0  0
  -27.4041  -22.8529   15.6452 C   0  0  0  0  0  0
  -29.9343  -15.5515   20.5012 N   0  0  0  0  0  0
  -27.6872  -20.0912   19.0838 N   0  0  0  0  0  0
  -27.6318  -23.8269   18.5285 N   0  3  0  0  0  0
  -31.4607  -12.3591   19.1286 H   0  0  0  0  0  0
  -30.2970  -11.2724   19.8362 H   0  0  0  0  0  0
  -29.7281  -11.7546   17.4307 H   0  0  0  0  0  0
  -29.6713  -13.4664   17.7677 H   0  0  0  0  0  0
  -27.8110  -11.3080   18.8145 H   0  0  0  0  0  0
  -27.3676  -12.6401   17.7830 H   0  0  0  0  0  0
  -27.6905  -14.2520   19.5606 H   0  0  0  0  0  0
  -28.6637  -11.9948   21.3841 H   0  0  0  0  0  0
  -28.4868  -13.6695   21.8382 H   0  0  0  0  0  0
  -25.2765   -9.5667   22.4754 H   0  0  0  0  0  0
  -23.9997   -7.4632   22.7474 H   0  0  0  0  0  0
  -21.0850   -8.8786   19.8944 H   0  0  0  0  0  0
  -22.3721  -10.9679   19.6161 H   0  0  0  0  0  0
  -21.2011   -7.6139   23.9722 H   0  0  0  0  0  0
  -21.1473   -6.0513   25.9071 H   0  0  0  0  0  0
  -22.0602   -2.7619   23.2844 H   0  0  0  0  0  0
  -22.4121  -11.9877   22.4762 H   0  0  0  0  0  0
  -21.1109  -13.1242   22.2613 H   0  0  0  0  0  0
  -24.6672  -15.8483   20.5266 H   0  0  0  0  0  0
  -26.2931  -15.6233   20.1168 H   0  0  0  0  0  0
  -26.7113  -32.5541   23.1190 H   0  0  0  0  0  0
  -25.0077  -33.9809   25.0496 H   0  0  0  0  0  0
  -22.6854  -31.3146   21.4156 H   0  0  0  0  0  0
  -23.3741  -35.9634   23.3288 H   0  0  0  0  0  0
  -24.3583  -36.8944   22.2059 H   0  0  0  0  0  0
  -23.7206  -37.6493   23.6672 H   0  0  0  0  0  0
  -26.0314  -31.6020   20.5952 H   0  0  0  0  0  0
  -26.8157  -30.8967   21.9783 H   0  0  0  0  0  0
  -28.0880  -29.1097   21.1714 H   0  0  0  0  0  0
  -26.0346  -25.9964   18.9943 H   0  0  0  0  0  0
  -23.9665  -27.3039   19.0429 H   0  0  0  0  0  0
  -23.7179  -30.6135   19.4105 H   0  0  0  0  0  0
  -22.7270  -29.2622   19.8651 H   0  0  0  0  0  0
  -25.1266  -36.1989   25.0827 H   0  0  0  0  0  0
  -20.9955  -28.3263   24.1439 H   0  0  0  0  0  0
  -20.5682  -26.2290   23.3606 H   0  0  0  0  0  0
  -21.6628  -26.7478   22.1200 H   0  0  0  0  0  0
  -19.6896  -25.6312   21.1238 H   0  0  0  0  0  0
  -19.6677  -27.3230   20.6761 H   0  0  0  0  0  0
  -17.4178  -26.6717   21.4020 H   0  0  0  0  0  0
  -18.0307  -26.0058   22.9007 H   0  0  0  0  0  0
  -19.7929  -30.7255   24.2335 H   0  0  0  0  0  0
  -17.5019  -31.6286   24.5172 H   0  0  0  0  0  0
  -15.5362  -30.3056   23.7614 H   0  0  0  0  0  0
  -15.8645  -28.0861   22.7079 H   0  0  0  0  0  0
  -24.5936  -30.7016   25.7810 H   0  0  0  0  0  0
  -24.8916  -32.2818   26.4969 H   0  0  0  0  0  0
  -25.8119  -30.8830   27.0227 H   0  0  0  0  0  0
  -26.2860  -29.6817   24.1175 H   0  0  0  0  0  0
  -27.4169  -29.7341   25.4530 H   0  0  0  0  0  0
  -27.8660  -30.4424   23.9179 H   0  0  0  0  0  0
  -27.2712  -33.3634   26.2066 H   0  0  0  0  0  0
  -28.3881  -32.6861   25.0312 H   0  0  0  0  0  0
  -28.0721  -31.8429   26.5398 H   0  0  0  0  0  0
  -28.2566  -38.0121   24.7580 H   0  0  0  0  0  0
  -28.1096  -36.2663   24.6207 H   0  0  0  0  0  0
  -27.2303  -37.1369   25.8860 H   0  0  0  0  0  0
  -20.9257  -29.8787   21.6972 H   0  0  0  0  0  0
  -26.0156  -38.2864   24.1489 H   0  0  0  0  0  0
  -28.0059  -16.7249   18.9048 H   0  0  0  0  0  0
  -29.0719  -17.9454   18.2435 H   0  0  0  0  0  0
  -28.4308  -17.8919   22.5016 H   0  0  0  0  0  0
  -27.5937  -16.7114   21.5290 H   0  0  0  0  0  0
  -31.0070  -17.0352   19.4550 H   0  0  0  0  0  0
  -30.2571  -15.8343   18.4269 H   0  0  0  0  0  0
  -29.5620  -15.6598   22.5837 H   0  0  0  0  0  0
  -30.6264  -16.8931   21.9576 H   0  0  0  0  0  0
  -26.9752  -18.6196   17.7640 H   0  0  0  0  0  0
  -25.7923  -19.8301   18.1796 H   0  0  0  0  0  0
  -26.3695  -21.6414   19.6591 H   0  0  0  0  0  0
  -28.0055  -21.7843   20.2767 H   0  0  0  0  0  0
  -29.5458  -18.8184   20.5108 H   0  0  0  0  0  0
  -28.3061  -20.2731   16.4945 H   0  0  0  0  0  0
  -25.9856  -22.1323   17.1046 H   0  0  0  0  0  0
  -28.8869  -22.2187   18.0143 H   0  0  0  0  0  0
  -25.4177  -20.2018   15.5083 H   0  0  0  0  0  0
  -26.4808  -18.8009   15.4961 H   0  0  0  0  0  0
  -26.8907  -20.1881   14.5318 H   0  0  0  0  0  0
  -25.5445  -23.9979   15.6399 H   0  0  0  0  0  0
  -26.7716  -24.6319   14.5703 H   0  0  0  0  0  0
  -26.9033  -24.9174   16.2878 H   0  0  0  0  0  0
  -29.4630  -22.1331   15.4416 H   0  0  0  0  0  0
  -29.3547  -23.7499   16.1340 H   0  0  0  0  0  0
  -29.0837  -23.5073   14.4218 H   0  0  0  0  0  0
  -27.3844  -19.7675   21.1474 H   0  0  0  0  0  0
  -26.5184  -18.6504   20.1319 H   0  0  0  0  0  0
  -29.0110  -24.2850   20.0977 H   0  0  0  0  0  0
  -29.7072  -24.1964   18.5044 H   0  0  0  0  0  0
  -28.1718  -26.3582   17.9916 H   0  0  0  0  0  0
  -29.7762  -26.4193   18.6176 H   0  0  0  0  0  0
  -27.0550  -22.3066   14.7726 H   0  0  0  0  0  0
  -26.8531  -23.9225   19.1617 H   0  0  0  0  0  0
  -27.3717  -24.2529   17.6510 H   0  0  0  0  0  0
  1 25  1  0  0  0
  1 30  2  0  0  0
  1 88  1  0  0  0
  2  3  1  0  0  0
  2 25  1  0  0  0
  2 91  1  0  0  0
  2 92  1  0  0  0
  3  4  1  0  0  0
  3 93  1  0  0  0
  3 94  1  0  0  0
  4  5  1  0  0  0
  4 95  1  0  0  0
  4 96  1  0  0  0
  5  6  1  0  0  0
  5 26  1  0  0  0
  5 97  1  0  0  0
  6 25  1  0  0  0
  6 98  1  0  0  0
  6 99  1  0  0  0
  7  8  2  0  0  0
  7 26  1  0  0  0
  7 29  1  0  0  0
  8  9  1  0  0  0
  8 22  1  0  0  0
  9 10  1  0  0  0
  9 27  2  0  0  0
 10 11  2  0  0  0
 10 15  1  0  0  0
 11 12  1  0  0  0
 11100  1  0  0  0
 12 13  2  0  0  0
 12101  1  0  0  0
 13 14  1  0  0  0
 13 31  1  0  0  0
 14 15  2  0  0  0
 14102  1  0  0  0
 15103  1  0  0  0
 16 17  2  0  0  0
 16 21  1  0  0  0
 16 31  1  0  0  0
 17 18  1  0  0  0
 17104  1  0  0  0
 18 19  2  0  0  0
 18105  1  0  0  0
 19 20  1  0  0  0
 19 24  1  0  0  0
 20 21  2  0  0  0
 20106  1  0  0  0
 21 23  1  0  0  0
 22 28  1  0  0  0
 22 32  2  0  0  0
 26 27  1  0  0  0
 28107  1  0  0  0
 28108  1  0  0  0
 29109  1  0  0  0
 29110  1  0  0  0
 33 34  1  0  0  0
 33 66  1  0  0  0
 33 70  2  0  0  0
 34 36  1  0  0  0
 34 59  1  0  0  0
 34111  1  0  0  0
 35 44  2  0  0  0
 35 45  1  0  0  0
 35 68  1  0  0  0
 36 56  1  0  0  0
 36112  1  0  0  0
 37 39  1  0  0  0
 37 47  1  0  0  0
 37 66  1  0  0  0
 37113  1  0  0  0
 38 43  2  0  0  0
 38 46  1  0  0  0
 38 47  1  0  0  0
 39 64  1  0  0  0
 39 67  2  0  0  0
 40 52  1  0  0  0
 40 53  2  0  0  0
 40 58  1  0  0  0
 41114  1  0  0  0
 41115  1  0  0  0
 41116  1  0  0  0
 41 48  1  0  0  0
 42 43  1  0  0  0
 42 66  1  0  0  0
 42117  1  0  0  0
 42118  1  0  0  0
 43 44  1  0  0  0
 44119  1  0  0  0
 45 46  2  0  0  0
 45120  1  0  0  0
 46121  1  0  0  0
 47122  1  0  0  0
 47123  1  0  0  0
 48 56  1  0  0  0
 48 65  1  0  0  0
 48124  1  0  0  0
 49 50  1  0  0  0
 49 53  1  0  0  0
 49 64  1  0  0  0
 49125  1  0  0  0
 50 51  1  0  0  0
 50126  1  0  0  0
 50127  1  0  0  0
 51 52  1  0  0  0
 51128  1  0  0  0
 51129  1  0  0  0
 52130  1  0  0  0
 52131  1  0  0  0
 53 54  1  0  0  0
 54 55  2  0  0  0
 54132  1  0  0  0
 55 57  1  0  0  0
 55133  1  0  0  0
 56 69  2  0  0  0
 57 58  2  0  0  0
 57134  1  0  0  0
 58135  1  0  0  0
 59 60  1  0  0  0
 59 61  1  0  0  0
 59 62  1  0  0  0
 60136  1  0  0  0
 60137  1  0  0  0
 60138  1  0  0  0
 61139  1  0  0  0
 61140  1  0  0  0
 61141  1  0  0  0
 62142  1  0  0  0
 62143  1  0  0  0
 62144  1  0  0  0
 63 65  1  0  0  0
 63145  1  0  0  0
 63146  1  0  0  0
 63147  1  0  0  0
 64148  1  0  0  0
 65149  1  0  0  0
 68 86  1  0  0  0
 71 73  1  0  0  0
 71 77  1  0  0  0
 71150  1  0  0  0
 71151  1  0  0  0
 72 74  1  0  0  0
 72 77  1  0  0  0
 72152  1  0  0  0
 72153  1  0  0  0
 73 88  1  0  0  0
 73154  1  0  0  0
 73155  1  0  0  0
 74 88  1  0  0  0
 74156  1  0  0  0
 74157  1  0  0  0
 75 78  1  0  0  0
 75 89  1  0  0  0
 75158  1  0  0  0
 75159  1  0  0  0
 76 80  1  0  0  0
 76 89  1  0  0  0
 76160  1  0  0  0
 76161  1  0  0  0
 77 84  1  0  0  0
 77162  1  0  0  0
 78 79  1  0  0  0
 78 81  1  0  0  0
 78163  1  0  0  0
 79 80  1  0  0  0
 79 87  1  0  0  0
 79164  1  0  0  0
 80 90  1  0  0  0
 80165  1  0  0  0
 81166  1  0  0  0
 81167  1  0  0  0
 81168  1  0  0  0
 82169  1  0  0  0
 82170  1  0  0  0
 82171  1  0  0  0
 82 87  1  0  0  0
 83 87  1  0  0  0
 83172  1  0  0  0
 83173  1  0  0  0
 83174  1  0  0  0
 84 89  1  0  0  0
 84175  1  0  0  0
 84176  1  0  0  0
 85 86  1  0  0  0
 85 90  1  0  0  0
 85177  1  0  0  0
 85178  1  0  0  0
 86179  1  0  0  0
 86180  1  0  0  0
 87181  1  0  0  0
 90182  1  0  0  0
 90183  1  0  0  0
M  CHG  1  90   1
M  ISO  4   1 100  68 101  86 101  88 100
M  END
> <chiral flag>
0

> <version>
0

> <s_m_source_file>
/data/baiqing/PycharmProjects/Reinvent-master-3.2/result/LINK_invent/BTK/process_docking_weight1_custom_sum_contain_oxygen_bond_distance_aromatic_linkinvent_7_9_3/rearranged_h_0133.sdf

> <i_m_source_file_index>
55

> <r_mmod_Potential_Energy-OPLS-2005>
191.525405883789

> <r_mmod_Stretch_Energy-OPLS-2005>
39.2425422668457

> <r_mmod_Bend_Energy-OPLS-2005>
119.614295959473

> <r_mmod_Torsional_Energy-OPLS-2005>
417.763275146484

> <r_mmod_Improper_Torsional_Energy-OPLS-2005>
18.8135509490967

> <r_mmod_Van_der_Waal_Energy-OPLS-2005>
142.80403137207

> <r_mmod_Electrostatic_Energy-OPLS-2005>
-154.25537109375

> <r_mmod_Solvation_Energy-OPLS-2005>
-408.820434570312

> <b_mmod_Minimization_Converged-OPLS-2005>
0

> <r_mmod_RMS_Derivative-OPLS-2005>
2.08880710601807

$$$$
56
                    3D
 Structure written by MMmdl.
172181  0  0  1  0            999 V2000
  -29.1907  -15.9034   20.7363 C   0  0  0  0  0  0
  -30.2007  -13.4400   19.7546 C   0  0  0  0  0  0
  -29.5219  -12.8150   18.4722 C   0  0  0  0  0  0
  -28.1174  -12.2807   18.7934 C   0  0  0  0  0  0
  -27.4731  -13.2327   19.8152 C   0  0  2  0  0  0
  -28.3104  -13.4670   21.0674 C   0  0  0  0  0  0
  -25.1744  -13.8028   20.5562 C   0  0  0  0  0  0
  -24.1219  -13.0290   20.9314 C   0  0  0  0  0  0
  -24.5837  -11.6763   20.8754 C   0  0  0  0  0  0
  -23.8686  -10.4183   21.0486 C   0  0  0  0  0  0
  -24.3393   -9.4151   21.9228 C   0  0  0  0  0  0
  -23.6176   -8.2133   22.0742 C   0  0  0  0  0  0
  -22.4168   -8.0147   21.3523 C   0  0  0  0  0  0
  -21.9720   -9.0073   20.4626 C   0  0  0  0  0  0
  -22.6928  -10.2001   20.3081 C   0  0  0  0  0  0
  -21.6804   -6.0654   22.5283 C   0  0  0  0  0  0
  -21.3979   -6.5592   23.8206 C   0  0  0  0  0  0
  -21.3654   -5.6765   24.9183 C   0  0  0  0  0  0
  -21.6048   -4.3026   24.7246 C   0  0  0  0  0  0
  -21.8823   -3.8097   23.4375 C   0  0  0  0  0  0
  -21.9178   -4.6895   22.3421 C   0  0  0  0  0  0
  -22.7367  -13.5160   21.2078 C   0  0  0  0  0  0
  -22.1655   -4.2083   21.0998 F   0  0  0  0  0  0
  -21.5642   -3.4526   25.7769 F   0  0  0  0  0  0
  -29.2648  -14.4139   20.5764 N   0  0  0  0  0  0
  -26.1699  -12.9029   20.2523 N   0  0  0  0  0  0
  -25.8584  -11.6236   20.5320 N   0  0  0  0  0  0
  -22.0037  -12.8159   22.0634 N   0  0  0  0  0  0
  -25.3757  -15.1770   20.4159 N   0  0  0  0  0  0
  -30.4044  -16.1500   20.4150 O   0  0  0  0  0  0
  -21.6569   -6.8744   21.4222 O   0  0  0  0  0  0
  -22.3159  -14.5516   20.6936 O   0  0  0  0  0  0
  -24.7190  -31.9680   23.2078 C   0  0  0  0  0  0
  -25.9957  -32.5145   23.8706 C   0  0  1  0  0  0
  -26.1097  -27.0192   20.7286 C   0  0  0  0  0  0
  -25.6765  -33.8876   24.2725 N   0  0  0  0  0  0
  -23.5406  -30.7822   21.4548 C   0  0  2  0  0  0
  -24.8276  -29.1649   19.9433 C   0  0  0  0  0  0
  -22.9012  -29.8243   22.4330 C   0  0  0  0  0  0
  -19.5023  -26.7062   23.6068 C   0  0  0  0  0  0
  -24.1543  -36.7324   23.2590 C   0  0  0  0  0  0
  -26.0494  -30.7878   21.4146 C   0  0  0  0  0  0
  -25.9274  -29.4074   20.7723 C   0  0  0  0  0  0
  -26.6911  -28.2780   21.1271 C   0  0  0  0  0  0
  -25.7118  -26.9725   19.4054 C   0  0  0  0  0  0
  -24.7828  -27.9904   19.1582 C   0  0  0  0  0  0
  -23.7309  -30.1904   20.0170 C   0  0  0  0  0  0
  -25.4159  -36.3211   24.0347 C   0  0  1  0  0  0
  -21.0332  -28.5203   22.3369 C   0  0  2  0  0  0
  -21.2414  -27.8492   20.6354 C   0  0  0  0  0  0
  -20.7873  -26.1380   19.9355 C   0  0  0  0  0  0
  -19.9693  -24.9178   21.0918 C   0  0  0  0  0  0
  -19.9354  -28.2342   23.4561 C   0  0  0  0  0  0
  -19.3637  -29.5512   23.8612 C   0  0  0  0  0  0
  -18.0063  -29.8238   24.0399 C   0  0  0  0  0  0
  -25.9251  -34.9636   23.5192 C   0  0  0  0  0  0
  -17.3094  -28.6285   24.0157 C   0  0  0  0  0  0
  -18.0351  -27.3150   23.9819 C   0  0  0  0  0  0
  -26.4755  -31.6626   25.1035 C   0  0  0  0  0  0
  -25.3739  -31.3823   26.1525 C   0  0  0  0  0  0
  -27.0439  -30.2987   24.6483 C   0  0  0  0  0  0
  -27.6313  -32.4119   25.8035 C   0  0  0  0  0  0
  -27.5618  -37.1911   24.8466 C   0  0  0  0  0  0
  -21.5944  -29.7804   22.2895 N   0  0  0  0  0  0
  -26.4287  -37.3937   23.9472 N   0  0  0  0  0  0
  -24.7976  -31.2301   22.0642 N   0  0  0  0  0  0
  -23.5593  -29.1485   23.2484 O   0  0  0  0  0  0
  -25.0994  -26.3168   21.5453 O   0  0  0  0  0  0
  -26.5455  -34.9031   22.4546 O   0  0  0  0  0  0
  -23.6306  -32.2576   23.7339 O   0  0  0  0  0  0
  -18.5794  -24.5062   22.9769 C   0  0  0  0  0  0
  -20.1237  -24.0393   23.3602 C   0  0  0  0  0  0
  -18.0368  -25.7433   21.9931 C   0  0  0  0  0  0
  -19.2294  -26.8860   21.4807 C   0  0  0  0  0  0
  -21.6225  -24.4371   22.8469 C   0  0  0  0  0  0
  -21.4213  -26.0736   22.2722 C   0  0  0  0  0  0
  -18.5442  -28.0756   20.6841 C   0  0  0  0  0  0
  -17.0517  -27.9079   20.2913 C   0  0  0  0  0  0
  -16.6420  -25.7830   21.3880 C   0  0  1  0  0  0
  -15.0321  -25.1917   23.3702 C   0  0  0  0  0  0
  -23.1562  -22.9919   22.7943 C   0  0  0  0  0  0
  -23.2815  -26.4767   21.5681 C   0  0  0  0  0  0
  -15.5508  -24.8518   21.9676 C   0  0  0  0  0  0
  -26.8617  -18.6706   21.1430 C   0  0  0  0  0  0
  -25.4057  -20.0459   22.0936 C   0  0  0  0  0  0
  -27.8899  -16.9518   21.1128 N   0  0  0  0  0  0
  -16.2267  -27.1848   21.2743 N   0  3  0  0  0  0
  -24.1880  -21.5809   21.8944 N   0  3  0  0  0  0
  -31.1025  -13.9712   19.4488 H   0  0  0  0  0  0
  -30.5741  -12.6388   20.3958 H   0  0  0  0  0  0
  -30.1463  -12.0339   18.0354 H   0  0  0  0  0  0
  -29.4281  -13.5950   17.7149 H   0  0  0  0  0  0
  -28.2027  -11.2807   19.2227 H   0  0  0  0  0  0
  -27.5134  -12.1897   17.8883 H   0  0  0  0  0  0
  -27.3527  -14.1607   19.2499 H   0  0  0  0  0  0
  -28.7189  -12.5421   21.4824 H   0  0  0  0  0  0
  -27.7328  -13.9373   21.8655 H   0  0  0  0  0  0
  -25.2527   -9.5698   22.4803 H   0  0  0  0  0  0
  -23.9917   -7.4515   22.7433 H   0  0  0  0  0  0
  -21.0667   -8.8513   19.8927 H   0  0  0  0  0  0
  -22.3339  -10.9532   19.6205 H   0  0  0  0  0  0
  -21.1953   -7.6100   23.9686 H   0  0  0  0  0  0
  -21.1489   -6.0508   25.9084 H   0  0  0  0  0  0
  -22.0617   -2.7558   23.2895 H   0  0  0  0  0  0
  -22.3600  -11.9768   22.4961 H   0  0  0  0  0  0
  -21.0669  -13.1208   22.2862 H   0  0  0  0  0  0
  -24.5945  -15.8160   20.5144 H   0  0  0  0  0  0
  -26.0813  -15.5270   19.7793 H   0  0  0  0  0  0
  -26.8155  -32.5629   23.1558 H   0  0  0  0  0  0
  -25.1272  -34.0012   25.1116 H   0  0  0  0  0  0
  -22.8899  -31.6551   21.3465 H   0  0  0  0  0  0
  -23.3865  -35.9595   23.3191 H   0  0  0  0  0  0
  -24.3684  -36.8987   22.2022 H   0  0  0  0  0  0
  -23.7193  -37.6482   23.6598 H   0  0  0  0  0  0
  -26.3046  -31.5097   20.6382 H   0  0  0  0  0  0
  -26.9091  -30.7558   22.0745 H   0  0  0  0  0  0
  -27.3021  -28.3542   22.0167 H   0  0  0  0  0  0
  -25.4948  -26.0263   18.9288 H   0  0  0  0  0  0
  -24.0055  -27.8482   18.4192 H   0  0  0  0  0  0
  -24.0635  -31.0073   19.3754 H   0  0  0  0  0  0
  -22.8039  -29.8850   19.5455 H   0  0  0  0  0  0
  -25.1280  -36.2073   25.0825 H   0  0  0  0  0  0
  -21.6611  -28.0693   23.0973 H   0  0  0  0  0  0
  -20.8314  -28.6130   19.9842 H   0  0  0  0  0  0
  -22.1985  -28.0727   20.2036 H   0  0  0  0  0  0
  -21.6031  -25.6512   19.4046 H   0  0  0  0  0  0
  -20.0927  -26.3013   19.1110 H   0  0  0  0  0  0
  -19.1477  -24.5364   20.4633 H   0  0  0  0  0  0
  -20.4961  -23.9604   20.9846 H   0  0  0  0  0  0
  -19.9536  -30.4529   23.8073 H   0  0  0  0  0  0
  -17.5735  -30.8029   24.1938 H   0  0  0  0  0  0
  -16.2485  -28.6476   24.2255 H   0  0  0  0  0  0
  -17.3303  -26.5314   24.2044 H   0  0  0  0  0  0
  -24.5849  -30.7391   25.7611 H   0  0  0  0  0  0
  -24.9055  -32.3022   26.5032 H   0  0  0  0  0  0
  -25.7815  -30.8769   27.0290 H   0  0  0  0  0  0
  -26.3033  -29.6952   24.1225 H   0  0  0  0  0  0
  -27.3733  -29.7069   25.5034 H   0  0  0  0  0  0
  -27.9154  -30.4172   24.0041 H   0  0  0  0  0  0
  -27.3020  -33.3436   26.2643 H   0  0  0  0  0  0
  -28.4291  -32.6596   25.1025 H   0  0  0  0  0  0
  -28.0745  -31.8105   26.5982 H   0  0  0  0  0  0
  -28.2522  -38.0318   24.7669 H   0  0  0  0  0  0
  -28.1234  -36.2865   24.6086 H   0  0  0  0  0  0
  -27.2373  -37.1308   25.8867 H   0  0  0  0  0  0
  -21.1376  -30.4708   21.7096 H   0  0  0  0  0  0
  -26.0142  -38.2979   24.1578 H   0  0  0  0  0  0
  -17.8151  -23.8382   23.3476 H   0  0  0  0  0  0
  -20.1234  -23.1068   23.9068 H   0  0  0  0  0  0
  -18.9531  -28.2303   19.6913 H   0  0  0  0  0  0
  -18.6450  -29.0059   21.2364 H   0  0  0  0  0  0
  -16.9795  -27.3909   19.3322 H   0  0  0  0  0  0
  -16.6133  -28.8924   20.1213 H   0  0  0  0  0  0
  -16.7847  -25.4088   20.3720 H   0  0  0  0  0  0
  -14.1788  -24.5595   23.6205 H   0  0  0  0  0  0
  -14.6945  -26.2259   23.4305 H   0  0  0  0  0  0
  -15.7901  -25.0223   24.1326 H   0  0  0  0  0  0
  -22.8712  -22.4320   23.6851 H   0  0  0  0  0  0
  -23.9850  -23.6064   23.1458 H   0  0  0  0  0  0
  -23.4022  -27.5219   21.6579 H   0  0  0  0  0  0
  -23.2091  -26.2232   20.5207 H   0  0  0  0  0  0
  -15.8977  -23.8163   21.9377 H   0  0  0  0  0  0
  -14.7001  -24.8726   21.2823 H   0  0  0  0  0  0
  -27.6688  -19.3641   20.9070 H   0  0  0  0  0  0
  -26.3582  -18.5276   20.1861 H   0  0  0  0  0  0
  -26.0057  -20.4308   22.9164 H   0  0  0  0  0  0
  -24.7410  -19.3377   22.5863 H   0  0  0  0  0  0
  -27.1671  -16.2816   21.3528 H   0  0  0  0  0  0
  -15.2657  -27.2144   20.9723 H   0  0  0  0  0  0
  -16.3046  -27.6306   22.1740 H   0  0  0  0  0  0
  -24.6974  -22.1355   21.2288 H   0  0  0  0  0  0
  -23.4547  -21.1474   21.3584 H   0  0  0  0  0  0
  1 25  1  0  0  0
  1 30  2  0  0  0
  1 86  1  0  0  0
  2  3  1  0  0  0
  2 25  1  0  0  0
  2 89  1  0  0  0
  2 90  1  0  0  0
  3  4  1  0  0  0
  3 91  1  0  0  0
  3 92  1  0  0  0
  4  5  1  0  0  0
  4 93  1  0  0  0
  4 94  1  0  0  0
  5  6  1  0  0  0
  5 26  1  0  0  0
  5 95  1  0  0  0
  6 25  1  0  0  0
  6 96  1  0  0  0
  6 97  1  0  0  0
  7  8  2  0  0  0
  7 26  1  0  0  0
  7 29  1  0  0  0
  8  9  1  0  0  0
  8 22  1  0  0  0
  9 10  1  0  0  0
  9 27  2  0  0  0
 10 11  2  0  0  0
 10 15  1  0  0  0
 11 12  1  0  0  0
 11 98  1  0  0  0
 12 13  2  0  0  0
 12 99  1  0  0  0
 13 14  1  0  0  0
 13 31  1  0  0  0
 14 15  2  0  0  0
 14100  1  0  0  0
 15101  1  0  0  0
 16 17  2  0  0  0
 16 21  1  0  0  0
 16 31  1  0  0  0
 17 18  1  0  0  0
 17102  1  0  0  0
 18 19  2  0  0  0
 18103  1  0  0  0
 19 20  1  0  0  0
 19 24  1  0  0  0
 20 21  2  0  0  0
 20104  1  0  0  0
 21 23  1  0  0  0
 22 28  1  0  0  0
 22 32  2  0  0  0
 26 27  1  0  0  0
 28105  1  0  0  0
 28106  1  0  0  0
 29107  1  0  0  0
 29108  1  0  0  0
 33 34  1  0  0  0
 33 66  1  0  0  0
 33 70  2  0  0  0
 34 36  1  0  0  0
 34 59  1  0  0  0
 34109  1  0  0  0
 35 44  2  0  0  0
 35 45  1  0  0  0
 35 68  1  0  0  0
 36 56  1  0  0  0
 36110  1  0  0  0
 37 39  1  0  0  0
 37 47  1  0  0  0
 37 66  1  0  0  0
 37111  1  0  0  0
 38 43  2  0  0  0
 38 46  1  0  0  0
 38 47  1  0  0  0
 39 64  1  0  0  0
 39 67  2  0  0  0
 40 52  1  0  0  0
 40 53  2  0  0  0
 40 58  1  0  0  0
 41112  1  0  0  0
 41113  1  0  0  0
 41114  1  0  0  0
 41 48  1  0  0  0
 42 43  1  0  0  0
 42 66  1  0  0  0
 42115  1  0  0  0
 42116  1  0  0  0
 43 44  1  0  0  0
 44117  1  0  0  0
 45 46  2  0  0  0
 45118  1  0  0  0
 46119  1  0  0  0
 47120  1  0  0  0
 47121  1  0  0  0
 48 56  1  0  0  0
 48 65  1  0  0  0
 48122  1  0  0  0
 49 50  1  0  0  0
 49 53  1  0  0  0
 49 64  1  0  0  0
 49123  1  0  0  0
 50 51  1  0  0  0
 50124  1  0  0  0
 50125  1  0  0  0
 51 52  1  0  0  0
 51126  1  0  0  0
 51127  1  0  0  0
 52128  1  0  0  0
 52129  1  0  0  0
 53 54  1  0  0  0
 54 55  2  0  0  0
 54130  1  0  0  0
 55 57  1  0  0  0
 55131  1  0  0  0
 56 69  2  0  0  0
 57 58  2  0  0  0
 57132  1  0  0  0
 58133  1  0  0  0
 59 60  1  0  0  0
 59 61  1  0  0  0
 59 62  1  0  0  0
 60134  1  0  0  0
 60135  1  0  0  0
 60136  1  0  0  0
 61137  1  0  0  0
 61138  1  0  0  0
 61139  1  0  0  0
 62140  1  0  0  0
 62141  1  0  0  0
 62142  1  0  0  0
 63 65  1  0  0  0
 63143  1  0  0  0
 63144  1  0  0  0
 63145  1  0  0  0
 64146  1  0  0  0
 65147  1  0  0  0
 68 82  1  0  0  0
 71 72  2  0  0  0
 71 73  1  0  0  0
 71148  1  0  0  0
 72 75  1  0  0  0
 72149  1  0  0  0
 73 74  2  0  0  0
 73 79  1  0  0  0
 74 76  1  0  0  0
 74 77  1  0  0  0
 75 76  2  0  0  0
 75 81  1  0  0  0
 76 82  1  0  0  0
 77 78  1  0  0  0
 77150  1  0  0  0
 77151  1  0  0  0
 78 87  1  0  0  0
 78152  1  0  0  0
 78153  1  0  0  0
 79 83  1  0  0  0
 79 87  1  0  0  0
 79154  1  0  0  0
 80 83  1  0  0  0
 80155  1  0  0  0
 80156  1  0  0  0
 80157  1  0  0  0
 81 88  1  0  0  0
 81158  1  0  0  0
 81159  1  0  0  0
 82160  1  0  0  0
 82161  1  0  0  0
 83162  1  0  0  0
 83163  1  0  0  0
 84 85  1  0  0  0
 84 86  1  0  0  0
 84164  1  0  0  0
 84165  1  0  0  0
 85 88  1  0  0  0
 85166  1  0  0  0
 85167  1  0  0  0
 86168  1  0  0  0
 87169  1  0  0  0
 87170  1  0  0  0
 88171  1  0  0  0
 88172  1  0  0  0
M  CHG  2  87   1  88   1
M  ISO  4   1 100  68 101  82 101  86 100
M  END
> <chiral flag>
0

> <version>
0

> <s_m_source_file>
/data/baiqing/PycharmProjects/Reinvent-master-3.2/result/LINK_invent/BTK/process_docking_weight1_custom_sum_contain_oxygen_bond_distance_aromatic_linkinvent_7_9_3/rearranged_h_0133.sdf

> <i_m_source_file_index>
56

> <r_mmod_Potential_Energy-OPLS-2005>
21385.802734375

> <r_mmod_Stretch_Energy-OPLS-2005>
10365.7822265625

> <r_mmod_Bend_Energy-OPLS-2005>
1897.89965820312

> <r_mmod_Torsional_Energy-OPLS-2005>
685.5390625

> <r_mmod_Improper_Torsional_Energy-OPLS-2005>
74.8382339477539

> <r_mmod_Van_der_Waal_Energy-OPLS-2005>
3133.69580078125

> <r_mmod_Electrostatic_Energy-OPLS-2005>
-126.574935913086

> <r_mmod_Solvation_Energy-OPLS-2005>
-907.897644042969

> <b_mmod_Minimization_Converged-OPLS-2005>
0

> <r_mmod_RMS_Derivative-OPLS-2005>
6.13954639434814

$$$$
57
                    3D
 Structure written by MMmdl.
170180  0  0  1  0            999 V2000
  -30.4788  -15.1833   20.3876 C   0  0  0  0  0  0
  -30.4378  -12.7532   19.5202 C   0  0  0  0  0  0
  -29.5313  -12.5628   18.2797 C   0  0  0  0  0  0
  -28.0763  -12.3024   18.7063 C   0  0  0  0  0  0
  -27.6154  -13.2697   19.8262 C   0  0  2  0  0  0
  -28.6517  -13.4139   20.9613 C   0  0  0  0  0  0
  -25.2408  -13.8246   20.5748 C   0  0  0  0  0  0
  -24.1757  -13.0439   20.9263 C   0  0  0  0  0  0
  -24.6405  -11.6937   20.8769 C   0  0  0  0  0  0
  -23.9100  -10.4296   21.0409 C   0  0  0  0  0  0
  -24.3642   -9.4211   21.9188 C   0  0  0  0  0  0
  -23.6309   -8.2248   22.0759 C   0  0  0  0  0  0
  -22.4290   -8.0287   21.3548 C   0  0  0  0  0  0
  -21.9934   -9.0264   20.4647 C   0  0  0  0  0  0
  -22.7273  -10.2139   20.3056 C   0  0  0  0  0  0
  -21.6852   -6.0744   22.5283 C   0  0  0  0  0  0
  -21.4014   -6.5643   23.8217 C   0  0  0  0  0  0
  -21.3659   -5.6794   24.9176 C   0  0  0  0  0  0
  -21.6038   -4.3057   24.7222 C   0  0  0  0  0  0
  -21.8822   -3.8153   23.4341 C   0  0  0  0  0  0
  -21.9194   -4.6973   22.3400 C   0  0  0  0  0  0
  -22.7774  -13.5197   21.1897 C   0  0  0  0  0  0
  -22.1664   -4.2157   21.0978 F   0  0  0  0  0  0
  -21.5625   -3.4540   25.7732 F   0  0  0  0  0  0
  -29.8952  -13.8936   20.3401 N   0  0  0  0  0  0
  -26.2835  -12.9511   20.3228 N   0  0  0  0  0  0
  -25.9338  -11.6623   20.5730 N   0  0  0  0  0  0
  -22.0423  -12.8174   22.0437 N   0  0  0  0  0  0
  -25.4052  -15.1979   20.4177 N   0  0  0  0  0  0
  -31.6963  -15.1843   20.1616 O   0  0  0  0  0  0
  -21.6645   -6.8891   21.4245 O   0  0  0  0  0  0
  -22.3459  -14.5502   20.6733 O   0  0  0  0  0  0
  -24.6588  -31.8286   23.1756 C   0  0  0  0  0  0
  -25.9293  -32.4615   23.8194 C   0  0  1  0  0  0
  -27.2126  -26.9741   20.1760 C   0  0  0  0  0  0
  -25.5982  -33.8428   24.2108 N   0  0  0  0  0  0
  -23.4709  -30.4437   21.5246 C   0  0  2  0  0  0
  -24.9226  -28.8447   20.1101 C   0  0  0  0  0  0
  -22.7648  -29.4474   22.4806 C   0  0  0  0  0  0
  -18.0314  -28.1409   22.8470 C   0  0  0  0  0  0
  -24.1492  -36.7222   23.2647 C   0  0  0  0  0  0
  -26.0375  -30.6522   21.3972 C   0  0  0  0  0  0
  -26.1058  -29.2469   20.7417 C   0  0  0  0  0  0
  -27.2479  -28.3317   20.7533 C   0  0  0  0  0  0
  -26.0014  -26.7203   19.4920 C   0  0  0  0  0  0
  -24.8934  -27.6003   19.4645 C   0  0  0  0  0  0
  -23.7060  -29.7656   20.1480 C   0  0  0  0  0  0
  -25.4130  -36.2986   24.0305 C   0  0  1  0  0  0
  -20.5937  -28.3751   23.1201 C   0  0  2  0  0  0
  -20.6798  -26.9437   22.5404 C   0  0  0  0  0  0
  -19.5770  -26.6384   21.5215 C   0  0  0  0  0  0
  -18.1950  -26.7946   22.1621 C   0  0  0  0  0  0
  -19.1575  -28.8900   23.2823 C   0  0  0  0  0  0
  -18.9488  -30.1492   23.8854 C   0  0  0  0  0  0
  -17.6482  -30.6601   24.0556 C   0  0  0  0  0  0
  -25.9093  -34.9367   23.5027 C   0  0  0  0  0  0
  -16.5372  -29.9090   23.6338 C   0  0  0  0  0  0
  -16.7296  -28.6508   23.0359 C   0  0  0  0  0  0
  -26.4554  -31.6536   25.0698 C   0  0  0  0  0  0
  -25.3692  -31.3769   26.1360 C   0  0  0  0  0  0
  -27.0445  -30.2917   24.6383 C   0  0  0  0  0  0
  -27.6062  -32.4327   25.7493 C   0  0  0  0  0  0
  -27.5566  -37.1775   24.8466 C   0  0  0  0  0  0
  -21.4323  -29.3054   22.3562 N   0  0  0  0  0  0
  -26.4276  -37.3720   23.9411 N   0  0  0  0  0  0
  -24.7437  -30.9999   22.0866 N   0  0  0  0  0  0
  -23.4219  -28.8033   23.3020 O   0  0  0  0  0  0
  -28.2020  -25.8710   20.2610 O   0  0  0  0  0  0
  -26.5696  -34.8898   22.4620 O   0  0  0  0  0  0
  -23.5666  -32.1221   23.6879 O   0  0  0  0  0  0
  -29.1241  -21.9532   19.1660 C   0  0  0  0  0  0
  -29.5178  -20.5270   19.2189 C   0  0  0  0  0  0
  -28.4772  -21.8409   21.3671 C   0  0  0  0  0  0
  -28.8759  -20.3996   21.4413 C   0  0  0  0  0  0
  -28.5730  -22.7613   20.2381 C   0  0  0  0  0  0
  -29.4258  -19.6029   20.3401 C   0  0  0  0  0  0
  -33.6923  -19.3227   24.5180 C   0  0  0  0  0  0
  -34.1946  -20.6672   24.0417 C   0  0  0  0  0  0
  -27.7961  -19.6707   24.6364 C   0  0  0  0  0  0
  -28.7380  -19.6952   22.7936 C   0  0  1  0  0  0
  -32.8899  -20.5714   24.7956 C   0  0  0  0  0  0
  -29.0538  -20.3808   24.1314 C   0  0  2  0  0  0
  -30.1746  -18.0311   20.3520 C   0  0  0  0  0  0
  -27.8057  -24.3087   20.0652 C   0  0  0  0  0  0
  -31.5659  -20.8142   24.0987 C   0  0  0  0  0  0
  -30.3935  -20.1368   24.8244 C   0  0  0  0  0  0
  -29.7395  -16.4507   20.4822 N   0  0  0  0  0  0
  -27.3555  -19.5657   23.2488 N   0  3  0  0  0  0
  -31.4620  -12.9403   19.1938 H   0  0  0  0  0  0
  -30.4833  -11.8375   20.1117 H   0  0  0  0  0  0
  -29.8965  -11.7394   17.6646 H   0  0  0  0  0  0
  -29.5761  -13.4563   17.6551 H   0  0  0  0  0  0
  -28.0193  -11.2741   19.0655 H   0  0  0  0  0  0
  -27.4077  -12.3637   17.8470 H   0  0  0  0  0  0
  -27.5409  -14.2444   19.3430 H   0  0  0  0  0  0
  -28.8006  -12.4716   21.4908 H   0  0  0  0  0  0
  -28.3067  -14.1372   21.7021 H   0  0  0  0  0  0
  -25.2785   -9.5675   22.4766 H   0  0  0  0  0  0
  -24.0011   -7.4632   22.7474 H   0  0  0  0  0  0
  -21.0867   -8.8783   19.8945 H   0  0  0  0  0  0
  -22.3737  -10.9676   19.6158 H   0  0  0  0  0  0
  -21.2009   -7.6153   23.9720 H   0  0  0  0  0  0
  -21.1474   -6.0525   25.9077 H   0  0  0  0  0  0
  -22.0601   -2.7615   23.2838 H   0  0  0  0  0  0
  -22.4055  -11.9840   22.4825 H   0  0  0  0  0  0
  -21.1027  -13.1166   22.2620 H   0  0  0  0  0  0
  -24.6246  -15.8396   20.5051 H   0  0  0  0  0  0
  -26.2297  -15.6303   20.0225 H   0  0  0  0  0  0
  -26.7357  -32.5166   23.0904 H   0  0  0  0  0  0
  -25.0077  -33.9514   25.0222 H   0  0  0  0  0  0
  -22.7817  -31.2744   21.3595 H   0  0  0  0  0  0
  -23.3765  -35.9542   23.3277 H   0  0  0  0  0  0
  -24.3568  -36.8890   22.2066 H   0  0  0  0  0  0
  -23.7233  -37.6402   23.6711 H   0  0  0  0  0  0
  -26.2096  -31.3947   20.6168 H   0  0  0  0  0  0
  -26.9026  -30.7098   22.0460 H   0  0  0  0  0  0
  -28.1411  -28.6361   21.2801 H   0  0  0  0  0  0
  -25.8627  -25.7743   18.9918 H   0  0  0  0  0  0
  -23.9938  -27.2883   18.9518 H   0  0  0  0  0  0
  -23.8560  -30.5368   19.3912 H   0  0  0  0  0  0
  -22.8161  -29.2182   19.8311 H   0  0  0  0  0  0
  -25.1323  -36.1786   25.0793 H   0  0  0  0  0  0
  -21.0023  -28.3346   24.1326 H   0  0  0  0  0  0
  -20.5693  -26.2363   23.3639 H   0  0  0  0  0  0
  -21.6659  -26.7429   22.1198 H   0  0  0  0  0  0
  -19.6931  -25.6288   21.1260 H   0  0  0  0  0  0
  -19.6703  -27.3181   20.6733 H   0  0  0  0  0  0
  -17.4222  -26.6686   21.4023 H   0  0  0  0  0  0
  -18.0341  -26.0103   22.9027 H   0  0  0  0  0  0
  -19.7965  -30.7318   24.2208 H   0  0  0  0  0  0
  -17.5033  -31.6273   24.5172 H   0  0  0  0  0  0
  -15.5372  -30.2976   23.7698 H   0  0  0  0  0  0
  -15.8694  -28.0814   22.7101 H   0  0  0  0  0  0
  -24.5897  -30.7092   25.7668 H   0  0  0  0  0  0
  -24.8851  -32.2965   26.4664 H   0  0  0  0  0  0
  -25.7935  -30.9014   27.0213 H   0  0  0  0  0  0
  -26.3099  -29.6609   24.1369 H   0  0  0  0  0  0
  -27.3988  -29.7253   25.5006 H   0  0  0  0  0  0
  -27.9029  -30.4125   23.9775 H   0  0  0  0  0  0
  -27.2657  -33.3687   26.1934 H   0  0  0  0  0  0
  -28.3948  -32.6790   25.0368 H   0  0  0  0  0  0
  -28.0646  -31.8530   26.5515 H   0  0  0  0  0  0
  -28.2573  -38.0081   24.7515 H   0  0  0  0  0  0
  -28.1071  -36.2613   24.6288 H   0  0  0  0  0  0
  -27.2285  -37.1405   25.8867 H   0  0  0  0  0  0
  -20.9572  -29.8747   21.6698 H   0  0  0  0  0  0
  -26.0124  -38.2779   24.1417 H   0  0  0  0  0  0
  -29.2310  -22.4435   18.2083 H   0  0  0  0  0  0
  -29.9459  -20.1268   18.3095 H   0  0  0  0  0  0
  -28.0308  -22.2809   22.2465 H   0  0  0  0  0  0
  -34.2073  -18.8598   25.3579 H   0  0  0  0  0  0
  -33.3151  -18.6317   23.7663 H   0  0  0  0  0  0
  -34.1515  -20.8737   22.9738 H   0  0  0  0  0  0
  -35.0480  -21.0968   24.5633 H   0  0  0  0  0  0
  -27.1443  -20.2801   25.2635 H   0  0  0  0  0  0
  -27.9898  -18.6936   25.0832 H   0  0  0  0  0  0
  -29.1921  -18.7025   22.7667 H   0  0  0  0  0  0
  -32.9146  -20.9342   25.8224 H   0  0  0  0  0  0
  -28.8392  -21.4496   24.0887 H   0  0  0  0  0  0
  -30.9446  -18.1344   21.1177 H   0  0  0  0  0  0
  -30.7510  -18.0354   19.4257 H   0  0  0  0  0  0
  -26.8952  -24.1979   20.6554 H   0  0  0  0  0  0
  -27.4639  -24.2669   19.0315 H   0  0  0  0  0  0
  -31.6285  -20.4531   23.0709 H   0  0  0  0  0  0
  -31.3969  -21.8905   24.0409 H   0  0  0  0  0  0
  -30.5902  -19.0658   24.8947 H   0  0  0  0  0  0
  -30.3477  -20.4988   25.8527 H   0  0  0  0  0  0
  -28.7492  -16.3134   20.6157 H   0  0  0  0  0  0
  -26.7838  -20.3454   22.9741 H   0  0  0  0  0  0
  -26.9231  -18.6870   23.0180 H   0  0  0  0  0  0
  1 25  1  0  0  0
  1 30  2  0  0  0
  1 87  1  0  0  0
  2  3  1  0  0  0
  2 25  1  0  0  0
  2 89  1  0  0  0
  2 90  1  0  0  0
  3  4  1  0  0  0
  3 91  1  0  0  0
  3 92  1  0  0  0
  4  5  1  0  0  0
  4 93  1  0  0  0
  4 94  1  0  0  0
  5  6  1  0  0  0
  5 26  1  0  0  0
  5 95  1  0  0  0
  6 25  1  0  0  0
  6 96  1  0  0  0
  6 97  1  0  0  0
  7  8  2  0  0  0
  7 26  1  0  0  0
  7 29  1  0  0  0
  8  9  1  0  0  0
  8 22  1  0  0  0
  9 10  1  0  0  0
  9 27  2  0  0  0
 10 11  2  0  0  0
 10 15  1  0  0  0
 11 12  1  0  0  0
 11 98  1  0  0  0
 12 13  2  0  0  0
 12 99  1  0  0  0
 13 14  1  0  0  0
 13 31  1  0  0  0
 14 15  2  0  0  0
 14100  1  0  0  0
 15101  1  0  0  0
 16 17  2  0  0  0
 16 21  1  0  0  0
 16 31  1  0  0  0
 17 18  1  0  0  0
 17102  1  0  0  0
 18 19  2  0  0  0
 18103  1  0  0  0
 19 20  1  0  0  0
 19 24  1  0  0  0
 20 21  2  0  0  0
 20104  1  0  0  0
 21 23  1  0  0  0
 22 28  1  0  0  0
 22 32  2  0  0  0
 26 27  1  0  0  0
 28105  1  0  0  0
 28106  1  0  0  0
 29107  1  0  0  0
 29108  1  0  0  0
 33 34  1  0  0  0
 33 66  1  0  0  0
 33 70  2  0  0  0
 34 36  1  0  0  0
 34 59  1  0  0  0
 34109  1  0  0  0
 35 44  2  0  0  0
 35 45  1  0  0  0
 35 68  1  0  0  0
 36 56  1  0  0  0
 36110  1  0  0  0
 37 39  1  0  0  0
 37 47  1  0  0  0
 37 66  1  0  0  0
 37111  1  0  0  0
 38 43  2  0  0  0
 38 46  1  0  0  0
 38 47  1  0  0  0
 39 64  1  0  0  0
 39 67  2  0  0  0
 40 52  1  0  0  0
 40 53  2  0  0  0
 40 58  1  0  0  0
 41112  1  0  0  0
 41113  1  0  0  0
 41114  1  0  0  0
 41 48  1  0  0  0
 42 43  1  0  0  0
 42 66  1  0  0  0
 42115  1  0  0  0
 42116  1  0  0  0
 43 44  1  0  0  0
 44117  1  0  0  0
 45 46  2  0  0  0
 45118  1  0  0  0
 46119  1  0  0  0
 47120  1  0  0  0
 47121  1  0  0  0
 48 56  1  0  0  0
 48 65  1  0  0  0
 48122  1  0  0  0
 49 50  1  0  0  0
 49 53  1  0  0  0
 49 64  1  0  0  0
 49123  1  0  0  0
 50 51  1  0  0  0
 50124  1  0  0  0
 50125  1  0  0  0
 51 52  1  0  0  0
 51126  1  0  0  0
 51127  1  0  0  0
 52128  1  0  0  0
 52129  1  0  0  0
 53 54  1  0  0  0
 54 55  2  0  0  0
 54130  1  0  0  0
 55 57  1  0  0  0
 55131  1  0  0  0
 56 69  2  0  0  0
 57 58  2  0  0  0
 57132  1  0  0  0
 58133  1  0  0  0
 59 60  1  0  0  0
 59 61  1  0  0  0
 59 62  1  0  0  0
 60134  1  0  0  0
 60135  1  0  0  0
 60136  1  0  0  0
 61137  1  0  0  0
 61138  1  0  0  0
 61139  1  0  0  0
 62140  1  0  0  0
 62141  1  0  0  0
 62142  1  0  0  0
 63 65  1  0  0  0
 63143  1  0  0  0
 63144  1  0  0  0
 63145  1  0  0  0
 64146  1  0  0  0
 65147  1  0  0  0
 68 84  1  0  0  0
 71 72  2  0  0  0
 71 75  1  0  0  0
 71148  1  0  0  0
 72 76  1  0  0  0
 72149  1  0  0  0
 73 74  1  0  0  0
 73 75  2  0  0  0
 73150  1  0  0  0
 74 76  2  0  0  0
 74 80  1  0  0  0
 75 84  1  0  0  0
 76 83  1  0  0  0
 77 78  1  0  0  0
 77 81  1  0  0  0
 77151  1  0  0  0
 77152  1  0  0  0
 78 81  1  0  0  0
 78153  1  0  0  0
 78154  1  0  0  0
 79 82  1  0  0  0
 79 88  1  0  0  0
 79155  1  0  0  0
 79156  1  0  0  0
 80 82  1  0  0  0
 80 88  1  0  0  0
 80157  1  0  0  0
 81 85  1  0  0  0
 81158  1  0  0  0
 82 86  1  0  0  0
 82159  1  0  0  0
 83 87  1  0  0  0
 83160  1  0  0  0
 83161  1  0  0  0
 84162  1  0  0  0
 84163  1  0  0  0
 85 86  1  0  0  0
 85164  1  0  0  0
 85165  1  0  0  0
 86166  1  0  0  0
 86167  1  0  0  0
 87168  1  0  0  0
 88169  1  0  0  0
 88170  1  0  0  0
M  CHG  1  88   1
M  ISO  4   1 100  68 101  84 101  87 100
M  END
> <chiral flag>
0

> <version>
0

> <s_m_source_file>
/data/baiqing/PycharmProjects/Reinvent-master-3.2/result/LINK_invent/BTK/process_docking_weight1_custom_sum_contain_oxygen_bond_distance_aromatic_linkinvent_7_9_3/rearranged_h_0133.sdf

> <i_m_source_file_index>
57

> <r_mmod_Potential_Energy-OPLS-2005>
867.517211914062

> <r_mmod_Stretch_Energy-OPLS-2005>
449.374572753906

> <r_mmod_Bend_Energy-OPLS-2005>
422.262298583984

> <r_mmod_Torsional_Energy-OPLS-2005>
289.899108886719

> <r_mmod_Improper_Torsional_Energy-OPLS-2005>
10.2236442565918

> <r_mmod_Van_der_Waal_Energy-OPLS-2005>
123.898612976074

> <r_mmod_Electrostatic_Energy-OPLS-2005>
-312.521850585938

> <r_mmod_Solvation_Energy-OPLS-2005>
-501.595703125

> <b_mmod_Minimization_Converged-OPLS-2005>
0

> <r_mmod_RMS_Derivative-OPLS-2005>
1.13894987106323

$$$$
58
                    3D
 Structure written by MMmdl.
172181  0  0  1  0            999 V2000
  -29.9463  -12.9478   20.1790 C   0  0  0  0  0  0
  -31.0641  -12.2656   19.2413 C   0  0  0  0  0  0
  -30.0457  -13.0718   17.8387 C   0  0  0  0  0  0
  -28.5428  -13.9512   18.3862 C   0  0  0  0  0  0
  -27.7423  -13.8268   20.0952 C   0  0  2  0  0  0
  -28.8949  -13.1443   21.3943 C   0  0  0  0  0  0
  -25.2079  -13.9501   20.6005 C   0  0  0  0  0  0
  -24.1803  -13.1022   20.9101 C   0  0  0  0  0  0
  -24.7051  -11.7781   20.8476 C   0  0  0  0  0  0
  -23.9805  -10.4783   21.0025 C   0  0  0  0  0  0
  -24.4277   -9.4558   21.8737 C   0  0  0  0  0  0
  -23.6834   -8.2637   22.0541 C   0  0  0  0  0  0
  -22.4650   -8.0617   21.3568 C   0  0  0  0  0  0
  -22.0304   -9.0662   20.4762 C   0  0  0  0  0  0
  -22.7702  -10.2531   20.3009 C   0  0  0  0  0  0
  -21.7051   -6.0968   22.5279 C   0  0  0  0  0  0
  -21.4171   -6.5812   23.8225 C   0  0  0  0  0  0
  -21.3668   -5.6872   24.9100 C   0  0  0  0  0  0
  -21.6007   -4.3142   24.7103 C   0  0  0  0  0  0
  -21.8820   -3.8318   23.4199 C   0  0  0  0  0  0
  -21.9240   -4.7192   22.3313 C   0  0  0  0  0  0
  -22.7664  -13.5259   21.1856 C   0  0  0  0  0  0
  -22.1676   -4.2383   21.0884 F   0  0  0  0  0  0
  -21.5556   -3.4564   25.7580 F   0  0  0  0  0  0
  -30.3795  -12.3736   20.8781 N   0  0  0  0  0  0
  -26.3523  -13.2143   20.3839 N   0  0  0  0  0  0
  -26.0257  -11.8713   20.5758 N   0  0  0  0  0  0
  -22.0659  -12.8229   22.0698 N   0  0  0  0  0  0
  -25.2696  -15.3234   20.4722 N   0  0  0  0  0  0
  -30.4760  -14.2304   20.1054 O   0  0  0  0  0  0
  -21.6986   -6.9205   21.4288 O   0  0  0  0  0  0
  -22.2994  -14.5375   20.6650 O   0  0  0  0  0  0
  -24.6278  -31.8585   23.2000 C   0  0  0  0  0  0
  -25.9129  -32.4757   23.8323 C   0  0  1  0  0  0
  -27.1683  -27.2832   20.0141 C   0  0  0  0  0  0
  -25.5943  -33.8572   24.2243 N   0  0  0  0  0  0
  -23.4177  -30.4841   21.5519 C   0  0  2  0  0  0
  -24.8439  -28.9337   20.1076 C   0  0  0  0  0  0
  -22.7463  -29.4615   22.4978 C   0  0  0  0  0  0
  -18.0294  -28.1386   22.8496 C   0  0  0  0  0  0
  -24.1495  -36.7273   23.2633 C   0  0  0  0  0  0
  -25.9651  -30.7618   21.3854 C   0  0  0  0  0  0
  -26.0281  -29.3918   20.7049 C   0  0  0  0  0  0
  -27.1997  -28.5699   20.6558 C   0  0  0  0  0  0
  -25.9601  -26.8839   19.4211 C   0  0  0  0  0  0
  -24.8121  -27.6861   19.4687 C   0  0  0  0  0  0
  -23.6233  -29.8282   20.1672 C   0  0  0  0  0  0
  -25.4135  -36.3076   24.0310 C   0  0  1  0  0  0
  -20.5881  -28.3697   23.1313 C   0  0  2  0  0  0
  -20.6800  -26.9442   22.5421 C   0  0  0  0  0  0
  -19.5766  -26.6396   21.5230 C   0  0  0  0  0  0
  -18.1939  -26.7935   22.1639 C   0  0  0  0  0  0
  -19.1542  -28.8864   23.2882 C   0  0  0  0  0  0
  -18.9451  -30.1463   23.8888 C   0  0  0  0  0  0
  -17.6446  -30.6590   24.0560 C   0  0  0  0  0  0
  -25.9075  -34.9445   23.5091 C   0  0  0  0  0  0
  -16.5344  -29.9072   23.6339 C   0  0  0  0  0  0
  -16.7278  -28.6493   23.0365 C   0  0  0  0  0  0
  -26.4521  -31.6594   25.0699 C   0  0  0  0  0  0
  -25.3733  -31.3721   26.1379 C   0  0  0  0  0  0
  -27.0368  -30.3012   24.6222 C   0  0  0  0  0  0
  -27.6074  -32.4351   25.7442 C   0  0  0  0  0  0
  -27.5596  -37.1801   24.8470 C   0  0  0  0  0  0
  -21.4173  -29.3042   22.3707 N   0  0  0  0  0  0
  -26.4320  -37.3771   23.9386 N   0  0  0  0  0  0
  -24.6897  -31.0512   22.1025 N   0  0  0  0  0  0
  -23.4176  -28.8197   23.3091 O   0  0  0  0  0  0
  -28.2379  -26.3880   19.8942 O   0  0  0  0  0  0
  -26.5635  -34.8921   22.4644 O   0  0  0  0  0  0
  -23.5429  -32.1445   23.7280 O   0  0  0  0  0  0
  -26.1920  -21.6983   19.0223 C   0  0  0  0  0  0
  -28.3757  -21.6554   18.0761 C   0  0  0  0  0  0
  -26.4383  -23.0181   19.5356 C   0  0  0  0  0  0
  -28.6311  -22.9760   18.6052 C   0  0  0  0  0  0
  -27.1521  -20.9389   18.2919 C   0  0  0  0  0  0
  -27.6759  -23.7046   19.3807 C   0  0  0  0  0  0
  -25.7307  -18.6238   18.4610 C   0  0  0  0  0  0
  -27.9537  -18.4492   17.4171 C   0  0  0  0  0  0
  -25.3082  -17.2575   17.7752 C   0  0  0  0  0  0
  -27.5152  -17.0392   16.7935 C   0  0  0  0  0  0
  -26.8010  -19.4804   17.6937 C   0  0  2  0  0  0
  -26.4285  -16.1813   17.5658 C   0  0  2  0  0  0
  -28.0147  -24.9684   20.3077 C   0  0  0  0  0  0
  -25.9455  -14.7438   16.8823 C   0  0  0  0  0  0
  -27.8980  -11.3241   18.4457 C   0  0  0  0  0  0
  -26.9421  -12.1820   17.3325 C   0  0  0  0  0  0
  -28.9166  -11.7351   19.6123 N   0  0  0  0  0  0
  -25.9715  -13.3737   17.6401 N   0  3  0  0  0  0
  -32.1030  -12.6373   19.2182 H   0  0  0  0  0  0
  -31.2406  -11.2103   18.9781 H   0  0  0  0  0  0
  -29.8513  -12.3459   17.0500 H   0  0  0  0  0  0
  -30.6962  -13.8014   17.3497 H   0  0  0  0  0  0
  -28.1076  -14.3184   17.4887 H   0  0  0  0  0  0
  -28.9661  -14.9488   18.5206 H   0  0  0  0  0  0
  -27.6734  -14.8754   20.3825 H   0  0  0  0  0  0
  -28.3245  -12.4307   22.0076 H   0  0  0  0  0  0
  -29.0698  -13.9356   22.1422 H   0  0  0  0  0  0
  -25.3578   -9.5951   22.4097 H   0  0  0  0  0  0
  -24.0668   -7.5093   22.7258 H   0  0  0  0  0  0
  -21.1096   -8.9241   19.9253 H   0  0  0  0  0  0
  -22.3913  -11.0052   19.6220 H   0  0  0  0  0  0
  -21.2313   -7.6349   23.9763 H   0  0  0  0  0  0
  -21.1431   -6.0604   25.8984 H   0  0  0  0  0  0
  -22.0593   -2.7827   23.2601 H   0  0  0  0  0  0
  -22.4666  -12.0288   22.5473 H   0  0  0  0  0  0
  -21.1296  -13.1153   22.3115 H   0  0  0  0  0  0
  -24.4612  -15.9105   20.6389 H   0  0  0  0  0  0
  -26.1152  -15.8622   20.3401 H   0  0  0  0  0  0
  -26.7129  -32.5377   23.0982 H   0  0  0  0  0  0
  -25.0083  -33.9723   25.0389 H   0  0  0  0  0  0
  -22.7104  -31.3037   21.4141 H   0  0  0  0  0  0
  -23.3782  -35.9586   23.3304 H   0  0  0  0  0  0
  -24.3566  -36.8899   22.2049 H   0  0  0  0  0  0
  -23.7239  -37.6467   23.6660 H   0  0  0  0  0  0
  -26.1101  -31.5313   20.6278 H   0  0  0  0  0  0
  -26.8380  -30.7903   22.0267 H   0  0  0  0  0  0
  -28.1149  -28.9050   21.1225 H   0  0  0  0  0  0
  -25.8982  -25.9385   18.9005 H   0  0  0  0  0  0
  -23.9031  -27.3340   19.0003 H   0  0  0  0  0  0
  -23.7452  -30.6055   19.4113 H   0  0  0  0  0  0
  -22.7355  -29.2674   19.8695 H   0  0  0  0  0  0
  -25.1323  -36.1907   25.0808 H   0  0  0  0  0  0
  -20.9944  -28.3259   24.1440 H   0  0  0  0  0  0
  -20.5765  -26.2290   23.3600 H   0  0  0  0  0  0
  -21.6660  -26.7522   22.1165 H   0  0  0  0  0  0
  -19.6939  -25.6302   21.1259 H   0  0  0  0  0  0
  -19.6699  -27.3209   20.6758 H   0  0  0  0  0  0
  -17.4226  -26.6693   21.4025 H   0  0  0  0  0  0
  -18.0321  -26.0076   22.9034 H   0  0  0  0  0  0
  -19.7925  -30.7296   24.2258 H   0  0  0  0  0  0
  -17.4997  -31.6273   24.5159 H   0  0  0  0  0  0
  -15.5340  -30.2955   23.7684 H   0  0  0  0  0  0
  -15.8676  -28.0786   22.7096 H   0  0  0  0  0  0
  -24.5912  -30.7090   25.7645 H   0  0  0  0  0  0
  -24.8905  -32.2877   26.4814 H   0  0  0  0  0  0
  -25.8012  -30.8845   27.0148 H   0  0  0  0  0  0
  -26.2944  -29.6705   24.1305 H   0  0  0  0  0  0
  -27.4085  -29.7320   25.4752 H   0  0  0  0  0  0
  -27.8815  -30.4244   23.9434 H   0  0  0  0  0  0
  -27.2711  -33.3669   26.2002 H   0  0  0  0  0  0
  -28.3880  -32.6917   25.0263 H   0  0  0  0  0  0
  -28.0763  -31.8505   26.5362 H   0  0  0  0  0  0
  -28.2620  -38.0096   24.7508 H   0  0  0  0  0  0
  -28.1099  -36.2623   24.6322 H   0  0  0  0  0  0
  -27.2290  -37.1463   25.8870 H   0  0  0  0  0  0
  -20.9358  -29.8696   21.6857 H   0  0  0  0  0  0
  -26.0197  -38.2847   24.1386 H   0  0  0  0  0  0
  -25.2260  -21.2705   19.2279 H   0  0  0  0  0  0
  -29.1652  -21.1835   17.5058 H   0  0  0  0  0  0
  -25.6611  -23.4876   20.1251 H   0  0  0  0  0  0
  -29.6146  -23.4080   18.4544 H   0  0  0  0  0  0
  -26.0917  -18.4267   19.4713 H   0  0  0  0  0  0
  -24.8176  -19.2041   18.5851 H   0  0  0  0  0  0
  -28.6830  -18.9105   16.7487 H   0  0  0  0  0  0
  -28.4980  -18.2810   18.3461 H   0  0  0  0  0  0
  -24.8901  -17.4903   16.7963 H   0  0  0  0  0  0
  -24.4842  -16.8191   18.3374 H   0  0  0  0  0  0
  -28.4156  -16.4384   16.6646 H   0  0  0  0  0  0
  -27.1493  -17.2188   15.7791 H   0  0  0  0  0  0
  -26.3694  -19.7049   16.7180 H   0  0  0  0  0  0
  -26.8460  -15.9634   18.5451 H   0  0  0  0  0  0
  -28.9382  -24.6998   20.8178 H   0  0  0  0  0  0
  -27.2637  -24.9910   21.0978 H   0  0  0  0  0  0
  -26.4595  -14.5997   15.9326 H   0  0  0  0  0  0
  -24.9044  -14.8783   16.5932 H   0  0  0  0  0  0
  -28.5245  -10.6906   17.8127 H   0  0  0  0  0  0
  -27.2537  -10.5702   18.8949 H   0  0  0  0  0  0
  -26.3048  -11.4317   16.8634 H   0  0  0  0  0  0
  -27.5709  -12.4765   16.4902 H   0  0  0  0  0  0
  -29.0068  -10.9530   20.2432 H   0  0  0  0  0  0
  -25.0558  -12.9794   17.4892 H   0  0  0  0  0  0
  -26.0210  -13.5638   18.6282 H   0  0  0  0  0  0
  1 25  1  0  0  0
  1 30  2  0  0  0
  1 87  1  0  0  0
  2  3  1  0  0  0
  2 25  1  0  0  0
  2 89  1  0  0  0
  2 90  1  0  0  0
  3  4  1  0  0  0
  3 91  1  0  0  0
  3 92  1  0  0  0
  4  5  1  0  0  0
  4 93  1  0  0  0
  4 94  1  0  0  0
  5  6  1  0  0  0
  5 26  1  0  0  0
  5 95  1  0  0  0
  6 25  1  0  0  0
  6 96  1  0  0  0
  6 97  1  0  0  0
  7  8  2  0  0  0
  7 26  1  0  0  0
  7 29  1  0  0  0
  8  9  1  0  0  0
  8 22  1  0  0  0
  9 10  1  0  0  0
  9 27  2  0  0  0
 10 11  2  0  0  0
 10 15  1  0  0  0
 11 12  1  0  0  0
 11 98  1  0  0  0
 12 13  2  0  0  0
 12 99  1  0  0  0
 13 14  1  0  0  0
 13 31  1  0  0  0
 14 15  2  0  0  0
 14100  1  0  0  0
 15101  1  0  0  0
 16 17  2  0  0  0
 16 21  1  0  0  0
 16 31  1  0  0  0
 17 18  1  0  0  0
 17102  1  0  0  0
 18 19  2  0  0  0
 18103  1  0  0  0
 19 20  1  0  0  0
 19 24  1  0  0  0
 20 21  2  0  0  0
 20104  1  0  0  0
 21 23  1  0  0  0
 22 28  1  0  0  0
 22 32  2  0  0  0
 26 27  1  0  0  0
 28105  1  0  0  0
 28106  1  0  0  0
 29107  1  0  0  0
 29108  1  0  0  0
 33 34  1  0  0  0
 33 66  1  0  0  0
 33 70  2  0  0  0
 34 36  1  0  0  0
 34 59  1  0  0  0
 34109  1  0  0  0
 35 44  2  0  0  0
 35 45  1  0  0  0
 35 68  1  0  0  0
 36 56  1  0  0  0
 36110  1  0  0  0
 37 39  1  0  0  0
 37 47  1  0  0  0
 37 66  1  0  0  0
 37111  1  0  0  0
 38 43  2  0  0  0
 38 46  1  0  0  0
 38 47  1  0  0  0
 39 64  1  0  0  0
 39 67  2  0  0  0
 40 52  1  0  0  0
 40 53  2  0  0  0
 40 58  1  0  0  0
 41112  1  0  0  0
 41113  1  0  0  0
 41114  1  0  0  0
 41 48  1  0  0  0
 42 43  1  0  0  0
 42 66  1  0  0  0
 42115  1  0  0  0
 42116  1  0  0  0
 43 44  1  0  0  0
 44117  1  0  0  0
 45 46  2  0  0  0
 45118  1  0  0  0
 46119  1  0  0  0
 47120  1  0  0  0
 47121  1  0  0  0
 48 56  1  0  0  0
 48 65  1  0  0  0
 48122  1  0  0  0
 49 50  1  0  0  0
 49 53  1  0  0  0
 49 64  1  0  0  0
 49123  1  0  0  0
 50 51  1  0  0  0
 50124  1  0  0  0
 50125  1  0  0  0
 51 52  1  0  0  0
 51126  1  0  0  0
 51127  1  0  0  0
 52128  1  0  0  0
 52129  1  0  0  0
 53 54  1  0  0  0
 54 55  2  0  0  0
 54130  1  0  0  0
 55 57  1  0  0  0
 55131  1  0  0  0
 56 69  2  0  0  0
 57 58  2  0  0  0
 57132  1  0  0  0
 58133  1  0  0  0
 59 60  1  0  0  0
 59 61  1  0  0  0
 59 62  1  0  0  0
 60134  1  0  0  0
 60135  1  0  0  0
 60136  1  0  0  0
 61137  1  0  0  0
 61138  1  0  0  0
 61139  1  0  0  0
 62140  1  0  0  0
 62141  1  0  0  0
 62142  1  0  0  0
 63 65  1  0  0  0
 63143  1  0  0  0
 63144  1  0  0  0
 63145  1  0  0  0
 64146  1  0  0  0
 65147  1  0  0  0
 68 83  1  0  0  0
 71 73  2  0  0  0
 71 75  1  0  0  0
 71148  1  0  0  0
 72 74  1  0  0  0
 72 75  2  0  0  0
 72149  1  0  0  0
 73 76  1  0  0  0
 73150  1  0  0  0
 74 76  2  0  0  0
 74151  1  0  0  0
 75 81  1  0  0  0
 76 83  1  0  0  0
 77 79  1  0  0  0
 77 81  1  0  0  0
 77152  1  0  0  0
 77153  1  0  0  0
 78 80  1  0  0  0
 78 81  1  0  0  0
 78154  1  0  0  0
 78155  1  0  0  0
 79 82  1  0  0  0
 79156  1  0  0  0
 79157  1  0  0  0
 80 82  1  0  0  0
 80158  1  0  0  0
 80159  1  0  0  0
 81160  1  0  0  0
 82 84  1  0  0  0
 82161  1  0  0  0
 83162  1  0  0  0
 83163  1  0  0  0
 84 88  1  0  0  0
 84164  1  0  0  0
 84165  1  0  0  0
 85 86  1  0  0  0
 85 87  1  0  0  0
 85166  1  0  0  0
 85167  1  0  0  0
 86 88  1  0  0  0
 86168  1  0  0  0
 86169  1  0  0  0
 87170  1  0  0  0
 88171  1  0  0  0
 88172  1  0  0  0
M  CHG  1  88   1
M  ISO  4   1 100  68 101  83 101  87 100
M  END
> <chiral flag>
0

> <version>
0

> <s_m_source_file>
/data/baiqing/PycharmProjects/Reinvent-master-3.2/result/LINK_invent/BTK/process_docking_weight1_custom_sum_contain_oxygen_bond_distance_aromatic_linkinvent_7_9_3/rearranged_h_0133.sdf

> <i_m_source_file_index>
58

> <r_mmod_Potential_Energy-OPLS-2005>
4523.16552734375

> <r_mmod_Stretch_Energy-OPLS-2005>
1600.32287597656

> <r_mmod_Bend_Energy-OPLS-2005>
1022.40582275391

> <r_mmod_Torsional_Energy-OPLS-2005>
409.474182128906

> <r_mmod_Improper_Torsional_Energy-OPLS-2005>
5.38794136047363

> <r_mmod_Van_der_Waal_Energy-OPLS-2005>
1154.31079101562

> <r_mmod_Electrostatic_Energy-OPLS-2005>
-333.806091308594

> <r_mmod_Solvation_Energy-OPLS-2005>
-435.471649169922

> <b_mmod_Minimization_Converged-OPLS-2005>
0

> <r_mmod_RMS_Derivative-OPLS-2005>
7.34662008285522

$$$$
59
                    3D
 Structure written by MMmdl.
149157  0  0  1  0            999 V2000
  -30.4287  -15.2092   20.3899 C   0  0  0  0  0  0
  -30.4409  -12.7705   19.5221 C   0  0  0  0  0  0
  -29.5356  -12.5661   18.2813 C   0  0  0  0  0  0
  -28.0773  -12.3060   18.7027 C   0  0  0  0  0  0
  -27.6138  -13.2663   19.8257 C   0  0  2  0  0  0
  -28.6471  -13.3992   20.9622 C   0  0  0  0  0  0
  -25.2396  -13.8230   20.5727 C   0  0  0  0  0  0
  -24.1744  -13.0425   20.9265 C   0  0  0  0  0  0
  -24.6400  -11.6925   20.8770 C   0  0  0  0  0  0
  -23.9093  -10.4290   21.0414 C   0  0  0  0  0  0
  -24.3638   -9.4204   21.9191 C   0  0  0  0  0  0
  -23.6309   -8.2242   22.0766 C   0  0  0  0  0  0
  -22.4290   -8.0289   21.3550 C   0  0  0  0  0  0
  -21.9922   -9.0269   20.4665 C   0  0  0  0  0  0
  -22.7263  -10.2138   20.3075 C   0  0  0  0  0  0
  -21.6856   -6.0741   22.5281 C   0  0  0  0  0  0
  -21.4016   -6.5641   23.8222 C   0  0  0  0  0  0
  -21.3665   -5.6786   24.9176 C   0  0  0  0  0  0
  -21.6035   -4.3049   24.7214 C   0  0  0  0  0  0
  -21.8822   -3.8156   23.4343 C   0  0  0  0  0  0
  -21.9193   -4.6971   22.3400 C   0  0  0  0  0  0
  -22.7773  -13.5201   21.1899 C   0  0  0  0  0  0
  -22.1667   -4.2162   21.0974 F   0  0  0  0  0  0
  -21.5630   -3.4538   25.7738 F   0  0  0  0  0  0
  -29.8816  -13.9017   20.3429 N   0  0  0  0  0  0
  -26.2814  -12.9485   20.3198 N   0  0  0  0  0  0
  -25.9325  -11.6614   20.5716 N   0  0  0  0  0  0
  -22.0409  -12.8199   22.0456 N   0  0  0  0  0  0
  -25.4042  -15.1962   20.4189 N   0  0  0  0  0  0
  -31.6483  -15.2425   20.1782 O   0  0  0  0  0  0
  -21.6646   -6.8889   21.4249 O   0  0  0  0  0  0
  -22.3456  -14.5487   20.6721 O   0  0  0  0  0  0
  -24.6590  -31.8234   23.1700 C   0  0  0  0  0  0
  -25.9285  -32.4575   23.8163 C   0  0  1  0  0  0
  -27.2098  -26.9396   20.1900 C   0  0  0  0  0  0
  -25.5969  -33.8401   24.2068 N   0  0  0  0  0  0
  -23.4724  -30.4364   21.5176 C   0  0  2  0  0  0
  -24.9224  -28.8168   20.1143 C   0  0  0  0  0  0
  -22.7642  -29.4430   22.4755 C   0  0  0  0  0  0
  -18.0318  -28.1379   22.8469 C   0  0  0  0  0  0
  -24.1499  -36.7204   23.2650 C   0  0  0  0  0  0
  -26.0379  -30.6307   21.4000 C   0  0  0  0  0  0
  -26.1010  -29.2202   20.7506 C   0  0  0  0  0  0
  -27.2376  -28.3013   20.7637 C   0  0  0  0  0  0
  -26.0065  -26.6818   19.4986 C   0  0  0  0  0  0
  -24.8980  -27.5677   19.4699 C   0  0  0  0  0  0
  -23.7117  -29.7497   20.1430 C   0  0  0  0  0  0
  -25.4140  -36.2954   24.0298 C   0  0  1  0  0  0
  -20.5939  -28.3729   23.1179 C   0  0  2  0  0  0
  -20.6793  -26.9408   22.5394 C   0  0  0  0  0  0
  -19.5771  -26.6350   21.5203 C   0  0  0  0  0  0
  -18.1951  -26.7914   22.1608 C   0  0  0  0  0  0
  -19.1579  -28.8882   23.2809 C   0  0  0  0  0  0
  -18.9485  -30.1478   23.8837 C   0  0  0  0  0  0
  -17.6474  -30.6574   24.0555 C   0  0  0  0  0  0
  -25.9097  -34.9346   23.4997 C   0  0  0  0  0  0
  -16.5368  -29.9062   23.6335 C   0  0  0  0  0  0
  -16.7301  -28.6483   23.0354 C   0  0  0  0  0  0
  -26.4552  -31.6518   25.0697 C   0  0  0  0  0  0
  -25.3699  -31.3761   26.1362 C   0  0  0  0  0  0
  -27.0459  -30.2892   24.6427 C   0  0  0  0  0  0
  -27.6031  -32.4335   25.7487 C   0  0  0  0  0  0
  -27.5562  -37.1755   24.8461 C   0  0  0  0  0  0
  -21.4312  -29.3019   22.3516 N   0  0  0  0  0  0
  -26.4270  -37.3692   23.9397 N   0  0  0  0  0  0
  -24.7442  -30.9929   22.0822 N   0  0  0  0  0  0
  -23.4216  -28.8006   23.2986 O   0  0  0  0  0  0
  -28.2759  -25.9058   20.2243 O   0  0  0  0  0  0
  -26.5709  -34.8874   22.4594 O   0  0  0  0  0  0
  -23.5666  -32.1182   23.6811 O   0  0  0  0  0  0
  -29.7548  -22.1439   20.4651 C   0  0  0  0  0  0
  -29.5921  -23.6170   20.4644 C   0  0  0  0  0  0
  -27.5074  -22.0258   20.0617 C   0  0  0  0  0  0
  -28.6997  -21.1751   20.2460 C   0  0  0  0  0  0
  -28.3640  -24.3686   20.2516 C   0  0  0  0  0  0
  -29.8501  -18.0944   20.5426 C   0  0  0  0  0  0
  -28.7174  -19.4162   20.1565 C   0  0  2  0  0  0
  -27.3384  -23.4496   20.0530 N   0  0  0  0  0  0
  -29.6258  -16.4448   20.4735 N   0  0  0  0  0  0
  -28.1978  -19.0392   18.8342 N   0  3  0  0  0  0
  -31.4599  -12.9807   19.1962 H   0  0  0  0  0  0
  -30.5039  -11.8549   20.1125 H   0  0  0  0  0  0
  -29.9023  -11.7385   17.6745 H   0  0  0  0  0  0
  -29.5810  -13.4527   17.6483 H   0  0  0  0  0  0
  -28.0146  -11.2766   19.0575 H   0  0  0  0  0  0
  -27.4132  -12.3733   17.8392 H   0  0  0  0  0  0
  -27.5402  -14.2430   19.3486 H   0  0  0  0  0  0
  -28.8054  -12.4468   21.4701 H   0  0  0  0  0  0
  -28.2952  -14.0998   21.7201 H   0  0  0  0  0  0
  -25.2792   -9.5667   22.4765 H   0  0  0  0  0  0
  -24.0022   -7.4617   22.7471 H   0  0  0  0  0  0
  -21.0854   -8.8799   19.8958 H   0  0  0  0  0  0
  -22.3737  -10.9688   19.6188 H   0  0  0  0  0  0
  -21.2011   -7.6155   23.9724 H   0  0  0  0  0  0
  -21.1482   -6.0519   25.9070 H   0  0  0  0  0  0
  -22.0591   -2.7623   23.2839 H   0  0  0  0  0  0
  -22.4043  -11.9894   22.4885 H   0  0  0  0  0  0
  -21.1020  -13.1233   22.2622 H   0  0  0  0  0  0
  -24.6280  -15.8418   20.5232 H   0  0  0  0  0  0
  -26.2335  -15.6318   20.0421 H   0  0  0  0  0  0
  -26.7365  -32.5118   23.0874 H   0  0  0  0  0  0
  -25.0092  -33.9463   25.0208 H   0  0  0  0  0  0
  -22.7860  -31.2669   21.3487 H   0  0  0  0  0  0
  -23.3753  -35.9531   23.3282 H   0  0  0  0  0  0
  -24.3573  -36.8881   22.2064 H   0  0  0  0  0  0
  -23.7258  -37.6397   23.6725 H   0  0  0  0  0  0
  -26.2204  -31.3705   20.6193 H   0  0  0  0  0  0
  -26.8998  -30.6846   22.0536 H   0  0  0  0  0  0
  -28.1398  -28.6109   21.2719 H   0  0  0  0  0  0
  -25.9009  -25.7281   19.0013 H   0  0  0  0  0  0
  -24.0032  -27.2577   18.9486 H   0  0  0  0  0  0
  -23.8710  -30.5198   19.3867 H   0  0  0  0  0  0
  -22.8207  -29.2065   19.8226 H   0  0  0  0  0  0
  -25.1336  -36.1747   25.0788 H   0  0  0  0  0  0
  -21.0033  -28.3324   24.1295 H   0  0  0  0  0  0
  -20.5649  -26.2337   23.3626 H   0  0  0  0  0  0
  -21.6659  -26.7349   22.1214 H   0  0  0  0  0  0
  -19.6924  -25.6248   21.1264 H   0  0  0  0  0  0
  -19.6725  -27.3130   20.6723 H   0  0  0  0  0  0
  -17.4213  -26.6654   21.4012 H   0  0  0  0  0  0
  -18.0364  -26.0051   22.9016 H   0  0  0  0  0  0
  -19.7963  -30.7329   24.2145 H   0  0  0  0  0  0
  -17.5021  -31.6246   24.5171 H   0  0  0  0  0  0
  -15.5369  -30.2948   23.7681 H   0  0  0  0  0  0
  -15.8696  -28.0795   22.7077 H   0  0  0  0  0  0
  -24.5860  -30.7138   25.7663 H   0  0  0  0  0  0
  -24.8927  -32.2968   26.4724 H   0  0  0  0  0  0
  -25.7941  -30.8954   27.0178 H   0  0  0  0  0  0
  -26.3134  -29.6548   24.1426 H   0  0  0  0  0  0
  -27.3988  -29.7269   25.5073 H   0  0  0  0  0  0
  -27.9066  -30.4076   23.9844 H   0  0  0  0  0  0
  -27.2578  -33.3638   26.1979 H   0  0  0  0  0  0
  -28.3876  -32.6875   25.0361 H   0  0  0  0  0  0
  -28.0660  -31.8541   26.5474 H   0  0  0  0  0  0
  -28.2551  -38.0078   24.7499 H   0  0  0  0  0  0
  -28.1082  -36.2594   24.6294 H   0  0  0  0  0  0
  -27.2273  -37.1411   25.8865 H   0  0  0  0  0  0
  -20.9535  -29.8741   21.6685 H   0  0  0  0  0  0
  -26.0114  -38.2738   24.1432 H   0  0  0  0  0  0
  -30.7463  -21.7550   20.6405 H   0  0  0  0  0  0
  -30.4830  -24.2050   20.6372 H   0  0  0  0  0  0
  -26.5751  -21.5124   19.8705 H   0  0  0  0  0  0
  -30.1717  -18.2776   21.5681 H   0  0  0  0  0  0
  -30.7443  -18.2738   19.9446 H   0  0  0  0  0  0
  -27.8924  -19.1976   20.8371 H   0  0  0  0  0  0
  -28.6564  -16.2005   20.6098 H   0  0  0  0  0  0
  -28.8575  -19.2814   18.1180 H   0  0  0  0  0  0
  -27.3146  -19.4698   18.6304 H   0  0  0  0  0  0
  -28.0656  -18.0445   18.8080 H   0  0  0  0  0  0
  1 25  1  0  0  0
  1 30  2  0  0  0
  1 79  1  0  0  0
  2  3  1  0  0  0
  2 25  1  0  0  0
  2 81  1  0  0  0
  2 82  1  0  0  0
  3  4  1  0  0  0
  3 83  1  0  0  0
  3 84  1  0  0  0
  4  5  1  0  0  0
  4 85  1  0  0  0
  4 86  1  0  0  0
  5  6  1  0  0  0
  5 26  1  0  0  0
  5 87  1  0  0  0
  6 25  1  0  0  0
  6 88  1  0  0  0
  6 89  1  0  0  0
  7  8  2  0  0  0
  7 26  1  0  0  0
  7 29  1  0  0  0
  8  9  1  0  0  0
  8 22  1  0  0  0
  9 10  1  0  0  0
  9 27  2  0  0  0
 10 11  2  0  0  0
 10 15  1  0  0  0
 11 12  1  0  0  0
 11 90  1  0  0  0
 12 13  2  0  0  0
 12 91  1  0  0  0
 13 14  1  0  0  0
 13 31  1  0  0  0
 14 15  2  0  0  0
 14 92  1  0  0  0
 15 93  1  0  0  0
 16 17  2  0  0  0
 16 21  1  0  0  0
 16 31  1  0  0  0
 17 18  1  0  0  0
 17 94  1  0  0  0
 18 19  2  0  0  0
 18 95  1  0  0  0
 19 20  1  0  0  0
 19 24  1  0  0  0
 20 21  2  0  0  0
 20 96  1  0  0  0
 21 23  1  0  0  0
 22 28  1  0  0  0
 22 32  2  0  0  0
 26 27  1  0  0  0
 28 97  1  0  0  0
 28 98  1  0  0  0
 29 99  1  0  0  0
 29100  1  0  0  0
 33 34  1  0  0  0
 33 66  1  0  0  0
 33 70  2  0  0  0
 34 36  1  0  0  0
 34 59  1  0  0  0
 34101  1  0  0  0
 35 44  2  0  0  0
 35 45  1  0  0  0
 35 68  1  0  0  0
 36 56  1  0  0  0
 36102  1  0  0  0
 37 39  1  0  0  0
 37 47  1  0  0  0
 37 66  1  0  0  0
 37103  1  0  0  0
 38 43  2  0  0  0
 38 46  1  0  0  0
 38 47  1  0  0  0
 39 64  1  0  0  0
 39 67  2  0  0  0
 40 52  1  0  0  0
 40 53  2  0  0  0
 40 58  1  0  0  0
 41104  1  0  0  0
 41105  1  0  0  0
 41106  1  0  0  0
 41 48  1  0  0  0
 42 43  1  0  0  0
 42 66  1  0  0  0
 42107  1  0  0  0
 42108  1  0  0  0
 43 44  1  0  0  0
 44109  1  0  0  0
 45 46  2  0  0  0
 45110  1  0  0  0
 46111  1  0  0  0
 47112  1  0  0  0
 47113  1  0  0  0
 48 56  1  0  0  0
 48 65  1  0  0  0
 48114  1  0  0  0
 49 50  1  0  0  0
 49 53  1  0  0  0
 49 64  1  0  0  0
 49115  1  0  0  0
 50 51  1  0  0  0
 50116  1  0  0  0
 50117  1  0  0  0
 51 52  1  0  0  0
 51118  1  0  0  0
 51119  1  0  0  0
 52120  1  0  0  0
 52121  1  0  0  0
 53 54  1  0  0  0
 54 55  2  0  0  0
 54122  1  0  0  0
 55 57  1  0  0  0
 55123  1  0  0  0
 56 69  2  0  0  0
 57 58  2  0  0  0
 57124  1  0  0  0
 58125  1  0  0  0
 59 60  1  0  0  0
 59 61  1  0  0  0
 59 62  1  0  0  0
 60126  1  0  0  0
 60127  1  0  0  0
 60128  1  0  0  0
 61129  1  0  0  0
 61130  1  0  0  0
 61131  1  0  0  0
 62132  1  0  0  0
 62133  1  0  0  0
 62134  1  0  0  0
 63 65  1  0  0  0
 63135  1  0  0  0
 63136  1  0  0  0
 63137  1  0  0  0
 64138  1  0  0  0
 65139  1  0  0  0
 68 75  1  0  0  0
 71 72  2  0  0  0
 71 74  1  0  0  0
 71140  1  0  0  0
 72 75  1  0  0  0
 72141  1  0  0  0
 73 74  2  0  0  0
 73 78  1  0  0  0
 73142  1  0  0  0
 74 77  1  0  0  0
 75 78  2  0  0  0
 76 77  1  0  0  0
 76 79  1  0  0  0
 76143  1  0  0  0
 76144  1  0  0  0
 77 80  1  0  0  0
 77145  1  0  0  0
 79146  1  0  0  0
 80147  1  0  0  0
 80148  1  0  0  0
 80149  1  0  0  0
M  CHG  1  80   1
M  ISO  4   1 100  68 101  75 101  79 100
M  END
> <chiral flag>
0

> <version>
0

> <s_m_source_file>
/data/baiqing/PycharmProjects/Reinvent-master-3.2/result/LINK_invent/BTK/process_docking_weight1_custom_sum_contain_oxygen_bond_distance_aromatic_linkinvent_7_9_3/rearranged_h_0133.sdf

> <i_m_source_file_index>
59

> <r_mmod_Potential_Energy-OPLS-2005>
655.76416015625

> <r_mmod_Stretch_Energy-OPLS-2005>
481.867279052734

> <r_mmod_Bend_Energy-OPLS-2005>
432.458465576172

> <r_mmod_Torsional_Energy-OPLS-2005>
228.162811279297

> <r_mmod_Improper_Torsional_Energy-OPLS-2005>
4.23950433731079

> <r_mmod_Van_der_Waal_Energy-OPLS-2005>
126.993804931641

> <r_mmod_Electrostatic_Energy-OPLS-2005>
-472.172485351562

> <r_mmod_Solvation_Energy-OPLS-2005>
-552.441040039062

> <b_mmod_Minimization_Converged-OPLS-2005>
0

> <r_mmod_RMS_Derivative-OPLS-2005>
3.14939427375793

$$$$
60
                    3D
 Structure written by MMmdl.
167176  0  0  1  0            999 V2000
  -30.7183  -14.4053   20.5529 C   0  0  0  0  0  0
  -30.4135  -12.2552   19.4270 C   0  0  0  0  0  0
  -29.4984  -12.4919   18.2096 C   0  0  0  0  0  0
  -28.0152  -12.3668   18.6118 C   0  0  0  0  0  0
  -27.6615  -13.1984   19.8748 C   0  0  2  0  0  0
  -28.6979  -12.9703   20.9993 C   0  0  0  0  0  0
  -25.2575  -13.8143   20.5646 C   0  0  0  0  0  0
  -24.1835  -13.0434   20.9179 C   0  0  0  0  0  0
  -24.6390  -11.6898   20.8749 C   0  0  0  0  0  0
  -23.9057  -10.4287   21.0419 C   0  0  0  0  0  0
  -24.3609   -9.4197   21.9189 C   0  0  0  0  0  0
  -23.6277   -8.2242   22.0760 C   0  0  0  0  0  0
  -22.4257   -8.0297   21.3558 C   0  0  0  0  0  0
  -21.9896   -9.0265   20.4657 C   0  0  0  0  0  0
  -22.7238  -10.2132   20.3058 C   0  0  0  0  0  0
  -21.6856   -6.0731   22.5267 C   0  0  0  0  0  0
  -21.4024   -6.5624   23.8203 C   0  0  0  0  0  0
  -21.3655   -5.6776   24.9162 C   0  0  0  0  0  0
  -21.6032   -4.3041   24.7213 C   0  0  0  0  0  0
  -21.8823   -3.8139   23.4338 C   0  0  0  0  0  0
  -21.9191   -4.6957   22.3394 C   0  0  0  0  0  0
  -22.7865  -13.5250   21.1839 C   0  0  0  0  0  0
  -22.1658   -4.2148   21.0972 F   0  0  0  0  0  0
  -21.5620   -3.4517   25.7720 F   0  0  0  0  0  0
  -30.0388  -13.2363   20.4528 N   0  0  0  0  0  0
  -26.3008  -12.9299   20.3332 N   0  0  0  0  0  0
  -25.9305  -11.6468   20.5753 N   0  0  0  0  0  0
  -22.0498  -12.8257   22.0399 N   0  0  0  0  0  0
  -25.4272  -15.1851   20.3978 N   0  0  0  0  0  0
  -31.8807  -14.5341   20.1544 O   0  0  0  0  0  0
  -21.6644   -6.8885   21.4236 O   0  0  0  0  0  0
  -22.3550  -14.5552   20.6670 O   0  0  0  0  0  0
  -24.6084  -31.8739   23.2164 C   0  0  0  0  0  0
  -25.8992  -32.4853   23.8440 C   0  0  1  0  0  0
  -27.2371  -27.4806   20.0933 C   0  0  0  0  0  0
  -25.5862  -33.8655   24.2365 N   0  0  0  0  0  0
  -23.3916  -30.4971   21.5570 C   0  0  2  0  0  0
  -24.8392  -28.9751   20.1135 C   0  0  0  0  0  0
  -22.7364  -29.4672   22.5034 C   0  0  0  0  0  0
  -18.0257  -28.1346   22.8482 C   0  0  0  0  0  0
  -24.1481  -36.7341   23.2629 C   0  0  0  0  0  0
  -25.9160  -30.8519   21.3666 C   0  0  0  0  0  0
  -25.9921  -29.4889   20.7172 C   0  0  0  0  0  0
  -27.1858  -28.7424   20.7175 C   0  0  0  0  0  0
  -26.0663  -26.9784   19.4726 C   0  0  0  0  0  0
  -24.8692  -27.7171   19.4889 C   0  0  0  0  0  0
  -23.5963  -29.8324   20.1691 C   0  0  0  0  0  0
  -25.4100  -36.3138   24.0327 C   0  0  1  0  0  0
  -20.5839  -28.3638   23.1334 C   0  0  2  0  0  0
  -20.6761  -26.9379   22.5419 C   0  0  0  0  0  0
  -19.5746  -26.6365   21.5204 C   0  0  0  0  0  0
  -18.1922  -26.7884   22.1604 C   0  0  0  0  0  0
  -19.1502  -28.8807   23.2903 C   0  0  0  0  0  0
  -18.9431  -30.1409   23.8915 C   0  0  0  0  0  0
  -17.6440  -30.6563   24.0561 C   0  0  0  0  0  0
  -25.9015  -34.9485   23.5157 C   0  0  0  0  0  0
  -16.5332  -29.9061   23.6309 C   0  0  0  0  0  0
  -16.7248  -28.6473   23.0338 C   0  0  0  0  0  0
  -26.4447  -31.6595   25.0728 C   0  0  0  0  0  0
  -25.3727  -31.3669   26.1484 C   0  0  0  0  0  0
  -27.0244  -30.3031   24.6057 C   0  0  0  0  0  0
  -27.6066  -32.4279   25.7463 C   0  0  0  0  0  0
  -27.5580  -37.1825   24.8447 C   0  0  0  0  0  0
  -21.4102  -29.3008   22.3744 N   0  0  0  0  0  0
  -26.4298  -37.3814   23.9385 N   0  0  0  0  0  0
  -24.6567  -31.0867   22.1046 N   0  0  0  0  0  0
  -23.4151  -28.8225   23.3073 O   0  0  0  0  0  0
  -28.4424  -26.8149   20.1492 O   0  0  0  0  0  0
  -26.5606  -34.8919   22.4722 O   0  0  0  0  0  0
  -23.5298  -32.1489   23.7574 O   0  0  0  0  0  0
  -30.1853  -24.6489   17.7703 C   0  0  0  0  0  0
  -29.8556  -25.7912   18.5119 C   0  0  0  0  0  0
  -28.9277  -17.0923   19.5114 C   0  0  0  0  0  0
  -29.3756  -23.5000   17.8900 C   0  0  0  0  0  0
  -29.0293  -18.1737   18.6158 C   0  0  0  0  0  0
  -30.2803  -18.8316   18.4929 C   0  0  0  0  0  0
  -28.2609  -23.5541   18.7625 C   0  0  0  0  0  0
  -31.3188  -18.4380   19.3719 C   0  0  0  0  0  0
  -30.0554  -16.6845   20.2478 C   0  0  0  0  0  0
  -28.7415  -25.7399   19.3595 C   0  0  0  0  0  0
  -27.8038  -18.5447   17.7938 C   0  0  0  0  0  0
  -27.2961  -22.3953   18.9614 C   0  0  0  0  0  0
  -32.6692  -19.1315   19.4103 C   0  0  0  0  0  0
  -29.7404  -22.2479   17.1051 C   0  0  0  0  0  0
  -30.5207  -19.9073   17.4317 C   0  0  0  0  0  0
  -31.1943  -17.4108   20.2317 N   0  0  0  0  0  0
  -27.9856  -24.6350   19.5142 N   0  0  0  0  0  0
  -29.9683  -15.4534   20.9280 N   0  0  0  0  0  0
  -30.3404  -21.2497   18.0084 N   0  3  0  0  0  0
  -31.4618  -12.3281   19.1320 H   0  0  0  0  0  0
  -30.2834  -11.2443   19.8177 H   0  0  0  0  0  0
  -29.7337  -11.7784   17.4189 H   0  0  0  0  0  0
  -29.6877  -13.4826   17.7927 H   0  0  0  0  0  0
  -27.8082  -11.3109   18.7926 H   0  0  0  0  0  0
  -27.3778  -12.6624   17.7791 H   0  0  0  0  0  0
  -27.7086  -14.2452   19.5802 H   0  0  0  0  0  0
  -28.6503  -11.9391   21.3516 H   0  0  0  0  0  0
  -28.4718  -13.5847   21.8727 H   0  0  0  0  0  0
  -25.2751   -9.5648   22.4765 H   0  0  0  0  0  0
  -23.9976   -7.4613   22.7461 H   0  0  0  0  0  0
  -21.0829   -8.8780   19.8958 H   0  0  0  0  0  0
  -22.3708  -10.9663   19.6158 H   0  0  0  0  0  0
  -21.2034   -7.6128   23.9707 H   0  0  0  0  0  0
  -21.1471   -6.0507   25.9063 H   0  0  0  0  0  0
  -22.0614   -2.7601   23.2843 H   0  0  0  0  0  0
  -22.4076  -11.9898   22.4774 H   0  0  0  0  0  0
  -21.1124  -13.1311   22.2611 H   0  0  0  0  0  0
  -24.6514  -15.8333   20.4792 H   0  0  0  0  0  0
  -26.2460  -15.6060   19.9835 H   0  0  0  0  0  0
  -26.7058  -32.5592   23.1211 H   0  0  0  0  0  0
  -24.9959  -33.9850   25.0476 H   0  0  0  0  0  0
  -22.6783  -31.3131   21.4230 H   0  0  0  0  0  0
  -23.3725  -35.9694   23.3320 H   0  0  0  0  0  0
  -24.3587  -36.8941   22.2039 H   0  0  0  0  0  0
  -23.7253  -37.6551   23.6653 H   0  0  0  0  0  0
  -26.0192  -31.6171   20.5969 H   0  0  0  0  0  0
  -26.8083  -30.9089   21.9778 H   0  0  0  0  0  0
  -28.0744  -29.1312   21.1979 H   0  0  0  0  0  0
  -26.0512  -26.0254   18.9686 H   0  0  0  0  0  0
  -23.9837  -27.3177   19.0135 H   0  0  0  0  0  0
  -23.6959  -30.6076   19.4096 H   0  0  0  0  0  0
  -22.7248  -29.2446   19.8777 H   0  0  0  0  0  0
  -25.1275  -36.2024   25.0824 H   0  0  0  0  0  0
  -20.9936  -28.3199   24.1454 H   0  0  0  0  0  0
  -20.5670  -26.2233   23.3594 H   0  0  0  0  0  0
  -21.6644  -26.7452   22.1219 H   0  0  0  0  0  0
  -19.6927  -25.6287   21.1209 H   0  0  0  0  0  0
  -19.6679  -27.3207   20.6755 H   0  0  0  0  0  0
  -17.4194  -26.6623   21.4004 H   0  0  0  0  0  0
  -18.0331  -26.0023   22.8991 H   0  0  0  0  0  0
  -19.7917  -30.7208   24.2313 H   0  0  0  0  0  0
  -17.4995  -31.6247   24.5152 H   0  0  0  0  0  0
  -15.5331  -30.2968   23.7628 H   0  0  0  0  0  0
  -15.8643  -28.0797   22.7051 H   0  0  0  0  0  0
  -24.5858  -30.7102   25.7771 H   0  0  0  0  0  0
  -24.8981  -32.2813   26.5039 H   0  0  0  0  0  0
  -25.8064  -30.8706   27.0172 H   0  0  0  0  0  0
  -26.2760  -29.6814   24.1132 H   0  0  0  0  0  0
  -27.4024  -29.7241   25.4492 H   0  0  0  0  0  0
  -27.8602  -30.4327   23.9179 H   0  0  0  0  0  0
  -27.2732  -33.3554   26.2129 H   0  0  0  0  0  0
  -28.3819  -32.6874   25.0239 H   0  0  0  0  0  0
  -28.0806  -31.8342   26.5295 H   0  0  0  0  0  0
  -28.2607  -38.0117   24.7519 H   0  0  0  0  0  0
  -28.1075  -36.2655   24.6256 H   0  0  0  0  0  0
  -27.2312  -37.1456   25.8856 H   0  0  0  0  0  0
  -20.9257  -29.8695   21.6950 H   0  0  0  0  0  0
  -26.0182  -38.2891   24.1395 H   0  0  0  0  0  0
  -31.0542  -24.6606   17.1254 H   0  0  0  0  0  0
  -30.4569  -26.6873   18.4504 H   0  0  0  0  0  0
  -28.0014  -16.5395   19.5635 H   0  0  0  0  0  0
  -26.8958  -18.4114   18.3825 H   0  0  0  0  0  0
  -27.7287  -17.9030   16.9155 H   0  0  0  0  0  0
  -27.8097  -19.5824   17.4653 H   0  0  0  0  0  0
  -27.6975  -21.6771   19.6759 H   0  0  0  0  0  0
  -27.0737  -21.8851   18.0262 H   0  0  0  0  0  0
  -26.3436  -22.7497   19.3580 H   0  0  0  0  0  0
  -33.2377  -18.9199   18.5054 H   0  0  0  0  0  0
  -33.2634  -18.7970   20.2621 H   0  0  0  0  0  0
  -32.5515  -20.2098   19.5061 H   0  0  0  0  0  0
  -30.4564  -22.4864   16.3158 H   0  0  0  0  0  0
  -28.8541  -21.8575   16.6034 H   0  0  0  0  0  0
  -29.8492  -19.7488   16.5869 H   0  0  0  0  0  0
  -31.5197  -19.8182   17.0047 H   0  0  0  0  0  0
  -29.0488  -15.1973   21.2476 H   0  0  0  0  0  0
  -29.7581  -21.1512   18.8206 H   0  0  0  0  0  0
  -31.2351  -21.5977   18.3133 H   0  0  0  0  0  0
  1 25  1  0  0  0
  1 30  2  0  0  0
  1 88  1  0  0  0
  2  3  1  0  0  0
  2 25  1  0  0  0
  2 90  1  0  0  0
  2 91  1  0  0  0
  3  4  1  0  0  0
  3 92  1  0  0  0
  3 93  1  0  0  0
  4  5  1  0  0  0
  4 94  1  0  0  0
  4 95  1  0  0  0
  5  6  1  0  0  0
  5 26  1  0  0  0
  5 96  1  0  0  0
  6 25  1  0  0  0
  6 97  1  0  0  0
  6 98  1  0  0  0
  7  8  2  0  0  0
  7 26  1  0  0  0
  7 29  1  0  0  0
  8  9  1  0  0  0
  8 22  1  0  0  0
  9 10  1  0  0  0
  9 27  2  0  0  0
 10 11  2  0  0  0
 10 15  1  0  0  0
 11 12  1  0  0  0
 11 99  1  0  0  0
 12 13  2  0  0  0
 12100  1  0  0  0
 13 14  1  0  0  0
 13 31  1  0  0  0
 14 15  2  0  0  0
 14101  1  0  0  0
 15102  1  0  0  0
 16 17  2  0  0  0
 16 21  1  0  0  0
 16 31  1  0  0  0
 17 18  1  0  0  0
 17103  1  0  0  0
 18 19  2  0  0  0
 18104  1  0  0  0
 19 20  1  0  0  0
 19 24  1  0  0  0
 20 21  2  0  0  0
 20105  1  0  0  0
 21 23  1  0  0  0
 22 28  1  0  0  0
 22 32  2  0  0  0
 26 27  1  0  0  0
 28106  1  0  0  0
 28107  1  0  0  0
 29108  1  0  0  0
 29109  1  0  0  0
 33 34  1  0  0  0
 33 66  1  0  0  0
 33 70  2  0  0  0
 34 36  1  0  0  0
 34 59  1  0  0  0
 34110  1  0  0  0
 35 44  2  0  0  0
 35 45  1  0  0  0
 35 68  1  0  0  0
 36 56  1  0  0  0
 36111  1  0  0  0
 37 39  1  0  0  0
 37 47  1  0  0  0
 37 66  1  0  0  0
 37112  1  0  0  0
 38 43  2  0  0  0
 38 46  1  0  0  0
 38 47  1  0  0  0
 39 64  1  0  0  0
 39 67  2  0  0  0
 40 52  1  0  0  0
 40 53  2  0  0  0
 40 58  1  0  0  0
 41113  1  0  0  0
 41114  1  0  0  0
 41115  1  0  0  0
 41 48  1  0  0  0
 42 43  1  0  0  0
 42 66  1  0  0  0
 42116  1  0  0  0
 42117  1  0  0  0
 43 44  1  0  0  0
 44118  1  0  0  0
 45 46  2  0  0  0
 45119  1  0  0  0
 46120  1  0  0  0
 47121  1  0  0  0
 47122  1  0  0  0
 48 56  1  0  0  0
 48 65  1  0  0  0
 48123  1  0  0  0
 49 50  1  0  0  0
 49 53  1  0  0  0
 49 64  1  0  0  0
 49124  1  0  0  0
 50 51  1  0  0  0
 50125  1  0  0  0
 50126  1  0  0  0
 51 52  1  0  0  0
 51127  1  0  0  0
 51128  1  0  0  0
 52129  1  0  0  0
 52130  1  0  0  0
 53 54  1  0  0  0
 54 55  2  0  0  0
 54131  1  0  0  0
 55 57  1  0  0  0
 55132  1  0  0  0
 56 69  2  0  0  0
 57 58  2  0  0  0
 57133  1  0  0  0
 58134  1  0  0  0
 59 60  1  0  0  0
 59 61  1  0  0  0
 59 62  1  0  0  0
 60135  1  0  0  0
 60136  1  0  0  0
 60137  1  0  0  0
 61138  1  0  0  0
 61139  1  0  0  0
 61140  1  0  0  0
 62141  1  0  0  0
 62142  1  0  0  0
 62143  1  0  0  0
 63 65  1  0  0  0
 63144  1  0  0  0
 63145  1  0  0  0
 63146  1  0  0  0
 64147  1  0  0  0
 65148  1  0  0  0
 68 80  1  0  0  0
 71 72  2  0  0  0
 71 74  1  0  0  0
 71149  1  0  0  0
 72 80  1  0  0  0
 72150  1  0  0  0
 73 75  2  0  0  0
 73 79  1  0  0  0
 73151  1  0  0  0
 74 77  2  0  0  0
 74 84  1  0  0  0
 75 76  1  0  0  0
 75 81  1  0  0  0
 76 78  2  0  0  0
 76 85  1  0  0  0
 77 82  1  0  0  0
 77 87  1  0  0  0
 78 83  1  0  0  0
 78 86  1  0  0  0
 79 86  2  0  0  0
 79 88  1  0  0  0
 80 87  2  0  0  0
 81152  1  0  0  0
 81153  1  0  0  0
 81154  1  0  0  0
 82155  1  0  0  0
 82156  1  0  0  0
 82157  1  0  0  0
 83158  1  0  0  0
 83159  1  0  0  0
 83160  1  0  0  0
 84 89  1  0  0  0
 84161  1  0  0  0
 84162  1  0  0  0
 85 89  1  0  0  0
 85163  1  0  0  0
 85164  1  0  0  0
 88165  1  0  0  0
 89166  1  0  0  0
 89167  1  0  0  0
M  CHG  1  89   1
M  ISO  4   1 100  68 101  80 101  88 100
M  END
> <chiral flag>
0

> <version>
0

> <s_m_source_file>
/data/baiqing/PycharmProjects/Reinvent-master-3.2/result/LINK_invent/BTK/process_docking_weight1_custom_sum_contain_oxygen_bond_distance_aromatic_linkinvent_7_9_3/rearranged_h_0133.sdf

> <i_m_source_file_index>
60

> <r_mmod_Potential_Energy-OPLS-2005>
-411.990264892578

> <r_mmod_Stretch_Energy-OPLS-2005>
32.1245651245117

> <r_mmod_Bend_Energy-OPLS-2005>
100.518264770508

> <r_mmod_Torsional_Energy-OPLS-2005>
231.745895385742

> <r_mmod_Improper_Torsional_Energy-OPLS-2005>
8.44684982299805

> <r_mmod_Van_der_Waal_Energy-OPLS-2005>
179.786056518555

> <r_mmod_Electrostatic_Energy-OPLS-2005>
-478.021148681641

> <r_mmod_Solvation_Energy-OPLS-2005>
-501.223510742188

> <b_mmod_Minimization_Converged-OPLS-2005>
0

> <r_mmod_RMS_Derivative-OPLS-2005>
3.06025862693787

$$$$
61
                    3D
 Structure written by MMmdl.
153161  0  0  1  0            999 V2000
  -30.5315  -14.8570   20.4398 C   0  0  0  0  0  0
  -30.4567  -12.5267   19.4791 C   0  0  0  0  0  0
  -29.5263  -12.5254   18.2424 C   0  0  0  0  0  0
  -28.0518  -12.3298   18.6532 C   0  0  0  0  0  0
  -27.6409  -13.2320   19.8456 C   0  0  2  0  0  0
  -28.6866  -13.1867   20.9808 C   0  0  0  0  0  0
  -25.2506  -13.8191   20.5682 C   0  0  0  0  0  0
  -24.1796  -13.0450   20.9200 C   0  0  0  0  0  0
  -24.6388  -11.6924   20.8744 C   0  0  0  0  0  0
  -23.9062  -10.4302   21.0413 C   0  0  0  0  0  0
  -24.3607   -9.4214   21.9194 C   0  0  0  0  0  0
  -23.6276   -8.2257   22.0761 C   0  0  0  0  0  0
  -22.4261   -8.0296   21.3551 C   0  0  0  0  0  0
  -21.9902   -9.0273   20.4657 C   0  0  0  0  0  0
  -22.7234  -10.2146   20.3061 C   0  0  0  0  0  0
  -21.6856   -6.0732   22.5279 C   0  0  0  0  0  0
  -21.4014   -6.5630   23.8214 C   0  0  0  0  0  0
  -21.3656   -5.6784   24.9173 C   0  0  0  0  0  0
  -21.6042   -4.3049   24.7227 C   0  0  0  0  0  0
  -21.8814   -3.8140   23.4347 C   0  0  0  0  0  0
  -21.9192   -4.6958   22.3402 C   0  0  0  0  0  0
  -22.7813  -13.5245   21.1844 C   0  0  0  0  0  0
  -22.1659   -4.2140   21.0983 F   0  0  0  0  0  0
  -21.5631   -3.4533   25.7739 F   0  0  0  0  0  0
  -29.9773  -13.5874   20.4001 N   0  0  0  0  0  0
  -26.2931  -12.9391   20.3238 N   0  0  0  0  0  0
  -25.9318  -11.6541   20.5727 N   0  0  0  0  0  0
  -22.0431  -12.8264   22.0392 N   0  0  0  0  0  0
  -25.4184  -15.1926   20.4106 N   0  0  0  0  0  0
  -31.7249  -15.0014   20.1519 O   0  0  0  0  0  0
  -21.6635   -6.8883   21.4242 O   0  0  0  0  0  0
  -22.3521  -14.5559   20.6684 O   0  0  0  0  0  0
  -24.6378  -31.8495   23.1915 C   0  0  0  0  0  0
  -25.9176  -32.4722   23.8284 C   0  0  1  0  0  0
  -27.2176  -27.1889   20.1554 C   0  0  0  0  0  0
  -25.5946  -33.8527   24.2210 N   0  0  0  0  0  0
  -23.4381  -30.4674   21.5376 C   0  0  2  0  0  0
  -24.8882  -28.9008   20.1144 C   0  0  0  0  0  0
  -22.7555  -29.4552   22.4907 C   0  0  0  0  0  0
  -18.0306  -28.1376   22.8491 C   0  0  0  0  0  0
  -24.1489  -36.7268   23.2638 C   0  0  0  0  0  0
  -25.9889  -30.7421   21.3801 C   0  0  0  0  0  0
  -26.0636  -29.3560   20.7259 C   0  0  0  0  0  0
  -27.2334  -28.5161   20.7273 C   0  0  0  0  0  0
  -26.0208  -26.8214   19.5045 C   0  0  0  0  0  0
  -24.8762  -27.6446   19.4884 C   0  0  0  0  0  0
  -23.6620  -29.7954   20.1570 C   0  0  0  0  0  0
  -25.4117  -36.3044   24.0317 C   0  0  1  0  0  0
  -20.5913  -28.3692   23.1282 C   0  0  2  0  0  0
  -20.6787  -26.9396   22.5436 C   0  0  0  0  0  0
  -19.5771  -26.6357   21.5246 C   0  0  0  0  0  0
  -18.1948  -26.7909   22.1654 C   0  0  0  0  0  0
  -19.1561  -28.8857   23.2869 C   0  0  0  0  0  0
  -18.9480  -30.1467   23.8867 C   0  0  0  0  0  0
  -17.6477  -30.6583   24.0554 C   0  0  0  0  0  0
  -25.9066  -34.9422   23.5067 C   0  0  0  0  0  0
  -16.5368  -29.9069   23.6337 C   0  0  0  0  0  0
  -16.7287  -28.6492   23.0348 C   0  0  0  0  0  0
  -26.4519  -31.6567   25.0698 C   0  0  0  0  0  0
  -25.3715  -31.3751   26.1402 C   0  0  0  0  0  0
  -27.0379  -30.2969   24.6236 C   0  0  0  0  0  0
  -27.6050  -32.4330   25.7487 C   0  0  0  0  0  0
  -27.5569  -37.1790   24.8463 C   0  0  0  0  0  0
  -21.4251  -29.3021   22.3665 N   0  0  0  0  0  0
  -26.4285  -37.3751   23.9402 N   0  0  0  0  0  0
  -24.7075  -31.0393   22.0924 N   0  0  0  0  0  0
  -23.4233  -28.8106   23.3034 O   0  0  0  0  0  0
  -28.2864  -26.2398   20.1800 O   0  0  0  0  0  0
  -26.5648  -34.8913   22.4641 O   0  0  0  0  0  0
  -23.5514  -32.1361   23.7168 O   0  0  0  0  0  0
  -30.0832  -19.7898   21.3354 C   0  0  0  0  0  0
  -28.4209  -19.5316   19.6729 C   0  0  0  0  0  0
  -30.3623  -18.3644   21.2945 C   0  0  0  0  0  0
  -28.6844  -18.1098   19.6428 C   0  0  0  0  0  0
  -29.0711  -20.4511   20.5563 C   0  0  0  0  0  0
  -29.6460  -17.4398   20.4678 C   0  0  0  0  0  0
  -26.9736  -21.7837   21.1538 C   0  0  0  0  0  0
  -28.7480  -23.3819   20.1189 C   0  0  0  0  0  0
  -28.0332  -24.7963   20.6438 C   0  0  0  0  0  0
  -28.4867  -21.9422   20.9112 C   0  0  2  0  0  0
  -29.6420  -15.9320   20.5967 N   0  0  0  0  0  0
  -31.4892  -12.6965   19.1685 H   0  0  0  0  0  0
  -30.4508  -11.5553   19.9764 H   0  0  0  0  0  0
  -29.8295  -11.7458   17.5422 H   0  0  0  0  0  0
  -29.6313  -13.4696   17.7052 H   0  0  0  0  0  0
  -27.9188  -11.2810   18.9204 H   0  0  0  0  0  0
  -27.3969  -12.5121   17.8007 H   0  0  0  0  0  0
  -27.6245  -14.2477   19.4509 H   0  0  0  0  0  0
  -28.7491  -12.1876   21.4150 H   0  0  0  0  0  0
  -28.3996  -13.8527   21.7965 H   0  0  0  0  0  0
  -25.2753   -9.5678   22.4772 H   0  0  0  0  0  0
  -23.9982   -7.4642   22.7474 H   0  0  0  0  0  0
  -21.0841   -8.8799   19.8960 H   0  0  0  0  0  0
  -22.3711  -10.9685   19.6166 H   0  0  0  0  0  0
  -21.2010   -7.6141   23.9714 H   0  0  0  0  0  0
  -21.1478   -6.0514   25.9076 H   0  0  0  0  0  0
  -22.0595   -2.7601   23.2852 H   0  0  0  0  0  0
  -22.4034  -11.9951   22.4833 H   0  0  0  0  0  0
  -21.1043  -13.1319   22.2550 H   0  0  0  0  0  0
  -24.6460  -15.8400   20.5244 H   0  0  0  0  0  0
  -26.2548  -15.6374   20.0572 H   0  0  0  0  0  0
  -26.7239  -32.5365   23.1018 H   0  0  0  0  0  0
  -25.0073  -33.9648   25.0343 H   0  0  0  0  0  0
  -22.7355  -31.2900   21.3860 H   0  0  0  0  0  0
  -23.3750  -35.9601   23.3301 H   0  0  0  0  0  0
  -24.3571  -36.8902   22.2052 H   0  0  0  0  0  0
  -23.7256  -37.6467   23.6680 H   0  0  0  0  0  0
  -26.1293  -31.4986   20.6062 H   0  0  0  0  0  0
  -26.8642  -30.7991   22.0159 H   0  0  0  0  0  0
  -28.1347  -28.8615   21.2140 H   0  0  0  0  0  0
  -25.9543  -25.8598   19.0164 H   0  0  0  0  0  0
  -23.9790  -27.2911   18.9990 H   0  0  0  0  0  0
  -23.7905  -30.5686   19.3988 H   0  0  0  0  0  0
  -22.7797  -29.2303   19.8510 H   0  0  0  0  0  0
  -25.1304  -36.1873   25.0810 H   0  0  0  0  0  0
  -20.9989  -28.3277   24.1406 H   0  0  0  0  0  0
  -20.5707  -26.2295   23.3651 H   0  0  0  0  0  0
  -21.6647  -26.7426   22.1204 H   0  0  0  0  0  0
  -19.6939  -25.6265   21.1285 H   0  0  0  0  0  0
  -19.6705  -27.3169   20.6780 H   0  0  0  0  0  0
  -17.4214  -26.6638   21.4066 H   0  0  0  0  0  0
  -18.0354  -26.0063   22.9061 H   0  0  0  0  0  0
  -19.7968  -30.7291   24.2212 H   0  0  0  0  0  0
  -17.5037  -31.6260   24.5169 H   0  0  0  0  0  0
  -15.5371  -30.2957   23.7675 H   0  0  0  0  0  0
  -15.8689  -28.0802   22.7062 H   0  0  0  0  0  0
  -24.5889  -30.7105   25.7724 H   0  0  0  0  0  0
  -24.8911  -32.2938   26.4781 H   0  0  0  0  0  0
  -25.8006  -30.8952   27.0207 H   0  0  0  0  0  0
  -26.2986  -29.6697   24.1240 H   0  0  0  0  0  0
  -27.4012  -29.7254   25.4786 H   0  0  0  0  0  0
  -27.8878  -30.4209   23.9521 H   0  0  0  0  0  0
  -27.2628  -33.3637   26.2024 H   0  0  0  0  0  0
  -28.3877  -32.6887   25.0332 H   0  0  0  0  0  0
  -28.0691  -31.8485   26.5440 H   0  0  0  0  0  0
  -28.2589  -38.0083   24.7492 H   0  0  0  0  0  0
  -28.1064  -36.2614   24.6310 H   0  0  0  0  0  0
  -27.2283  -37.1453   25.8866 H   0  0  0  0  0  0
  -20.9464  -29.8752   21.6860 H   0  0  0  0  0  0
  -26.0156  -38.2819   24.1410 H   0  0  0  0  0  0
  -30.6149  -20.3775   22.0708 H   0  0  0  0  0  0
  -27.6138  -19.8998   19.0550 H   0  0  0  0  0  0
  -31.0872  -17.9695   21.9927 H   0  0  0  0  0  0
  -28.0622  -17.5109   18.9918 H   0  0  0  0  0  0
  -26.7713  -20.9403   21.8155 H   0  0  0  0  0  0
  -26.4325  -21.6099   20.2231 H   0  0  0  0  0  0
  -26.5374  -22.6604   21.6312 H   0  0  0  0  0  0
  -29.8244  -23.5493   20.1012 H   0  0  0  0  0  0
  -28.4632  -23.2437   19.0760 H   0  0  0  0  0  0
  -28.2453  -24.8353   21.7128 H   0  0  0  0  0  0
  -26.9594  -24.6247   20.6080 H   0  0  0  0  0  0
  -28.9051  -22.1280   21.9019 H   0  0  0  0  0  0
  -28.7094  -15.5669   20.7065 H   0  0  0  0  0  0
  1 25  1  0  0  0
  1 30  2  0  0  0
  1 81  1  0  0  0
  2  3  1  0  0  0
  2 25  1  0  0  0
  2 82  1  0  0  0
  2 83  1  0  0  0
  3  4  1  0  0  0
  3 84  1  0  0  0
  3 85  1  0  0  0
  4  5  1  0  0  0
  4 86  1  0  0  0
  4 87  1  0  0  0
  5  6  1  0  0  0
  5 26  1  0  0  0
  5 88  1  0  0  0
  6 25  1  0  0  0
  6 89  1  0  0  0
  6 90  1  0  0  0
  7  8  2  0  0  0
  7 26  1  0  0  0
  7 29  1  0  0  0
  8  9  1  0  0  0
  8 22  1  0  0  0
  9 10  1  0  0  0
  9 27  2  0  0  0
 10 11  2  0  0  0
 10 15  1  0  0  0
 11 12  1  0  0  0
 11 91  1  0  0  0
 12 13  2  0  0  0
 12 92  1  0  0  0
 13 14  1  0  0  0
 13 31  1  0  0  0
 14 15  2  0  0  0
 14 93  1  0  0  0
 15 94  1  0  0  0
 16 17  2  0  0  0
 16 21  1  0  0  0
 16 31  1  0  0  0
 17 18  1  0  0  0
 17 95  1  0  0  0
 18 19  2  0  0  0
 18 96  1  0  0  0
 19 20  1  0  0  0
 19 24  1  0  0  0
 20 21  2  0  0  0
 20 97  1  0  0  0
 21 23  1  0  0  0
 22 28  1  0  0  0
 22 32  2  0  0  0
 26 27  1  0  0  0
 28 98  1  0  0  0
 28 99  1  0  0  0
 29100  1  0  0  0
 29101  1  0  0  0
 33 34  1  0  0  0
 33 66  1  0  0  0
 33 70  2  0  0  0
 34 36  1  0  0  0
 34 59  1  0  0  0
 34102  1  0  0  0
 35 44  2  0  0  0
 35 45  1  0  0  0
 35 68  1  0  0  0
 36 56  1  0  0  0
 36103  1  0  0  0
 37 39  1  0  0  0
 37 47  1  0  0  0
 37 66  1  0  0  0
 37104  1  0  0  0
 38 43  2  0  0  0
 38 46  1  0  0  0
 38 47  1  0  0  0
 39 64  1  0  0  0
 39 67  2  0  0  0
 40 52  1  0  0  0
 40 53  2  0  0  0
 40 58  1  0  0  0
 41105  1  0  0  0
 41106  1  0  0  0
 41107  1  0  0  0
 41 48  1  0  0  0
 42 43  1  0  0  0
 42 66  1  0  0  0
 42108  1  0  0  0
 42109  1  0  0  0
 43 44  1  0  0  0
 44110  1  0  0  0
 45 46  2  0  0  0
 45111  1  0  0  0
 46112  1  0  0  0
 47113  1  0  0  0
 47114  1  0  0  0
 48 56  1  0  0  0
 48 65  1  0  0  0
 48115  1  0  0  0
 49 50  1  0  0  0
 49 53  1  0  0  0
 49 64  1  0  0  0
 49116  1  0  0  0
 50 51  1  0  0  0
 50117  1  0  0  0
 50118  1  0  0  0
 51 52  1  0  0  0
 51119  1  0  0  0
 51120  1  0  0  0
 52121  1  0  0  0
 52122  1  0  0  0
 53 54  1  0  0  0
 54 55  2  0  0  0
 54123  1  0  0  0
 55 57  1  0  0  0
 55124  1  0  0  0
 56 69  2  0  0  0
 57 58  2  0  0  0
 57125  1  0  0  0
 58126  1  0  0  0
 59 60  1  0  0  0
 59 61  1  0  0  0
 59 62  1  0  0  0
 60127  1  0  0  0
 60128  1  0  0  0
 60129  1  0  0  0
 61130  1  0  0  0
 61131  1  0  0  0
 61132  1  0  0  0
 62133  1  0  0  0
 62134  1  0  0  0
 62135  1  0  0  0
 63 65  1  0  0  0
 63136  1  0  0  0
 63137  1  0  0  0
 63138  1  0  0  0
 64139  1  0  0  0
 65140  1  0  0  0
 68 79  1  0  0  0
 71 73  2  0  0  0
 71 75  1  0  0  0
 71141  1  0  0  0
 72 74  1  0  0  0
 72 75  2  0  0  0
 72142  1  0  0  0
 73 76  1  0  0  0
 73143  1  0  0  0
 74 76  2  0  0  0
 74144  1  0  0  0
 75 80  1  0  0  0
 76 81  1  0  0  0
 77145  1  0  0  0
 77146  1  0  0  0
 77147  1  0  0  0
 77 80  1  0  0  0
 78 79  1  0  0  0
 78 80  1  0  0  0
 78148  1  0  0  0
 78149  1  0  0  0
 79150  1  0  0  0
 79151  1  0  0  0
 80152  1  0  0  0
 81153  1  0  0  0
M  ISO  4   1 100  68 101  79 101  81 100
M  END
> <chiral flag>
0

> <version>
0

> <s_m_source_file>
/data/baiqing/PycharmProjects/Reinvent-master-3.2/result/LINK_invent/BTK/process_docking_weight1_custom_sum_contain_oxygen_bond_distance_aromatic_linkinvent_7_9_3/rearranged_h_0133.sdf

> <i_m_source_file_index>
61

> <r_mmod_Potential_Energy-OPLS-2005>
387.2900390625

> <r_mmod_Stretch_Energy-OPLS-2005>
185.558074951172

> <r_mmod_Bend_Energy-OPLS-2005>
229.397552490234

> <r_mmod_Torsional_Energy-OPLS-2005>
266.537689208984

> <r_mmod_Improper_Torsional_Energy-OPLS-2005>
9.89265727996826

> <r_mmod_Van_der_Waal_Energy-OPLS-2005>
130.721969604492

> <r_mmod_Electrostatic_Energy-OPLS-2005>
-370.105377197266

> <r_mmod_Solvation_Energy-OPLS-2005>
-205.086090087891

> <b_mmod_Minimization_Converged-OPLS-2005>
0

> <r_mmod_RMS_Derivative-OPLS-2005>
1.72590851783752

$$$$
62
                    3D
 Structure written by MMmdl.
176186  0  0  1  0            999 V2000
  -30.7712  -14.3658   20.6923 C   0  0  0  0  0  0
  -30.4138  -12.2974   19.3937 C   0  0  0  0  0  0
  -29.4818  -12.5421   18.1931 C   0  0  0  0  0  0
  -28.0072  -12.3925   18.6087 C   0  0  0  0  0  0
  -27.6657  -13.2076   19.8833 C   0  0  2  0  0  0
  -28.7039  -12.9482   20.9969 C   0  0  0  0  0  0
  -25.2591  -13.8170   20.5677 C   0  0  0  0  0  0
  -24.1842  -13.0446   20.9169 C   0  0  0  0  0  0
  -24.6395  -11.6911   20.8732 C   0  0  0  0  0  0
  -23.9058  -10.4297   21.0403 C   0  0  0  0  0  0
  -24.3611   -9.4214   21.9182 C   0  0  0  0  0  0
  -23.6290   -8.2247   22.0755 C   0  0  0  0  0  0
  -22.4271   -8.0283   21.3547 C   0  0  0  0  0  0
  -21.9903   -9.0255   20.4649 C   0  0  0  0  0  0
  -22.7229  -10.2135   20.3057 C   0  0  0  0  0  0
  -21.6855   -6.0736   22.5281 C   0  0  0  0  0  0
  -21.4014   -6.5640   23.8215 C   0  0  0  0  0  0
  -21.3661   -5.6793   24.9180 C   0  0  0  0  0  0
  -21.6041   -4.3053   24.7230 C   0  0  0  0  0  0
  -21.8821   -3.8147   23.4350 C   0  0  0  0  0  0
  -21.9191   -4.6963   22.3405 C   0  0  0  0  0  0
  -22.7866  -13.5242   21.1842 C   0  0  0  0  0  0
  -22.1663   -4.2148   21.0983 F   0  0  0  0  0  0
  -21.5626   -3.4540   25.7743 F   0  0  0  0  0  0
  -30.0472  -13.2395   20.4612 N   0  0  0  0  0  0
  -26.3045  -12.9345   20.3412 N   0  0  0  0  0  0
  -25.9324  -11.6500   20.5765 N   0  0  0  0  0  0
  -22.0509  -12.8224   22.0392 N   0  0  0  0  0  0
  -25.4303  -15.1887   20.4048 N   0  0  0  0  0  0
  -31.7896  -14.6592   20.0586 O   0  0  0  0  0  0
  -21.6645   -6.8878   21.4240 O   0  0  0  0  0  0
  -22.3564  -14.5574   20.6730 O   0  0  0  0  0  0
  -24.6114  -31.8714   23.2115 C   0  0  0  0  0  0
  -25.9026  -32.4840   23.8404 C   0  0  1  0  0  0
  -27.2348  -27.4669   20.0895 C   0  0  0  0  0  0
  -25.5898  -33.8634   24.2341 N   0  0  0  0  0  0
  -23.3977  -30.4925   21.5526 C   0  0  2  0  0  0
  -24.8453  -28.9615   20.1132 C   0  0  0  0  0  0
  -22.7399  -29.4654   22.5019 C   0  0  0  0  0  0
  -18.0266  -28.1356   22.8502 C   0  0  0  0  0  0
  -24.1490  -36.7318   23.2641 C   0  0  0  0  0  0
  -25.9214  -30.8457   21.3605 C   0  0  0  0  0  0
  -26.0029  -29.4825   20.7072 C   0  0  0  0  0  0
  -27.2035  -28.7405   20.6938 C   0  0  0  0  0  0
  -26.0661  -26.9494   19.4958 C   0  0  0  0  0  0
  -24.8697  -27.6925   19.5054 C   0  0  0  0  0  0
  -23.6043  -29.8237   20.1668 C   0  0  0  0  0  0
  -25.4111  -36.3121   24.0340 C   0  0  1  0  0  0
  -20.5854  -28.3642   23.1344 C   0  0  2  0  0  0
  -20.6758  -26.9385   22.5424 C   0  0  0  0  0  0
  -19.5743  -26.6379   21.5211 C   0  0  0  0  0  0
  -18.1916  -26.7906   22.1616 C   0  0  0  0  0  0
  -19.1514  -28.8816   23.2915 C   0  0  0  0  0  0
  -18.9451  -30.1427   23.8918 C   0  0  0  0  0  0
  -17.6456  -30.6576   24.0563 C   0  0  0  0  0  0
  -25.9034  -34.9483   23.5139 C   0  0  0  0  0  0
  -16.5345  -29.9080   23.6322 C   0  0  0  0  0  0
  -16.7256  -28.6491   23.0351 C   0  0  0  0  0  0
  -26.4459  -31.6607   25.0717 C   0  0  0  0  0  0
  -25.3734  -31.3701   26.1474 C   0  0  0  0  0  0
  -27.0284  -30.3063   24.6047 C   0  0  0  0  0  0
  -27.6047  -32.4310   25.7472 C   0  0  0  0  0  0
  -27.5586  -37.1810   24.8462 C   0  0  0  0  0  0
  -21.4127  -29.3015   22.3761 N   0  0  0  0  0  0
  -26.4301  -37.3802   23.9407 N   0  0  0  0  0  0
  -24.6613  -31.0828   22.1013 N   0  0  0  0  0  0
  -23.4190  -28.8195   23.3041 O   0  0  0  0  0  0
  -28.3841  -26.7184   20.0997 O   0  0  0  0  0  0
  -26.5601  -34.8933   22.4697 O   0  0  0  0  0  0
  -23.5321  -32.1460   23.7541 O   0  0  0  0  0  0
  -29.5853  -20.0862   20.3062 C   0  0  0  0  0  0
  -29.2750  -21.4609   20.2985 C   0  0  0  0  0  0
  -27.8062  -21.1174   22.2002 C   0  0  0  0  0  0
  -28.1128  -19.7383   22.2298 C   0  0  0  0  0  0
  -29.0157  -19.2209   21.2667 C   0  0  0  0  0  0
  -28.3846  -21.9925   21.2603 C   0  0  0  0  0  0
  -26.2408  -19.1862   25.6086 C   0  0  0  0  0  0
  -26.3427  -18.0391   22.7811 C   0  0  0  0  0  0
  -28.4047  -18.2882   24.3884 C   0  0  0  0  0  0
  -24.9564  -19.7985   25.0194 C   0  0  0  0  0  0
  -25.0115  -18.8117   22.7005 C   0  0  0  0  0  0
  -27.4571  -19.4092   24.7307 C   0  0  1  0  0  0
  -27.5073  -18.8705   23.3122 C   0  0  1  0  0  0
  -30.7620  -17.5457   21.3312 C   0  0  0  0  0  0
  -31.0169  -16.3146   22.2180 C   0  0  0  0  0  0
  -28.3609  -25.6763   21.0800 C   0  0  0  0  0  0
  -28.5774  -24.2835   20.4634 C   0  0  0  0  0  0
  -29.3397  -17.8573   21.2714 N   0  0  0  0  0  0
  -30.3424  -15.1210   21.7106 N   0  0  0  0  0  0
  -24.3173  -18.9301   24.0044 N   0  3  0  0  0  0
  -28.0411  -23.3233   21.3723 O   0  0  0  0  0  0
  -31.4571  -12.3987   19.0887 H   0  0  0  0  0  0
  -30.3100  -11.2729   19.7544 H   0  0  0  0  0  0
  -29.7157  -11.8505   17.3835 H   0  0  0  0  0  0
  -29.6497  -13.5448   17.7968 H   0  0  0  0  0  0
  -27.8135  -11.3334   18.7807 H   0  0  0  0  0  0
  -27.3535  -12.6915   17.7886 H   0  0  0  0  0  0
  -27.7231  -14.2633   19.6173 H   0  0  0  0  0  0
  -28.6649  -11.9049   21.3143 H   0  0  0  0  0  0
  -28.4497  -13.5261   21.8850 H   0  0  0  0  0  0
  -25.2759   -9.5696   22.4751 H   0  0  0  0  0  0
  -24.0005   -7.4644   22.7477 H   0  0  0  0  0  0
  -21.0830   -8.8767   19.8964 H   0  0  0  0  0  0
  -22.3682  -10.9667   19.6167 H   0  0  0  0  0  0
  -21.2011   -7.6150   23.9718 H   0  0  0  0  0  0
  -21.1481   -6.0526   25.9081 H   0  0  0  0  0  0
  -22.0598   -2.7607   23.2854 H   0  0  0  0  0  0
  -22.4103  -11.9837   22.4707 H   0  0  0  0  0  0
  -21.1146  -13.1268   22.2645 H   0  0  0  0  0  0
  -24.6468  -15.8301   20.4414 H   0  0  0  0  0  0
  -26.2800  -15.6143   20.0552 H   0  0  0  0  0  0
  -26.7113  -32.5567   23.1190 H   0  0  0  0  0  0
  -25.0037  -33.9795   25.0480 H   0  0  0  0  0  0
  -22.6849  -31.3077   21.4178 H   0  0  0  0  0  0
  -23.3754  -35.9650   23.3309 H   0  0  0  0  0  0
  -24.3591  -36.8928   22.2055 H   0  0  0  0  0  0
  -23.7230  -37.6519   23.6650 H   0  0  0  0  0  0
  -26.0253  -31.6148   20.5939 H   0  0  0  0  0  0
  -26.8106  -30.9019   21.9759 H   0  0  0  0  0  0
  -28.0975  -29.1333   21.1585 H   0  0  0  0  0  0
  -26.0819  -25.9735   19.0321 H   0  0  0  0  0  0
  -23.9779  -27.2865   19.0470 H   0  0  0  0  0  0
  -23.7074  -30.5984   19.4056 H   0  0  0  0  0  0
  -22.7293  -29.2394   19.8755 H   0  0  0  0  0  0
  -25.1280  -36.1999   25.0834 H   0  0  0  0  0  0
  -20.9935  -28.3195   24.1469 H   0  0  0  0  0  0
  -20.5656  -26.2246   23.3606 H   0  0  0  0  0  0
  -21.6631  -26.7437   22.1220 H   0  0  0  0  0  0
  -19.6917  -25.6294   21.1229 H   0  0  0  0  0  0
  -19.6686  -27.3204   20.6754 H   0  0  0  0  0  0
  -17.4188  -26.6672   21.4008 H   0  0  0  0  0  0
  -18.0304  -26.0023   22.8991 H   0  0  0  0  0  0
  -19.7936  -30.7222   24.2302 H   0  0  0  0  0  0
  -17.5025  -31.6265   24.5153 H   0  0  0  0  0  0
  -15.5352  -30.2997   23.7639 H   0  0  0  0  0  0
  -15.8649  -28.0828   22.7057 H   0  0  0  0  0  0
  -24.5899  -30.7064   25.7801 H   0  0  0  0  0  0
  -24.8936  -32.2858   26.4945 H   0  0  0  0  0  0
  -25.8094  -30.8847   27.0214 H   0  0  0  0  0  0
  -26.2813  -29.6831   24.1121 H   0  0  0  0  0  0
  -27.4105  -29.7292   25.4473 H   0  0  0  0  0  0
  -27.8624  -30.4406   23.9154 H   0  0  0  0  0  0
  -27.2677  -33.3603   26.2078 H   0  0  0  0  0  0
  -28.3833  -32.6878   25.0275 H   0  0  0  0  0  0
  -28.0730  -31.8404   26.5356 H   0  0  0  0  0  0
  -28.2601  -38.0115   24.7519 H   0  0  0  0  0  0
  -28.1085  -36.2640   24.6274 H   0  0  0  0  0  0
  -27.2302  -37.1436   25.8866 H   0  0  0  0  0  0
  -20.9283  -29.8756   21.7002 H   0  0  0  0  0  0
  -26.0202  -38.2885   24.1415 H   0  0  0  0  0  0
  -30.2673  -19.6999   19.5614 H   0  0  0  0  0  0
  -29.7369  -22.0827   19.5467 H   0  0  0  0  0  0
  -27.1242  -21.5249   22.9324 H   0  0  0  0  0  0
  -26.1075  -18.1230   25.8098 H   0  0  0  0  0  0
  -26.4484  -19.6494   26.5739 H   0  0  0  0  0  0
  -26.6024  -17.6631   21.7915 H   0  0  0  0  0  0
  -26.2133  -17.1515   23.4009 H   0  0  0  0  0  0
  -28.1702  -17.3005   24.7808 H   0  0  0  0  0  0
  -29.4651  -18.5280   24.3467 H   0  0  0  0  0  0
  -25.1432  -20.7939   24.6127 H   0  0  0  0  0  0
  -24.2350  -19.9314   25.8270 H   0  0  0  0  0  0
  -24.3418  -18.2690   22.0323 H   0  0  0  0  0  0
  -25.1504  -19.7938   22.2480 H   0  0  0  0  0  0
  -27.9256  -20.3788   24.8922 H   0  0  0  0  0  0
  -31.1426  -17.3779   20.3224 H   0  0  0  0  0  0
  -31.3195  -18.3928   21.7374 H   0  0  0  0  0  0
  -30.6721  -16.5027   23.2355 H   0  0  0  0  0  0
  -32.0897  -16.1288   22.2970 H   0  0  0  0  0  0
  -29.1335  -25.8722   21.8232 H   0  0  0  0  0  0
  -27.4187  -25.6723   21.6344 H   0  0  0  0  0  0
  -29.6418  -24.1440   20.2754 H   0  0  0  0  0  0
  -28.0481  -24.1998   19.5135 H   0  0  0  0  0  0
  -28.7937  -17.3110   21.9280 H   0  0  0  0  0  0
  -29.5168  -14.8060   22.1964 H   0  0  0  0  0  0
  -23.4055  -19.3175   23.8156 H   0  0  0  0  0  0
  -24.1607  -18.0151   24.3953 H   0  0  0  0  0  0
  1 25  1  0  0  0
  1 30  2  0  0  0
  1 89  1  0  0  0
  2  3  1  0  0  0
  2 25  1  0  0  0
  2 92  1  0  0  0
  2 93  1  0  0  0
  3  4  1  0  0  0
  3 94  1  0  0  0
  3 95  1  0  0  0
  4  5  1  0  0  0
  4 96  1  0  0  0
  4 97  1  0  0  0
  5  6  1  0  0  0
  5 26  1  0  0  0
  5 98  1  0  0  0
  6 25  1  0  0  0
  6 99  1  0  0  0
  6100  1  0  0  0
  7  8  2  0  0  0
  7 26  1  0  0  0
  7 29  1  0  0  0
  8  9  1  0  0  0
  8 22  1  0  0  0
  9 10  1  0  0  0
  9 27  2  0  0  0
 10 11  2  0  0  0
 10 15  1  0  0  0
 11 12  1  0  0  0
 11101  1  0  0  0
 12 13  2  0  0  0
 12102  1  0  0  0
 13 14  1  0  0  0
 13 31  1  0  0  0
 14 15  2  0  0  0
 14103  1  0  0  0
 15104  1  0  0  0
 16 17  2  0  0  0
 16 21  1  0  0  0
 16 31  1  0  0  0
 17 18  1  0  0  0
 17105  1  0  0  0
 18 19  2  0  0  0
 18106  1  0  0  0
 19 20  1  0  0  0
 19 24  1  0  0  0
 20 21  2  0  0  0
 20107  1  0  0  0
 21 23  1  0  0  0
 22 28  1  0  0  0
 22 32  2  0  0  0
 26 27  1  0  0  0
 28108  1  0  0  0
 28109  1  0  0  0
 29110  1  0  0  0
 29111  1  0  0  0
 33 34  1  0  0  0
 33 66  1  0  0  0
 33 70  2  0  0  0
 34 36  1  0  0  0
 34 59  1  0  0  0
 34112  1  0  0  0
 35 44  2  0  0  0
 35 45  1  0  0  0
 35 68  1  0  0  0
 36 56  1  0  0  0
 36113  1  0  0  0
 37 39  1  0  0  0
 37 47  1  0  0  0
 37 66  1  0  0  0
 37114  1  0  0  0
 38 43  2  0  0  0
 38 46  1  0  0  0
 38 47  1  0  0  0
 39 64  1  0  0  0
 39 67  2  0  0  0
 40 52  1  0  0  0
 40 53  2  0  0  0
 40 58  1  0  0  0
 41115  1  0  0  0
 41116  1  0  0  0
 41117  1  0  0  0
 41 48  1  0  0  0
 42 43  1  0  0  0
 42 66  1  0  0  0
 42118  1  0  0  0
 42119  1  0  0  0
 43 44  1  0  0  0
 44120  1  0  0  0
 45 46  2  0  0  0
 45121  1  0  0  0
 46122  1  0  0  0
 47123  1  0  0  0
 47124  1  0  0  0
 48 56  1  0  0  0
 48 65  1  0  0  0
 48125  1  0  0  0
 49 50  1  0  0  0
 49 53  1  0  0  0
 49 64  1  0  0  0
 49126  1  0  0  0
 50 51  1  0  0  0
 50127  1  0  0  0
 50128  1  0  0  0
 51 52  1  0  0  0
 51129  1  0  0  0
 51130  1  0  0  0
 52131  1  0  0  0
 52132  1  0  0  0
 53 54  1  0  0  0
 54 55  2  0  0  0
 54133  1  0  0  0
 55 57  1  0  0  0
 55134  1  0  0  0
 56 69  2  0  0  0
 57 58  2  0  0  0
 57135  1  0  0  0
 58136  1  0  0  0
 59 60  1  0  0  0
 59 61  1  0  0  0
 59 62  1  0  0  0
 60137  1  0  0  0
 60138  1  0  0  0
 60139  1  0  0  0
 61140  1  0  0  0
 61141  1  0  0  0
 61142  1  0  0  0
 62143  1  0  0  0
 62144  1  0  0  0
 62145  1  0  0  0
 63 65  1  0  0  0
 63146  1  0  0  0
 63147  1  0  0  0
 63148  1  0  0  0
 64149  1  0  0  0
 65150  1  0  0  0
 68 86  1  0  0  0
 71 72  2  0  0  0
 71 75  1  0  0  0
 71151  1  0  0  0
 72 76  1  0  0  0
 72152  1  0  0  0
 73 74  1  0  0  0
 73 76  2  0  0  0
 73153  1  0  0  0
 74 75  2  0  0  0
 74 83  1  0  0  0
 75 88  1  0  0  0
 76 91  1  0  0  0
 77 80  1  0  0  0
 77154  1  0  0  0
 77155  1  0  0  0
 77 82  1  0  0  0
 78 81  1  0  0  0
 78 83  1  0  0  0
 78156  1  0  0  0
 78157  1  0  0  0
 79 82  1  0  0  0
 79 83  1  0  0  0
 79158  1  0  0  0
 79159  1  0  0  0
 80 90  1  0  0  0
 80160  1  0  0  0
 80161  1  0  0  0
 81 90  1  0  0  0
 81162  1  0  0  0
 81163  1  0  0  0
 82 83  1  0  0  0
 82164  1  0  0  0
 84 85  1  0  0  0
 84 88  1  0  0  0
 84165  1  0  0  0
 84166  1  0  0  0
 85 89  1  0  0  0
 85167  1  0  0  0
 85168  1  0  0  0
 86 87  1  0  0  0
 86169  1  0  0  0
 86170  1  0  0  0
 87 91  1  0  0  0
 87171  1  0  0  0
 87172  1  0  0  0
 88173  1  0  0  0
 89174  1  0  0  0
 90175  1  0  0  0
 90176  1  0  0  0
M  CHG  1  90   1
M  ISO  4   1 100  68 101  86 101  89 100
M  END
> <chiral flag>
0

> <version>
0

> <s_m_source_file>
/data/baiqing/PycharmProjects/Reinvent-master-3.2/result/LINK_invent/BTK/process_docking_weight1_custom_sum_contain_oxygen_bond_distance_aromatic_linkinvent_7_9_3/rearranged_h_0133.sdf

> <i_m_source_file_index>
62

> <r_mmod_Potential_Energy-OPLS-2005>
-232.411254882812

> <r_mmod_Stretch_Energy-OPLS-2005>
34.266731262207

> <r_mmod_Bend_Energy-OPLS-2005>
101.735412597656

> <r_mmod_Torsional_Energy-OPLS-2005>
329.456298828125

> <r_mmod_Improper_Torsional_Energy-OPLS-2005>
6.92861366271973

> <r_mmod_Van_der_Waal_Energy-OPLS-2005>
147.524353027344

> <r_mmod_Electrostatic_Energy-OPLS-2005>
-376.163940429688

> <r_mmod_Solvation_Energy-OPLS-2005>
-483.337860107422

> <b_mmod_Minimization_Converged-OPLS-2005>
0

> <r_mmod_RMS_Derivative-OPLS-2005>
1.45788657665253

$$$$
63
                    3D
 Structure written by MMmdl.
165174  0  0  1  0            999 V2000
  -30.6906  -14.4661   20.5254 C   0  0  0  0  0  0
  -30.4206  -12.2858   19.4322 C   0  0  0  0  0  0
  -29.4975  -12.4961   18.2127 C   0  0  0  0  0  0
  -28.0167  -12.3629   18.6202 C   0  0  0  0  0  0
  -27.6618  -13.2042   19.8755 C   0  0  2  0  0  0
  -28.7035  -12.9903   21.0005 C   0  0  0  0  0  0
  -25.2592  -13.8156   20.5683 C   0  0  0  0  0  0
  -24.1837  -13.0439   20.9175 C   0  0  0  0  0  0
  -24.6383  -11.6904   20.8732 C   0  0  0  0  0  0
  -23.9044  -10.4294   21.0407 C   0  0  0  0  0  0
  -24.3602   -9.4212   21.9183 C   0  0  0  0  0  0
  -23.6287   -8.2241   22.0749 C   0  0  0  0  0  0
  -22.4273   -8.0272   21.3539 C   0  0  0  0  0  0
  -21.9901   -9.0247   20.4648 C   0  0  0  0  0  0
  -22.7220  -10.2130   20.3059 C   0  0  0  0  0  0
  -21.6853   -6.0730   22.5278 C   0  0  0  0  0  0
  -21.4012   -6.5635   23.8209 C   0  0  0  0  0  0
  -21.3659   -5.6788   24.9171 C   0  0  0  0  0  0
  -21.6044   -4.3049   24.7225 C   0  0  0  0  0  0
  -21.8820   -3.8139   23.4348 C   0  0  0  0  0  0
  -21.9194   -4.6957   22.3403 C   0  0  0  0  0  0
  -22.7862  -13.5246   21.1841 C   0  0  0  0  0  0
  -22.1662   -4.2141   21.0982 F   0  0  0  0  0  0
  -21.5634   -3.4536   25.7740 F   0  0  0  0  0  0
  -30.0386  -13.2766   20.4495 N   0  0  0  0  0  0
  -26.3021  -12.9319   20.3363 N   0  0  0  0  0  0
  -25.9308  -11.6484   20.5762 N   0  0  0  0  0  0
  -22.0493  -12.8242   22.0395 N   0  0  0  0  0  0
  -25.4327  -15.1876   20.4098 N   0  0  0  0  0  0
  -31.8381  -14.6215   20.1041 O   0  0  0  0  0  0
  -21.6634   -6.8871   21.4240 O   0  0  0  0  0  0
  -22.3562  -14.5558   20.6693 O   0  0  0  0  0  0
  -24.6128  -31.8684   23.2104 C   0  0  0  0  0  0
  -25.9030  -32.4822   23.8397 C   0  0  1  0  0  0
  -27.2361  -27.4414   20.0893 C   0  0  0  0  0  0
  -25.5895  -33.8622   24.2323 N   0  0  0  0  0  0
  -23.3995  -30.4921   21.5509 C   0  0  2  0  0  0
  -24.8448  -28.9581   20.1154 C   0  0  0  0  0  0
  -22.7397  -29.4658   22.4997 C   0  0  0  0  0  0
  -18.0266  -28.1372   22.8488 C   0  0  0  0  0  0
  -24.1486  -36.7315   23.2639 C   0  0  0  0  0  0
  -25.9277  -30.8354   21.3628 C   0  0  0  0  0  0
  -26.0036  -29.4705   20.7098 C   0  0  0  0  0  0
  -27.1995  -28.7189   20.6937 C   0  0  0  0  0  0
  -26.0532  -26.9396   19.4955 C   0  0  0  0  0  0
  -24.8638  -27.6917   19.5077 C   0  0  0  0  0  0
  -23.6065  -29.8240   20.1656 C   0  0  0  0  0  0
  -25.4104  -36.3113   24.0339 C   0  0  1  0  0  0
  -20.5853  -28.3654   23.1328 C   0  0  2  0  0  0
  -20.6751  -26.9395   22.5424 C   0  0  0  0  0  0
  -19.5741  -26.6384   21.5209 C   0  0  0  0  0  0
  -18.1915  -26.7924   22.1611 C   0  0  0  0  0  0
  -19.1515  -28.8827   23.2904 C   0  0  0  0  0  0
  -18.9447  -30.1436   23.8913 C   0  0  0  0  0  0
  -17.6452  -30.6582   24.0561 C   0  0  0  0  0  0
  -25.9031  -34.9480   23.5126 C   0  0  0  0  0  0
  -16.5340  -29.9083   23.6325 C   0  0  0  0  0  0
  -16.7255  -28.6501   23.0346 C   0  0  0  0  0  0
  -26.4465  -31.6603   25.0724 C   0  0  0  0  0  0
  -25.3741  -31.3715   26.1481 C   0  0  0  0  0  0
  -27.0287  -30.3044   24.6096 C   0  0  0  0  0  0
  -27.6045  -32.4324   25.7480 C   0  0  0  0  0  0
  -27.5585  -37.1806   24.8457 C   0  0  0  0  0  0
  -21.4127  -29.3024   22.3740 N   0  0  0  0  0  0
  -26.4289  -37.3799   23.9418 N   0  0  0  0  0  0
  -24.6648  -31.0799   22.0997 N   0  0  0  0  0  0
  -23.4178  -28.8199   23.3030 O   0  0  0  0  0  0
  -28.4262  -26.7423   20.1034 O   0  0  0  0  0  0
  -26.5593  -34.8933   22.4686 O   0  0  0  0  0  0
  -23.5327  -32.1431   23.7508 O   0  0  0  0  0  0
  -31.5031  -21.7342   18.7182 C   0  0  0  0  0  0
  -29.3067  -17.9192   21.2608 C   0  0  0  0  0  0
  -31.2180  -17.4442   19.7535 C   0  0  0  0  0  0
  -31.4274  -23.2324   19.0088 C   0  0  0  0  0  0
  -29.5905  -22.3082   20.0522 C   0  0  0  0  0  0
  -29.1222  -19.3051   20.5838 C   0  0  0  0  0  0
  -31.0054  -18.8101   19.0747 C   0  0  0  0  0  0
  -29.8859  -16.8774   20.2833 C   0  0  1  0  0  0
  -30.1866  -21.1325   19.2426 C   0  0  2  0  0  0
  -29.8319  -24.7826   19.9270 C   0  0  0  0  0  0
  -28.4268  -25.3712   19.6949 C   0  0  0  0  0  0
  -30.0163  -23.4794   19.2760 N   0  0  0  0  0  0
  -29.9037  -15.5103   20.8566 N   0  0  0  0  0  0
  -30.3775  -19.8314   19.9664 N   0  3  1  0  0  0
  -31.4681  -12.3695   19.1351 H   0  0  0  0  0  0
  -30.3058  -11.2775   19.8318 H   0  0  0  0  0  0
  -29.7355  -11.7738   17.4314 H   0  0  0  0  0  0
  -29.6730  -13.4822   17.7795 H   0  0  0  0  0  0
  -27.8221  -11.3080   18.8155 H   0  0  0  0  0  0
  -27.3702  -12.6413   17.7871 H   0  0  0  0  0  0
  -27.7029  -14.2497   19.5700 H   0  0  0  0  0  0
  -28.6716  -11.9600   21.3584 H   0  0  0  0  0  0
  -28.4767  -13.6095   21.8697 H   0  0  0  0  0  0
  -25.2753   -9.5696   22.4748 H   0  0  0  0  0  0
  -24.0006   -7.4638   22.7467 H   0  0  0  0  0  0
  -21.0827   -8.8763   19.8963 H   0  0  0  0  0  0
  -22.3676  -10.9663   19.6160 H   0  0  0  0  0  0
  -21.1997   -7.6143   23.9712 H   0  0  0  0  0  0
  -21.1484   -6.0516   25.9076 H   0  0  0  0  0  0
  -22.0599   -2.7601   23.2844 H   0  0  0  0  0  0
  -22.4091  -11.9901   22.4789 H   0  0  0  0  0  0
  -21.1116  -13.1285   22.2605 H   0  0  0  0  0  0
  -24.6653  -15.8426   20.5141 H   0  0  0  0  0  0
  -26.2838  -15.6242   20.0800 H   0  0  0  0  0  0
  -26.7098  -32.5534   23.1163 H   0  0  0  0  0  0
  -25.0054  -33.9788   25.0472 H   0  0  0  0  0  0
  -22.6872  -31.3080   21.4129 H   0  0  0  0  0  0
  -23.3754  -35.9642   23.3290 H   0  0  0  0  0  0
  -24.3587  -36.8938   22.2057 H   0  0  0  0  0  0
  -23.7232  -37.6516   23.6657 H   0  0  0  0  0  0
  -26.0410  -31.6029   20.5957 H   0  0  0  0  0  0
  -26.8151  -30.8868   21.9817 H   0  0  0  0  0  0
  -28.0959  -29.1143   21.1507 H   0  0  0  0  0  0
  -26.0264  -25.9730   19.0148 H   0  0  0  0  0  0
  -23.9714  -27.2905   19.0469 H   0  0  0  0  0  0
  -23.7129  -30.5973   19.4040 H   0  0  0  0  0  0
  -22.7313  -29.2417   19.8723 H   0  0  0  0  0  0
  -25.1279  -36.1974   25.0833 H   0  0  0  0  0  0
  -20.9941  -28.3218   24.1450 H   0  0  0  0  0  0
  -20.5645  -26.2264   23.3605 H   0  0  0  0  0  0
  -21.6628  -26.7436   22.1230 H   0  0  0  0  0  0
  -19.6903  -25.6299   21.1230 H   0  0  0  0  0  0
  -19.6691  -27.3198   20.6744 H   0  0  0  0  0  0
  -17.4195  -26.6684   21.4001 H   0  0  0  0  0  0
  -18.0303  -26.0057   22.8994 H   0  0  0  0  0  0
  -19.7925  -30.7237   24.2299 H   0  0  0  0  0  0
  -17.5012  -31.6265   24.5155 H   0  0  0  0  0  0
  -15.5342  -30.2989   23.7649 H   0  0  0  0  0  0
  -15.8654  -28.0826   22.7053 H   0  0  0  0  0  0
  -24.5912  -30.7055   25.7833 H   0  0  0  0  0  0
  -24.8931  -32.2872   26.4932 H   0  0  0  0  0  0
  -25.8105  -30.8895   27.0238 H   0  0  0  0  0  0
  -26.2822  -29.6818   24.1148 H   0  0  0  0  0  0
  -27.4051  -29.7271   25.4552 H   0  0  0  0  0  0
  -27.8664  -30.4358   23.9242 H   0  0  0  0  0  0
  -27.2658  -33.3602   26.2106 H   0  0  0  0  0  0
  -28.3827  -32.6923   25.0291 H   0  0  0  0  0  0
  -28.0750  -31.8425   26.5357 H   0  0  0  0  0  0
  -28.2593  -38.0114   24.7526 H   0  0  0  0  0  0
  -28.1088  -36.2648   24.6240 H   0  0  0  0  0  0
  -27.2315  -37.1411   25.8863 H   0  0  0  0  0  0
  -20.9282  -29.8753   21.6972 H   0  0  0  0  0  0
  -26.0175  -38.2877   24.1427 H   0  0  0  0  0  0
  -32.3881  -21.3286   19.2101 H   0  0  0  0  0  0
  -31.6091  -21.5474   17.6483 H   0  0  0  0  0  0
  -28.3411  -17.5810   21.6399 H   0  0  0  0  0  0
  -29.9581  -18.0148   22.1315 H   0  0  0  0  0  0
  -31.9510  -17.5251   20.5573 H   0  0  0  0  0  0
  -31.6478  -16.7887   18.9969 H   0  0  0  0  0  0
  -31.8010  -23.8366   18.1798 H   0  0  0  0  0  0
  -32.0272  -23.4669   19.8913 H   0  0  0  0  0  0
  -30.0158  -22.3450   21.0571 H   0  0  0  0  0  0
  -28.5042  -22.2487   20.1410 H   0  0  0  0  0  0
  -28.7518  -20.0134   21.3257 H   0  0  0  0  0  0
  -28.3497  -19.2315   19.8169 H   0  0  0  0  0  0
  -30.3810  -18.6763   18.1895 H   0  0  0  0  0  0
  -31.9724  -19.1546   18.7098 H   0  0  0  0  0  0
  -29.2031  -16.8060   19.4342 H   0  0  0  0  0  0
  -29.5271  -20.9563   18.3898 H   0  0  0  0  0  0
  -30.0690  -24.7322   20.9911 H   0  0  0  0  0  0
  -30.5434  -25.4862   19.4897 H   0  0  0  0  0  0
  -27.6863  -24.7986   20.2557 H   0  0  0  0  0  0
  -28.1752  -25.3093   18.6350 H   0  0  0  0  0  0
  -29.0265  -15.2189   21.2623 H   0  0  0  0  0  0
  -31.0239  -20.0072   20.7219 H   0  0  0  0  0  0
  1 25  1  0  0  0
  1 30  2  0  0  0
  1 83  1  0  0  0
  2  3  1  0  0  0
  2 25  1  0  0  0
  2 85  1  0  0  0
  2 86  1  0  0  0
  3  4  1  0  0  0
  3 87  1  0  0  0
  3 88  1  0  0  0
  4  5  1  0  0  0
  4 89  1  0  0  0
  4 90  1  0  0  0
  5  6  1  0  0  0
  5 26  1  0  0  0
  5 91  1  0  0  0
  6 25  1  0  0  0
  6 92  1  0  0  0
  6 93  1  0  0  0
  7  8  2  0  0  0
  7 26  1  0  0  0
  7 29  1  0  0  0
  8  9  1  0  0  0
  8 22  1  0  0  0
  9 10  1  0  0  0
  9 27  2  0  0  0
 10 11  2  0  0  0
 10 15  1  0  0  0
 11 12  1  0  0  0
 11 94  1  0  0  0
 12 13  2  0  0  0
 12 95  1  0  0  0
 13 14  1  0  0  0
 13 31  1  0  0  0
 14 15  2  0  0  0
 14 96  1  0  0  0
 15 97  1  0  0  0
 16 17  2  0  0  0
 16 21  1  0  0  0
 16 31  1  0  0  0
 17 18  1  0  0  0
 17 98  1  0  0  0
 18 19  2  0  0  0
 18 99  1  0  0  0
 19 20  1  0  0  0
 19 24  1  0  0  0
 20 21  2  0  0  0
 20100  1  0  0  0
 21 23  1  0  0  0
 22 28  1  0  0  0
 22 32  2  0  0  0
 26 27  1  0  0  0
 28101  1  0  0  0
 28102  1  0  0  0
 29103  1  0  0  0
 29104  1  0  0  0
 33 34  1  0  0  0
 33 66  1  0  0  0
 33 70  2  0  0  0
 34 36  1  0  0  0
 34 59  1  0  0  0
 34105  1  0  0  0
 35 44  2  0  0  0
 35 45  1  0  0  0
 35 68  1  0  0  0
 36 56  1  0  0  0
 36106  1  0  0  0
 37 39  1  0  0  0
 37 47  1  0  0  0
 37 66  1  0  0  0
 37107  1  0  0  0
 38 43  2  0  0  0
 38 46  1  0  0  0
 38 47  1  0  0  0
 39 64  1  0  0  0
 39 67  2  0  0  0
 40 52  1  0  0  0
 40 53  2  0  0  0
 40 58  1  0  0  0
 41108  1  0  0  0
 41109  1  0  0  0
 41110  1  0  0  0
 41 48  1  0  0  0
 42 43  1  0  0  0
 42 66  1  0  0  0
 42111  1  0  0  0
 42112  1  0  0  0
 43 44  1  0  0  0
 44113  1  0  0  0
 45 46  2  0  0  0
 45114  1  0  0  0
 46115  1  0  0  0
 47116  1  0  0  0
 47117  1  0  0  0
 48 56  1  0  0  0
 48 65  1  0  0  0
 48118  1  0  0  0
 49 50  1  0  0  0
 49 53  1  0  0  0
 49 64  1  0  0  0
 49119  1  0  0  0
 50 51  1  0  0  0
 50120  1  0  0  0
 50121  1  0  0  0
 51 52  1  0  0  0
 51122  1  0  0  0
 51123  1  0  0  0
 52124  1  0  0  0
 52125  1  0  0  0
 53 54  1  0  0  0
 54 55  2  0  0  0
 54126  1  0  0  0
 55 57  1  0  0  0
 55127  1  0  0  0
 56 69  2  0  0  0
 57 58  2  0  0  0
 57128  1  0  0  0
 58129  1  0  0  0
 59 60  1  0  0  0
 59 61  1  0  0  0
 59 62  1  0  0  0
 60130  1  0  0  0
 60131  1  0  0  0
 60132  1  0  0  0
 61133  1  0  0  0
 61134  1  0  0  0
 61135  1  0  0  0
 62136  1  0  0  0
 62137  1  0  0  0
 62138  1  0  0  0
 63 65  1  0  0  0
 63139  1  0  0  0
 63140  1  0  0  0
 63141  1  0  0  0
 64142  1  0  0  0
 65143  1  0  0  0
 68 81  1  0  0  0
 71 74  1  0  0  0
 71144  1  0  0  0
 71145  1  0  0  0
 71 79  1  0  0  0
 72 76  1  0  0  0
 72 78  1  0  0  0
 72146  1  0  0  0
 72147  1  0  0  0
 73 77  1  0  0  0
 73 78  1  0  0  0
 73148  1  0  0  0
 73149  1  0  0  0
 74 82  1  0  0  0
 74150  1  0  0  0
 74151  1  0  0  0
 75 79  1  0  0  0
 75 82  1  0  0  0
 75152  1  0  0  0
 75153  1  0  0  0
 76154  1  0  0  0
 76155  1  0  0  0
 76 84  1  0  0  0
 77 84  1  0  0  0
 77156  1  0  0  0
 77157  1  0  0  0
 78 83  1  0  0  0
 78158  1  0  0  0
 79 84  1  0  0  0
 79159  1  0  0  0
 80 81  1  0  0  0
 80 82  1  0  0  0
 80160  1  0  0  0
 80161  1  0  0  0
 81162  1  0  0  0
 81163  1  0  0  0
 83164  1  0  0  0
 84165  1  0  0  0
M  CHG  1  84   1
M  ISO  4   1 100  68 101  81 101  83 100
M  END
> <chiral flag>
0

> <version>
0

> <s_m_source_file>
/data/baiqing/PycharmProjects/Reinvent-master-3.2/result/LINK_invent/BTK/process_docking_weight1_custom_sum_contain_oxygen_bond_distance_aromatic_linkinvent_7_9_3/rearranged_h_0133.sdf

> <i_m_source_file_index>
63

> <r_mmod_Potential_Energy-OPLS-2005>
-2.563880443573

> <r_mmod_Stretch_Energy-OPLS-2005>
38.2900772094727

> <r_mmod_Bend_Energy-OPLS-2005>
134.398681640625

> <r_mmod_Torsional_Energy-OPLS-2005>
300.212463378906

> <r_mmod_Improper_Torsional_Energy-OPLS-2005>
7.55009889602661

> <r_mmod_Van_der_Waal_Energy-OPLS-2005>
145.873962402344

> <r_mmod_Electrostatic_Energy-OPLS-2005>
-188.493560791016

> <r_mmod_Solvation_Energy-OPLS-2005>
-453.867401123047

> <b_mmod_Minimization_Converged-OPLS-2005>
0

> <r_mmod_RMS_Derivative-OPLS-2005>
0.830510377883911

$$$$
64
                    3D
 Structure written by MMmdl.
155163  0  0  1  0            999 V2000
  -30.6713  -14.5364   20.5182 C   0  0  0  0  0  0
  -30.4247  -12.3301   19.4407 C   0  0  0  0  0  0
  -29.4999  -12.4919   18.2159 C   0  0  0  0  0  0
  -28.0215  -12.3484   18.6275 C   0  0  0  0  0  0
  -27.6564  -13.2113   19.8660 C   0  0  2  0  0  0
  -28.6985  -13.0377   20.9950 C   0  0  0  0  0  0
  -25.2573  -13.8176   20.5688 C   0  0  0  0  0  0
  -24.1839  -13.0445   20.9208 C   0  0  0  0  0  0
  -24.6401  -11.6912   20.8752 C   0  0  0  0  0  0
  -23.9070  -10.4298   21.0409 C   0  0  0  0  0  0
  -24.3622   -9.4210   21.9180 C   0  0  0  0  0  0
  -23.6297   -8.2250   22.0746 C   0  0  0  0  0  0
  -22.4278   -8.0287   21.3540 C   0  0  0  0  0  0
  -21.9914   -9.0261   20.4645 C   0  0  0  0  0  0
  -22.7245  -10.2139   20.3053 C   0  0  0  0  0  0
  -21.6862   -6.0746   22.5279 C   0  0  0  0  0  0
  -21.4022   -6.5646   23.8214 C   0  0  0  0  0  0
  -21.3658   -5.6795   24.9173 C   0  0  0  0  0  0
  -21.6047   -4.3059   24.7218 C   0  0  0  0  0  0
  -21.8818   -3.8154   23.4340 C   0  0  0  0  0  0
  -21.9193   -4.6973   22.3401 C   0  0  0  0  0  0
  -22.7860  -13.5249   21.1854 C   0  0  0  0  0  0
  -22.1663   -4.2158   21.0978 F   0  0  0  0  0  0
  -21.5616   -3.4535   25.7725 F   0  0  0  0  0  0
  -30.0237  -13.3410   20.4340 N   0  0  0  0  0  0
  -26.2999  -12.9349   20.3328 N   0  0  0  0  0  0
  -25.9322  -11.6507   20.5756 N   0  0  0  0  0  0
  -22.0490  -12.8243   22.0402 N   0  0  0  0  0  0
  -25.4290  -15.1899   20.4102 N   0  0  0  0  0  0
  -31.8258  -14.6939   20.1115 O   0  0  0  0  0  0
  -21.6640   -6.8888   21.4242 O   0  0  0  0  0  0
  -22.3550  -14.5549   20.6685 O   0  0  0  0  0  0
  -24.6167  -31.8659   23.2079 C   0  0  0  0  0  0
  -25.9053  -32.4812   23.8383 C   0  0  1  0  0  0
  -27.2287  -27.3978   20.0970 C   0  0  0  0  0  0
  -25.5908  -33.8614   24.2317 N   0  0  0  0  0  0
  -23.4054  -30.4899   21.5493 C   0  0  2  0  0  0
  -24.8497  -28.9511   20.1120 C   0  0  0  0  0  0
  -22.7424  -29.4650   22.4977 C   0  0  0  0  0  0
  -18.0280  -28.1370   22.8495 C   0  0  0  0  0  0
  -24.1496  -36.7306   23.2640 C   0  0  0  0  0  0
  -25.9380  -30.8192   21.3676 C   0  0  0  0  0  0
  -26.0111  -29.4520   20.7112 C   0  0  0  0  0  0
  -27.2001  -28.6819   20.7005 C   0  0  0  0  0  0
  -26.0455  -26.9202   19.4904 C   0  0  0  0  0  0
  -24.8634  -27.6871   19.4986 C   0  0  0  0  0  0
  -23.6146  -29.8231   20.1626 C   0  0  0  0  0  0
  -25.4117  -36.3109   24.0338 C   0  0  1  0  0  0
  -20.5873  -28.3661   23.1317 C   0  0  2  0  0  0
  -20.6774  -26.9395   22.5421 C   0  0  0  0  0  0
  -19.5754  -26.6380   21.5217 C   0  0  0  0  0  0
  -18.1929  -26.7922   22.1619 C   0  0  0  0  0  0
  -19.1529  -28.8833   23.2906 C   0  0  0  0  0  0
  -18.9452  -30.1438   23.8917 C   0  0  0  0  0  0
  -17.6453  -30.6580   24.0563 C   0  0  0  0  0  0
  -25.9042  -34.9471   23.5125 C   0  0  0  0  0  0
  -16.5344  -29.9078   23.6325 C   0  0  0  0  0  0
  -16.7268  -28.6491   23.0353 C   0  0  0  0  0  0
  -26.4470  -31.6596   25.0719 C   0  0  0  0  0  0
  -25.3733  -31.3708   26.1465 C   0  0  0  0  0  0
  -27.0303  -30.3036   24.6112 C   0  0  0  0  0  0
  -27.6052  -32.4315   25.7473 C   0  0  0  0  0  0
  -27.5586  -37.1814   24.8468 C   0  0  0  0  0  0
  -21.4149  -29.3029   22.3722 N   0  0  0  0  0  0
  -26.4307  -37.3786   23.9401 N   0  0  0  0  0  0
  -24.6714  -31.0737   22.0996 N   0  0  0  0  0  0
  -23.4186  -28.8202   23.3036 O   0  0  0  0  0  0
  -28.4035  -26.6614   20.1380 O   0  0  0  0  0  0
  -26.5598  -34.8925   22.4685 O   0  0  0  0  0  0
  -23.5351  -32.1434   23.7454 O   0  0  0  0  0  0
  -30.2970  -22.0826   22.3885 C   0  0  0  0  0  0
  -29.5553  -23.1688   21.8869 C   0  0  0  0  0  0
  -30.1433  -20.7931   21.8409 C   0  0  0  0  0  0
  -28.5118  -21.6796   20.2647 C   0  0  0  0  0  0
  -28.6465  -22.9853   20.8254 C   0  0  0  0  0  0
  -29.2510  -20.5674   20.7705 C   0  0  0  0  0  0
  -27.7753  -24.1825   20.3839 C   0  0  0  0  0  0
  -29.1622  -18.0465   21.0137 C   0  0  0  0  0  0
  -30.2525  -17.0166   20.5753 C   0  0  0  0  0  0
  -28.4837  -25.3236   19.5852 C   0  0  0  0  0  0
  -29.1166  -19.2788   20.1981 N   0  0  0  0  0  0
  -29.9088  -15.6024   20.8559 N   0  0  0  0  0  0
  -31.4692  -12.4302   19.1416 H   0  0  0  0  0  0
  -30.3302  -11.3293   19.8639 H   0  0  0  0  0  0
  -29.7503  -11.7500   17.4562 H   0  0  0  0  0  0
  -29.6613  -13.4679   17.7553 H   0  0  0  0  0  0
  -27.8432  -11.2948   18.8474 H   0  0  0  0  0  0
  -27.3710  -12.5943   17.7877 H   0  0  0  0  0  0
  -27.6871  -14.2517   19.5400 H   0  0  0  0  0  0
  -28.6841  -12.0164   21.3776 H   0  0  0  0  0  0
  -28.4608  -13.6773   21.8458 H   0  0  0  0  0  0
  -25.2760   -9.5702   22.4757 H   0  0  0  0  0  0
  -24.0012   -7.4650   22.7467 H   0  0  0  0  0  0
  -21.0842   -8.8784   19.8960 H   0  0  0  0  0  0
  -22.3696  -10.9679   19.6165 H   0  0  0  0  0  0
  -21.2022   -7.6154   23.9728 H   0  0  0  0  0  0
  -21.1480   -6.0519   25.9082 H   0  0  0  0  0  0
  -22.0598   -2.7618   23.2832 H   0  0  0  0  0  0
  -22.4103  -11.9910   22.4807 H   0  0  0  0  0  0
  -21.1111  -13.1278   22.2597 H   0  0  0  0  0  0
  -24.6601  -15.8422   20.5166 H   0  0  0  0  0  0
  -26.2714  -15.6274   20.0584 H   0  0  0  0  0  0
  -26.7116  -32.5507   23.1135 H   0  0  0  0  0  0
  -25.0084  -33.9776   25.0478 H   0  0  0  0  0  0
  -22.6955  -31.3076   21.4105 H   0  0  0  0  0  0
  -23.3752  -35.9646   23.3325 H   0  0  0  0  0  0
  -24.3585  -36.8895   22.2049 H   0  0  0  0  0  0
  -23.7257  -37.6523   23.6635 H   0  0  0  0  0  0
  -26.0603  -31.5870   20.6022 H   0  0  0  0  0  0
  -26.8225  -30.8667   21.9914 H   0  0  0  0  0  0
  -28.0957  -29.0661   21.1686 H   0  0  0  0  0  0
  -26.0089  -25.9526   19.0131 H   0  0  0  0  0  0
  -23.9689  -27.2959   19.0330 H   0  0  0  0  0  0
  -23.7267  -30.5999   19.4057 H   0  0  0  0  0  0
  -22.7368  -29.2467   19.8646 H   0  0  0  0  0  0
  -25.1298  -36.1978   25.0832 H   0  0  0  0  0  0
  -20.9969  -28.3231   24.1437 H   0  0  0  0  0  0
  -20.5693  -26.2266   23.3607 H   0  0  0  0  0  0
  -21.6644  -26.7455   22.1205 H   0  0  0  0  0  0
  -19.6920  -25.6295   21.1237 H   0  0  0  0  0  0
  -19.6699  -27.3199   20.6756 H   0  0  0  0  0  0
  -17.4212  -26.6691   21.4006 H   0  0  0  0  0  0
  -18.0314  -26.0050   22.9000 H   0  0  0  0  0  0
  -19.7926  -30.7248   24.2300 H   0  0  0  0  0  0
  -17.5005  -31.6263   24.5157 H   0  0  0  0  0  0
  -15.5342  -30.2982   23.7635 H   0  0  0  0  0  0
  -15.8672  -28.0809   22.7063 H   0  0  0  0  0  0
  -24.5904  -30.7060   25.7794 H   0  0  0  0  0  0
  -24.8918  -32.2866   26.4909 H   0  0  0  0  0  0
  -25.8080  -30.8872   27.0224 H   0  0  0  0  0  0
  -26.2851  -29.6793   24.1170 H   0  0  0  0  0  0
  -27.4073  -29.7276   25.4573 H   0  0  0  0  0  0
  -27.8686  -30.4344   23.9265 H   0  0  0  0  0  0
  -27.2680  -33.3611   26.2067 H   0  0  0  0  0  0
  -28.3840  -32.6885   25.0282 H   0  0  0  0  0  0
  -28.0742  -31.8430   26.5366 H   0  0  0  0  0  0
  -28.2623  -38.0091   24.7492 H   0  0  0  0  0  0
  -28.1065  -36.2625   24.6329 H   0  0  0  0  0  0
  -27.2304  -37.1508   25.8871 H   0  0  0  0  0  0
  -20.9314  -29.8722   21.6918 H   0  0  0  0  0  0
  -26.0201  -38.2874   24.1370 H   0  0  0  0  0  0
  -30.9865  -22.2374   23.2071 H   0  0  0  0  0  0
  -29.6731  -24.1468   22.3345 H   0  0  0  0  0  0
  -30.7358  -19.9856   22.2461 H   0  0  0  0  0  0
  -27.8124  -21.5306   19.4533 H   0  0  0  0  0  0
  -27.3231  -24.6065   21.2812 H   0  0  0  0  0  0
  -26.9361  -23.8080   19.7977 H   0  0  0  0  0  0
  -29.2559  -18.2709   22.0775 H   0  0  0  0  0  0
  -28.1804  -17.5825   20.9055 H   0  0  0  0  0  0
  -31.2073  -17.2652   21.0418 H   0  0  0  0  0  0
  -30.4126  -17.0955   19.4990 H   0  0  0  0  0  0
  -28.1464  -25.3243   18.5477 H   0  0  0  0  0  0
  -29.5479  -25.0925   19.5237 H   0  0  0  0  0  0
  -28.5134  -19.2216   19.3802 H   0  0  0  0  0  0
  -28.9690  -15.4050   21.1645 H   0  0  0  0  0  0
  1 25  1  0  0  0
  1 30  2  0  0  0
  1 82  1  0  0  0
  2  3  1  0  0  0
  2 25  1  0  0  0
  2 83  1  0  0  0
  2 84  1  0  0  0
  3  4  1  0  0  0
  3 85  1  0  0  0
  3 86  1  0  0  0
  4  5  1  0  0  0
  4 87  1  0  0  0
  4 88  1  0  0  0
  5  6  1  0  0  0
  5 26  1  0  0  0
  5 89  1  0  0  0
  6 25  1  0  0  0
  6 90  1  0  0  0
  6 91  1  0  0  0
  7  8  2  0  0  0
  7 26  1  0  0  0
  7 29  1  0  0  0
  8  9  1  0  0  0
  8 22  1  0  0  0
  9 10  1  0  0  0
  9 27  2  0  0  0
 10 11  2  0  0  0
 10 15  1  0  0  0
 11 12  1  0  0  0
 11 92  1  0  0  0
 12 13  2  0  0  0
 12 93  1  0  0  0
 13 14  1  0  0  0
 13 31  1  0  0  0
 14 15  2  0  0  0
 14 94  1  0  0  0
 15 95  1  0  0  0
 16 17  2  0  0  0
 16 21  1  0  0  0
 16 31  1  0  0  0
 17 18  1  0  0  0
 17 96  1  0  0  0
 18 19  2  0  0  0
 18 97  1  0  0  0
 19 20  1  0  0  0
 19 24  1  0  0  0
 20 21  2  0  0  0
 20 98  1  0  0  0
 21 23  1  0  0  0
 22 28  1  0  0  0
 22 32  2  0  0  0
 26 27  1  0  0  0
 28 99  1  0  0  0
 28100  1  0  0  0
 29101  1  0  0  0
 29102  1  0  0  0
 33 34  1  0  0  0
 33 66  1  0  0  0
 33 70  2  0  0  0
 34 36  1  0  0  0
 34 59  1  0  0  0
 34103  1  0  0  0
 35 44  2  0  0  0
 35 45  1  0  0  0
 35 68  1  0  0  0
 36 56  1  0  0  0
 36104  1  0  0  0
 37 39  1  0  0  0
 37 47  1  0  0  0
 37 66  1  0  0  0
 37105  1  0  0  0
 38 43  2  0  0  0
 38 46  1  0  0  0
 38 47  1  0  0  0
 39 64  1  0  0  0
 39 67  2  0  0  0
 40 52  1  0  0  0
 40 53  2  0  0  0
 40 58  1  0  0  0
 41106  1  0  0  0
 41107  1  0  0  0
 41108  1  0  0  0
 41 48  1  0  0  0
 42 43  1  0  0  0
 42 66  1  0  0  0
 42109  1  0  0  0
 42110  1  0  0  0
 43 44  1  0  0  0
 44111  1  0  0  0
 45 46  2  0  0  0
 45112  1  0  0  0
 46113  1  0  0  0
 47114  1  0  0  0
 47115  1  0  0  0
 48 56  1  0  0  0
 48 65  1  0  0  0
 48116  1  0  0  0
 49 50  1  0  0  0
 49 53  1  0  0  0
 49 64  1  0  0  0
 49117  1  0  0  0
 50 51  1  0  0  0
 50118  1  0  0  0
 50119  1  0  0  0
 51 52  1  0  0  0
 51120  1  0  0  0
 51121  1  0  0  0
 52122  1  0  0  0
 52123  1  0  0  0
 53 54  1  0  0  0
 54 55  2  0  0  0
 54124  1  0  0  0
 55 57  1  0  0  0
 55125  1  0  0  0
 56 69  2  0  0  0
 57 58  2  0  0  0
 57126  1  0  0  0
 58127  1  0  0  0
 59 60  1  0  0  0
 59 61  1  0  0  0
 59 62  1  0  0  0
 60128  1  0  0  0
 60129  1  0  0  0
 60130  1  0  0  0
 61131  1  0  0  0
 61132  1  0  0  0
 61133  1  0  0  0
 62134  1  0  0  0
 62135  1  0  0  0
 62136  1  0  0  0
 63 65  1  0  0  0
 63137  1  0  0  0
 63138  1  0  0  0
 63139  1  0  0  0
 64140  1  0  0  0
 65141  1  0  0  0
 68 80  1  0  0  0
 71 72  2  0  0  0
 71 73  1  0  0  0
 71142  1  0  0  0
 72 75  1  0  0  0
 72143  1  0  0  0
 73 76  2  0  0  0
 73144  1  0  0  0
 74 75  2  0  0  0
 74 76  1  0  0  0
 74145  1  0  0  0
 75 77  1  0  0  0
 76 81  1  0  0  0
 77 80  1  0  0  0
 77146  1  0  0  0
 77147  1  0  0  0
 78 79  1  0  0  0
 78 81  1  0  0  0
 78148  1  0  0  0
 78149  1  0  0  0
 79 82  1  0  0  0
 79150  1  0  0  0
 79151  1  0  0  0
 80152  1  0  0  0
 80153  1  0  0  0
 81154  1  0  0  0
 82155  1  0  0  0
M  ISO  4   1 100  68 101  80 101  82 100
M  END
> <chiral flag>
0

> <version>
0

> <s_m_source_file>
/data/baiqing/PycharmProjects/Reinvent-master-3.2/result/LINK_invent/BTK/process_docking_weight1_custom_sum_contain_oxygen_bond_distance_aromatic_linkinvent_7_9_3/rearranged_h_0133.sdf

> <i_m_source_file_index>
64

> <r_mmod_Potential_Energy-OPLS-2005>
-93.5712051391602

> <r_mmod_Stretch_Energy-OPLS-2005>
46.1567916870117

> <r_mmod_Bend_Energy-OPLS-2005>
113.78515625

> <r_mmod_Torsional_Energy-OPLS-2005>
207.238006591797

> <r_mmod_Improper_Torsional_Energy-OPLS-2005>
8.16841220855713

> <r_mmod_Van_der_Waal_Energy-OPLS-2005>
146.161361694336

> <r_mmod_Electrostatic_Energy-OPLS-2005>
-411.723022460938

> <r_mmod_Solvation_Energy-OPLS-2005>
-225.199203491211

> <b_mmod_Minimization_Converged-OPLS-2005>
0

> <r_mmod_RMS_Derivative-OPLS-2005>
1.51962244510651

$$$$
65
                    3D
 Structure written by MMmdl.
156164  0  0  1  0            999 V2000
  -30.5404  -14.8605   20.4384 C   0  0  0  0  0  0
  -30.4464  -12.5266   19.4845 C   0  0  0  0  0  0
  -29.5191  -12.5296   18.2449 C   0  0  0  0  0  0
  -28.0491  -12.3278   18.6594 C   0  0  0  0  0  0
  -27.6412  -13.2364   19.8488 C   0  0  2  0  0  0
  -28.6861  -13.1969   20.9869 C   0  0  0  0  0  0
  -25.2519  -13.8194   20.5694 C   0  0  0  0  0  0
  -24.1808  -13.0434   20.9191 C   0  0  0  0  0  0
  -24.6401  -11.6914   20.8717 C   0  0  0  0  0  0
  -23.9066  -10.4290   21.0374 C   0  0  0  0  0  0
  -24.3613   -9.4214   21.9162 C   0  0  0  0  0  0
  -23.6301   -8.2248   22.0733 C   0  0  0  0  0  0
  -22.4291   -8.0277   21.3531 C   0  0  0  0  0  0
  -21.9911   -9.0236   20.4625 C   0  0  0  0  0  0
  -22.7233  -10.2121   20.3029 C   0  0  0  0  0  0
  -21.6852   -6.0726   22.5278 C   0  0  0  0  0  0
  -21.4011   -6.5634   23.8208 C   0  0  0  0  0  0
  -21.3671   -5.6788   24.9168 C   0  0  0  0  0  0
  -21.6058   -4.3052   24.7226 C   0  0  0  0  0  0
  -21.8824   -3.8137   23.4347 C   0  0  0  0  0  0
  -21.9189   -4.6952   22.3400 C   0  0  0  0  0  0
  -22.7824  -13.5218   21.1864 C   0  0  0  0  0  0
  -22.1662   -4.2133   21.0973 F   0  0  0  0  0  0
  -21.5640   -3.4536   25.7738 F   0  0  0  0  0  0
  -29.9797  -13.5908   20.4103 N   0  0  0  0  0  0
  -26.2943  -12.9411   20.3257 N   0  0  0  0  0  0
  -25.9334  -11.6549   20.5716 N   0  0  0  0  0  0
  -22.0465  -12.8196   22.0414 N   0  0  0  0  0  0
  -25.4204  -15.1920   20.4150 N   0  0  0  0  0  0
  -31.7195  -14.9979   20.0892 O   0  0  0  0  0  0
  -21.6654   -6.8875   21.4243 O   0  0  0  0  0  0
  -22.3505  -14.5527   20.6713 O   0  0  0  0  0  0
  -24.6387  -31.8456   23.1915 C   0  0  0  0  0  0
  -25.9190  -32.4693   23.8283 C   0  0  1  0  0  0
  -27.2304  -27.1834   20.1430 C   0  0  0  0  0  0
  -25.5964  -33.8493   24.2209 N   0  0  0  0  0  0
  -23.4400  -30.4650   21.5346 C   0  0  2  0  0  0
  -24.8893  -28.8958   20.1095 C   0  0  0  0  0  0
  -22.7531  -29.4574   22.4886 C   0  0  0  0  0  0
  -18.0289  -28.1397   22.8490 C   0  0  0  0  0  0
  -24.1488  -36.7268   23.2647 C   0  0  0  0  0  0
  -25.9892  -30.7367   21.3792 C   0  0  0  0  0  0
  -26.0618  -29.3506   20.7236 C   0  0  0  0  0  0
  -27.2288  -28.5087   20.7261 C   0  0  0  0  0  0
  -26.0277  -26.8132   19.4989 C   0  0  0  0  0  0
  -24.8817  -27.6381   19.4859 C   0  0  0  0  0  0
  -23.6614  -29.7897   20.1539 C   0  0  0  0  0  0
  -25.4114  -36.3023   24.0326 C   0  0  1  0  0  0
  -20.5899  -28.3728   23.1246 C   0  0  2  0  0  0
  -20.6764  -26.9430   22.5422 C   0  0  0  0  0  0
  -19.5747  -26.6387   21.5224 C   0  0  0  0  0  0
  -18.1933  -26.7946   22.1617 C   0  0  0  0  0  0
  -19.1549  -28.8878   23.2865 C   0  0  0  0  0  0
  -18.9470  -30.1475   23.8889 C   0  0  0  0  0  0
  -17.6469  -30.6594   24.0570 C   0  0  0  0  0  0
  -25.9072  -34.9394   23.5067 C   0  0  0  0  0  0
  -16.5354  -29.9090   23.6343 C   0  0  0  0  0  0
  -16.7276  -28.6501   23.0373 C   0  0  0  0  0  0
  -26.4540  -31.6555   25.0710 C   0  0  0  0  0  0
  -25.3755  -31.3731   26.1433 C   0  0  0  0  0  0
  -27.0433  -30.2960   24.6284 C   0  0  0  0  0  0
  -27.6071  -32.4331   25.7497 C   0  0  0  0  0  0
  -27.5568  -37.1772   24.8456 C   0  0  0  0  0  0
  -21.4228  -29.3060   22.3626 N   0  0  0  0  0  0
  -26.4253  -37.3756   23.9437 N   0  0  0  0  0  0
  -24.7091  -31.0365   22.0920 N   0  0  0  0  0  0
  -23.4187  -28.8136   23.3038 O   0  0  0  0  0  0
  -28.3276  -26.2684   20.2579 O   0  0  0  0  0  0
  -26.5666  -34.8896   22.4649 O   0  0  0  0  0  0
  -23.5527  -32.1296   23.7187 O   0  0  0  0  0  0
  -30.3934  -19.7203   19.6769 C   0  0  0  0  0  0
  -28.3602  -19.6313   20.8799 C   0  0  0  0  0  0
  -30.5914  -18.2925   19.8611 C   0  0  0  0  0  0
  -28.5541  -18.2080   21.0631 C   0  0  0  0  0  0
  -29.2624  -20.4709   20.1576 C   0  0  0  0  0  0
  -29.6624  -17.4508   20.5528 C   0  0  0  0  0  0
  -28.9363  -21.9998   19.6611 C   0  0  0  0  0  0
  -29.6157  -23.5431   21.7075 C   0  0  0  0  0  0
  -28.4098  -24.8355   19.6999 C   0  0  0  0  0  0
  -28.6407  -23.3948   20.5191 C   0  0  1  0  0  0
  -29.6964  -15.9433   20.7328 N   0  0  0  0  0  0
  -31.0160  -23.7854   21.3097 N   0  3  0  0  0  0
  -31.4803  -12.6835   19.1754 H   0  0  0  0  0  0
  -30.4295  -11.5533   19.9781 H   0  0  0  0  0  0
  -29.8205  -11.7517   17.5416 H   0  0  0  0  0  0
  -29.6211  -13.4760   17.7133 H   0  0  0  0  0  0
  -27.9254  -11.2799   18.9335 H   0  0  0  0  0  0
  -27.3872  -12.4997   17.8098 H   0  0  0  0  0  0
  -27.6259  -14.2536   19.4550 H   0  0  0  0  0  0
  -28.7499  -12.2018   21.4294 H   0  0  0  0  0  0
  -28.3952  -13.8691   21.7959 H   0  0  0  0  0  0
  -25.2752   -9.5698   22.4746 H   0  0  0  0  0  0
  -24.0002   -7.4640   22.7458 H   0  0  0  0  0  0
  -21.0839   -8.8748   19.8937 H   0  0  0  0  0  0
  -22.3678  -10.9651   19.6136 H   0  0  0  0  0  0
  -21.2003   -7.6143   23.9715 H   0  0  0  0  0  0
  -21.1492   -6.0508   25.9073 H   0  0  0  0  0  0
  -22.0596   -2.7596   23.2842 H   0  0  0  0  0  0
  -22.4069  -11.9856   22.4806 H   0  0  0  0  0  0
  -21.1079  -13.1208   22.2615 H   0  0  0  0  0  0
  -24.6505  -15.8416   20.5328 H   0  0  0  0  0  0
  -26.2662  -15.6382   20.0867 H   0  0  0  0  0  0
  -26.7254  -32.5310   23.1025 H   0  0  0  0  0  0
  -25.0080  -33.9618   25.0327 H   0  0  0  0  0  0
  -22.7428  -31.2911   21.3798 H   0  0  0  0  0  0
  -23.3749  -35.9603   23.3252 H   0  0  0  0  0  0
  -24.3574  -36.8958   22.2073 H   0  0  0  0  0  0
  -23.7226  -37.6439   23.6723 H   0  0  0  0  0  0
  -26.1311  -31.4936   20.6065 H   0  0  0  0  0  0
  -26.8637  -30.7897   22.0160 H   0  0  0  0  0  0
  -28.1213  -28.8566   21.2272 H   0  0  0  0  0  0
  -25.9214  -25.8481   19.0331 H   0  0  0  0  0  0
  -23.9824  -27.2799   19.0028 H   0  0  0  0  0  0
  -23.7865  -30.5601   19.3924 H   0  0  0  0  0  0
  -22.7790  -29.2213   19.8532 H   0  0  0  0  0  0
  -25.1286  -36.1839   25.0815 H   0  0  0  0  0  0
  -20.9993  -28.3312   24.1361 H   0  0  0  0  0  0
  -20.5627  -26.2361   23.3656 H   0  0  0  0  0  0
  -21.6632  -26.7423   22.1220 H   0  0  0  0  0  0
  -19.6903  -25.6292   21.1265 H   0  0  0  0  0  0
  -19.6679  -27.3189   20.6753 H   0  0  0  0  0  0
  -17.4207  -26.6737   21.4010 H   0  0  0  0  0  0
  -18.0296  -26.0068   22.8983 H   0  0  0  0  0  0
  -19.7951  -30.7309   24.2239 H   0  0  0  0  0  0
  -17.5016  -31.6267   24.5190 H   0  0  0  0  0  0
  -15.5353  -30.2994   23.7669 H   0  0  0  0  0  0
  -15.8670  -28.0810   22.7112 H   0  0  0  0  0  0
  -24.5960  -30.7043   25.7771 H   0  0  0  0  0  0
  -24.8926  -32.2898   26.4806 H   0  0  0  0  0  0
  -25.8059  -30.8950   27.0235 H   0  0  0  0  0  0
  -26.3051  -29.6666   24.1306 H   0  0  0  0  0  0
  -27.4072  -29.7288   25.4863 H   0  0  0  0  0  0
  -27.8938  -30.4228   23.9586 H   0  0  0  0  0  0
  -27.2660  -33.3656   26.2015 H   0  0  0  0  0  0
  -28.3910  -32.6845   25.0338 H   0  0  0  0  0  0
  -28.0720  -31.8495   26.5462 H   0  0  0  0  0  0
  -28.2530  -38.0118   24.7539 H   0  0  0  0  0  0
  -28.1102  -36.2642   24.6201 H   0  0  0  0  0  0
  -27.2304  -37.1320   25.8860 H   0  0  0  0  0  0
  -20.9449  -29.8776   21.6793 H   0  0  0  0  0  0
  -26.0106  -38.2806   24.1490 H   0  0  0  0  0  0
  -31.1258  -20.2453   19.0783 H   0  0  0  0  0  0
  -27.4489  -20.0670   21.2624 H   0  0  0  0  0  0
  -31.4656  -17.8375   19.4156 H   0  0  0  0  0  0
  -27.7810  -17.6730   21.5974 H   0  0  0  0  0  0
  -28.0732  -21.8831   19.0059 H   0  0  0  0  0  0
  -29.7428  -22.2445   18.9682 H   0  0  0  0  0  0
  -29.5774  -22.6431   22.3252 H   0  0  0  0  0  0
  -29.2895  -24.3625   22.3510 H   0  0  0  0  0  0
  -27.5988  -24.6624   18.9996 H   0  0  0  0  0  0
  -29.2743  -24.9084   19.0403 H   0  0  0  0  0  0
  -27.6781  -23.2096   20.9961 H   0  0  0  0  0  0
  -28.8290  -15.5878   21.1055 H   0  0  0  0  0  0
  -31.3694  -23.0408   20.7373 H   0  0  0  0  0  0
  -31.5905  -23.8388   22.1335 H   0  0  0  0  0  0
  -31.1112  -24.6555   20.8174 H   0  0  0  0  0  0
  1 25  1  0  0  0
  1 30  2  0  0  0
  1 81  1  0  0  0
  2  3  1  0  0  0
  2 25  1  0  0  0
  2 83  1  0  0  0
  2 84  1  0  0  0
  3  4  1  0  0  0
  3 85  1  0  0  0
  3 86  1  0  0  0
  4  5  1  0  0  0
  4 87  1  0  0  0
  4 88  1  0  0  0
  5  6  1  0  0  0
  5 26  1  0  0  0
  5 89  1  0  0  0
  6 25  1  0  0  0
  6 90  1  0  0  0
  6 91  1  0  0  0
  7  8  2  0  0  0
  7 26  1  0  0  0
  7 29  1  0  0  0
  8  9  1  0  0  0
  8 22  1  0  0  0
  9 10  1  0  0  0
  9 27  2  0  0  0
 10 11  2  0  0  0
 10 15  1  0  0  0
 11 12  1  0  0  0
 11 92  1  0  0  0
 12 13  2  0  0  0
 12 93  1  0  0  0
 13 14  1  0  0  0
 13 31  1  0  0  0
 14 15  2  0  0  0
 14 94  1  0  0  0
 15 95  1  0  0  0
 16 17  2  0  0  0
 16 21  1  0  0  0
 16 31  1  0  0  0
 17 18  1  0  0  0
 17 96  1  0  0  0
 18 19  2  0  0  0
 18 97  1  0  0  0
 19 20  1  0  0  0
 19 24  1  0  0  0
 20 21  2  0  0  0
 20 98  1  0  0  0
 21 23  1  0  0  0
 22 28  1  0  0  0
 22 32  2  0  0  0
 26 27  1  0  0  0
 28 99  1  0  0  0
 28100  1  0  0  0
 29101  1  0  0  0
 29102  1  0  0  0
 33 34  1  0  0  0
 33 66  1  0  0  0
 33 70  2  0  0  0
 34 36  1  0  0  0
 34 59  1  0  0  0
 34103  1  0  0  0
 35 44  2  0  0  0
 35 45  1  0  0  0
 35 68  1  0  0  0
 36 56  1  0  0  0
 36104  1  0  0  0
 37 39  1  0  0  0
 37 47  1  0  0  0
 37 66  1  0  0  0
 37105  1  0  0  0
 38 43  2  0  0  0
 38 46  1  0  0  0
 38 47  1  0  0  0
 39 64  1  0  0  0
 39 67  2  0  0  0
 40 52  1  0  0  0
 40 53  2  0  0  0
 40 58  1  0  0  0
 41106  1  0  0  0
 41107  1  0  0  0
 41108  1  0  0  0
 41 48  1  0  0  0
 42 43  1  0  0  0
 42 66  1  0  0  0
 42109  1  0  0  0
 42110  1  0  0  0
 43 44  1  0  0  0
 44111  1  0  0  0
 45 46  2  0  0  0
 45112  1  0  0  0
 46113  1  0  0  0
 47114  1  0  0  0
 47115  1  0  0  0
 48 56  1  0  0  0
 48 65  1  0  0  0
 48116  1  0  0  0
 49 50  1  0  0  0
 49 53  1  0  0  0
 49 64  1  0  0  0
 49117  1  0  0  0
 50 51  1  0  0  0
 50118  1  0  0  0
 50119  1  0  0  0
 51 52  1  0  0  0
 51120  1  0  0  0
 51121  1  0  0  0
 52122  1  0  0  0
 52123  1  0  0  0
 53 54  1  0  0  0
 54 55  2  0  0  0
 54124  1  0  0  0
 55 57  1  0  0  0
 55125  1  0  0  0
 56 69  2  0  0  0
 57 58  2  0  0  0
 57126  1  0  0  0
 58127  1  0  0  0
 59 60  1  0  0  0
 59 61  1  0  0  0
 59 62  1  0  0  0
 60128  1  0  0  0
 60129  1  0  0  0
 60130  1  0  0  0
 61131  1  0  0  0
 61132  1  0  0  0
 61133  1  0  0  0
 62134  1  0  0  0
 62135  1  0  0  0
 62136  1  0  0  0
 63 65  1  0  0  0
 63137  1  0  0  0
 63138  1  0  0  0
 63139  1  0  0  0
 64140  1  0  0  0
 65141  1  0  0  0
 68 79  1  0  0  0
 71 73  2  0  0  0
 71 75  1  0  0  0
 71142  1  0  0  0
 72 74  1  0  0  0
 72 75  2  0  0  0
 72143  1  0  0  0
 73 76  1  0  0  0
 73144  1  0  0  0
 74 76  2  0  0  0
 74145  1  0  0  0
 75 77  1  0  0  0
 76 81  1  0  0  0
 77146  1  0  0  0
 77147  1  0  0  0
 77 80  1  0  0  0
 78 80  1  0  0  0
 78 82  1  0  0  0
 78148  1  0  0  0
 78149  1  0  0  0
 79 80  1  0  0  0
 79150  1  0  0  0
 79151  1  0  0  0
 80152  1  0  0  0
 81153  1  0  0  0
 82154  1  0  0  0
 82155  1  0  0  0
 82156  1  0  0  0
M  CHG  1  82   1
M  ISO  4   1 100  68 101  79 101  81 100
M  END
> <chiral flag>
0

> <version>
0

> <s_m_source_file>
/data/baiqing/PycharmProjects/Reinvent-master-3.2/result/LINK_invent/BTK/process_docking_weight1_custom_sum_contain_oxygen_bond_distance_aromatic_linkinvent_7_9_3/rearranged_h_0133.sdf

> <i_m_source_file_index>
65

> <r_mmod_Potential_Energy-OPLS-2005>
133.679702758789

> <r_mmod_Stretch_Energy-OPLS-2005>
192.709091186523

> <r_mmod_Bend_Energy-OPLS-2005>
261.582885742188

> <r_mmod_Torsional_Energy-OPLS-2005>
232.346252441406

> <r_mmod_Improper_Torsional_Energy-OPLS-2005>
5.27867555618286

> <r_mmod_Van_der_Waal_Energy-OPLS-2005>
126.062919616699

> <r_mmod_Electrostatic_Energy-OPLS-2005>
-331.924743652344

> <r_mmod_Solvation_Energy-OPLS-2005>
-493.451751708984

> <b_mmod_Minimization_Converged-OPLS-2005>
0

> <r_mmod_RMS_Derivative-OPLS-2005>
2.64380168914795

$$$$
66
                    3D
 Structure written by MMmdl.
157165  0  0  1  0            999 V2000
  -30.6834  -14.6363   20.5028 C   0  0  0  0  0  0
  -30.4195  -12.3991   19.4527 C   0  0  0  0  0  0
  -29.4970  -12.5012   18.2209 C   0  0  0  0  0  0
  -28.0231  -12.3438   18.6387 C   0  0  0  0  0  0
  -27.6451  -13.2304   19.8556 C   0  0  2  0  0  0
  -28.6932  -13.1337   20.9865 C   0  0  0  0  0  0
  -25.2516  -13.8195   20.5703 C   0  0  0  0  0  0
  -24.1803  -13.0433   20.9210 C   0  0  0  0  0  0
  -24.6395  -11.6916   20.8756 C   0  0  0  0  0  0
  -23.9072  -10.4285   21.0409 C   0  0  0  0  0  0
  -24.3614   -9.4202   21.9188 C   0  0  0  0  0  0
  -23.6292   -8.2241   22.0762 C   0  0  0  0  0  0
  -22.4276   -8.0283   21.3556 C   0  0  0  0  0  0
  -21.9909   -9.0255   20.4657 C   0  0  0  0  0  0
  -22.7239  -10.2134   20.3056 C   0  0  0  0  0  0
  -21.6855   -6.0734   22.5284 C   0  0  0  0  0  0
  -21.4008   -6.5635   23.8212 C   0  0  0  0  0  0
  -21.3655   -5.6786   24.9171 C   0  0  0  0  0  0
  -21.6041   -4.3050   24.7225 C   0  0  0  0  0  0
  -21.8819   -3.8143   23.4345 C   0  0  0  0  0  0
  -21.9187   -4.6960   22.3398 C   0  0  0  0  0  0
  -22.7826  -13.5210   21.1864 C   0  0  0  0  0  0
  -22.1657   -4.2146   21.0976 F   0  0  0  0  0  0
  -21.5634   -3.4530   25.7735 F   0  0  0  0  0  0
  -30.0027  -13.4507   20.4037 N   0  0  0  0  0  0
  -26.2951  -12.9408   20.3321 N   0  0  0  0  0  0
  -25.9328  -11.6548   20.5771 N   0  0  0  0  0  0
  -22.0484  -12.8187   22.0417 N   0  0  0  0  0  0
  -25.4189  -15.1910   20.4103 N   0  0  0  0  0  0
  -31.8616  -14.7113   20.1484 O   0  0  0  0  0  0
  -21.6646   -6.8879   21.4249 O   0  0  0  0  0  0
  -22.3500  -14.5513   20.6712 O   0  0  0  0  0  0
  -24.6265  -31.8621   23.2039 C   0  0  0  0  0  0
  -25.9124  -32.4788   23.8361 C   0  0  1  0  0  0
  -27.2128  -27.3134   20.1165 C   0  0  0  0  0  0
  -25.5946  -33.8584   24.2294 N   0  0  0  0  0  0
  -23.4192  -30.4889   21.5475 C   0  0  2  0  0  0
  -24.8638  -28.9504   20.1083 C   0  0  0  0  0  0
  -22.7481  -29.4641   22.4934 C   0  0  0  0  0  0
  -18.0301  -28.1384   22.8499 C   0  0  0  0  0  0
  -24.1489  -36.7278   23.2635 C   0  0  0  0  0  0
  -25.9626  -30.7907   21.3788 C   0  0  0  0  0  0
  -26.0341  -29.4196   20.7179 C   0  0  0  0  0  0
  -27.2112  -28.6122   20.7158 C   0  0  0  0  0  0
  -26.0225  -26.9154   19.4608 C   0  0  0  0  0  0
  -24.8607  -27.7039   19.4689 C   0  0  0  0  0  0
  -23.6330  -29.8297   20.1608 C   0  0  0  0  0  0
  -25.4113  -36.3077   24.0329 C   0  0  1  0  0  0
  -20.5901  -28.3695   23.1277 C   0  0  2  0  0  0
  -20.6789  -26.9417   22.5400 C   0  0  0  0  0  0
  -19.5754  -26.6389   21.5212 C   0  0  0  0  0  0
  -18.1940  -26.7930   22.1627 C   0  0  0  0  0  0
  -19.1553  -28.8857   23.2887 C   0  0  0  0  0  0
  -18.9461  -30.1465   23.8894 C   0  0  0  0  0  0
  -17.6459  -30.6583   24.0571 C   0  0  0  0  0  0
  -25.9054  -34.9451   23.5106 C   0  0  0  0  0  0
  -16.5356  -29.9076   23.6338 C   0  0  0  0  0  0
  -16.7288  -28.6495   23.0357 C   0  0  0  0  0  0
  -26.4502  -31.6585   25.0727 C   0  0  0  0  0  0
  -25.3736  -31.3729   26.1455 C   0  0  0  0  0  0
  -27.0346  -30.3006   24.6182 C   0  0  0  0  0  0
  -27.6061  -32.4316   25.7501 C   0  0  0  0  0  0
  -27.5577  -37.1793   24.8464 C   0  0  0  0  0  0
  -21.4195  -29.3048   22.3662 N   0  0  0  0  0  0
  -26.4288  -37.3774   23.9409 N   0  0  0  0  0  0
  -24.6884  -31.0632   22.0997 N   0  0  0  0  0  0
  -23.4203  -28.8192   23.3027 O   0  0  0  0  0  0
  -28.3092  -26.4336   20.1952 O   0  0  0  0  0  0
  -26.5599  -34.8919   22.4658 O   0  0  0  0  0  0
  -23.5424  -32.1417   23.7363 O   0  0  0  0  0  0
  -29.6727  -20.9381   21.4486 C   0  0  0  0  0  0
  -28.9635  -20.1855   19.2906 C   0  0  0  0  0  0
  -30.0749  -19.6015   21.7707 C   0  0  0  0  0  0
  -29.3887  -18.8517   19.5793 C   0  0  0  0  0  0
  -29.9639  -18.5154   20.8373 C   0  0  0  0  0  0
  -29.1119  -21.2710   20.1937 C   0  0  0  0  0  0
  -30.6578  -19.3784   23.1576 C   0  0  0  0  0  0
  -29.2656  -17.8027   18.4864 C   0  0  0  0  0  0
  -30.6338  -17.1072   21.1333 C   0  0  0  0  0  0
  -28.0441  -24.9917   19.9446 C   0  0  0  0  0  0
  -28.9808  -23.8132   20.4637 C   0  0  0  0  0  0
  -29.9961  -15.7723   20.8479 N   0  0  0  0  0  0
  -28.6741  -22.5479   19.7841 O   0  0  0  0  0  0
  -31.4621  -12.4960   19.1462 H   0  0  0  0  0  0
  -30.3358  -11.4159   19.9172 H   0  0  0  0  0  0
  -29.7610  -11.7392   17.4858 H   0  0  0  0  0  0
  -29.6384  -13.4649   17.7297 H   0  0  0  0  0  0
  -27.8617  -11.2942   18.8859 H   0  0  0  0  0  0
  -27.3661  -12.5635   17.7964 H   0  0  0  0  0  0
  -27.6513  -14.2585   19.4923 H   0  0  0  0  0  0
  -28.7063  -12.1333   21.4217 H   0  0  0  0  0  0
  -28.4458  -13.8172   21.8002 H   0  0  0  0  0  0
  -25.2757   -9.5677   22.4764 H   0  0  0  0  0  0
  -24.0003   -7.4621   22.7459 H   0  0  0  0  0  0
  -21.0851   -8.8763   19.8951 H   0  0  0  0  0  0
  -22.3701  -10.9673   19.6166 H   0  0  0  0  0  0
  -21.2000   -7.6139   23.9719 H   0  0  0  0  0  0
  -21.1480   -6.0512   25.9078 H   0  0  0  0  0  0
  -22.0604   -2.7610   23.2842 H   0  0  0  0  0  0
  -22.4146  -11.9869   22.4806 H   0  0  0  0  0  0
  -21.1099  -13.1187   22.2633 H   0  0  0  0  0  0
  -24.6443  -15.8383   20.5044 H   0  0  0  0  0  0
  -26.2622  -15.6326   20.0683 H   0  0  0  0  0  0
  -26.7200  -32.5466   23.1114 H   0  0  0  0  0  0
  -25.0139  -33.9733   25.0469 H   0  0  0  0  0  0
  -22.7124  -31.3095   21.4088 H   0  0  0  0  0  0
  -23.3753  -35.9609   23.3297 H   0  0  0  0  0  0
  -24.3576  -36.8894   22.2048 H   0  0  0  0  0  0
  -23.7245  -37.6482   23.6652 H   0  0  0  0  0  0
  -26.0994  -31.5568   20.6147 H   0  0  0  0  0  0
  -26.8401  -30.8323   22.0122 H   0  0  0  0  0  0
  -28.1049  -28.9655   21.2096 H   0  0  0  0  0  0
  -25.9471  -25.9725   18.9417 H   0  0  0  0  0  0
  -23.9673  -27.3410   18.9796 H   0  0  0  0  0  0
  -23.7512  -30.6088   19.4070 H   0  0  0  0  0  0
  -22.7529  -29.2604   19.8571 H   0  0  0  0  0  0
  -25.1299  -36.1923   25.0823 H   0  0  0  0  0  0
  -21.0010  -28.3273   24.1392 H   0  0  0  0  0  0
  -20.5701  -26.2304   23.3607 H   0  0  0  0  0  0
  -21.6659  -26.7455   22.1189 H   0  0  0  0  0  0
  -19.6908  -25.6301   21.1241 H   0  0  0  0  0  0
  -19.6680  -27.3202   20.6747 H   0  0  0  0  0  0
  -17.4215  -26.6704   21.4025 H   0  0  0  0  0  0
  -18.0327  -26.0056   22.9004 H   0  0  0  0  0  0
  -19.7937  -30.7297   24.2238 H   0  0  0  0  0  0
  -17.5009  -31.6259   24.5175 H   0  0  0  0  0  0
  -15.5352  -30.2972   23.7653 H   0  0  0  0  0  0
  -15.8695  -28.0815   22.7055 H   0  0  0  0  0  0
  -24.5926  -30.7063   25.7783 H   0  0  0  0  0  0
  -24.8918  -32.2902   26.4851 H   0  0  0  0  0  0
  -25.8065  -30.8934   27.0245 H   0  0  0  0  0  0
  -26.2923  -29.6754   24.1211 H   0  0  0  0  0  0
  -27.4046  -29.7265   25.4684 H   0  0  0  0  0  0
  -27.8793  -30.4277   23.9408 H   0  0  0  0  0  0
  -27.2674  -33.3622   26.2060 H   0  0  0  0  0  0
  -28.3881  -32.6859   25.0336 H   0  0  0  0  0  0
  -28.0716  -31.8453   26.5434 H   0  0  0  0  0  0
  -28.2596  -38.0089   24.7518 H   0  0  0  0  0  0
  -28.1076  -36.2623   24.6290 H   0  0  0  0  0  0
  -27.2291  -37.1445   25.8865 H   0  0  0  0  0  0
  -20.9358  -29.8748   21.6863 H   0  0  0  0  0  0
  -26.0165  -38.2846   24.1419 H   0  0  0  0  0  0
  -29.8013  -21.7168   22.1873 H   0  0  0  0  0  0
  -28.5360  -20.3963   18.3202 H   0  0  0  0  0  0
  -30.5627  -20.2680   23.7817 H   0  0  0  0  0  0
  -31.7173  -19.1271   23.1011 H   0  0  0  0  0  0
  -30.1304  -18.5750   23.6723 H   0  0  0  0  0  0
  -28.9682  -18.2455   17.5352 H   0  0  0  0  0  0
  -28.5182  -17.0556   18.7530 H   0  0  0  0  0  0
  -30.2186  -17.2967   18.3271 H   0  0  0  0  0  0
  -30.9101  -17.0451   22.1829 H   0  0  0  0  0  0
  -31.5902  -17.1524   20.6109 H   0  0  0  0  0  0
  -27.0644  -24.7379   20.3516 H   0  0  0  0  0  0
  -27.9673  -24.8826   18.8623 H   0  0  0  0  0  0
  -28.8658  -23.7078   21.5425 H   0  0  0  0  0  0
  -30.0255  -24.0599   20.2742 H   0  0  0  0  0  0
  -29.0167  -15.6743   21.0662 H   0  0  0  0  0  0
  1 25  1  0  0  0
  1 30  2  0  0  0
  1 82  1  0  0  0
  2  3  1  0  0  0
  2 25  1  0  0  0
  2 84  1  0  0  0
  2 85  1  0  0  0
  3  4  1  0  0  0
  3 86  1  0  0  0
  3 87  1  0  0  0
  4  5  1  0  0  0
  4 88  1  0  0  0
  4 89  1  0  0  0
  5  6  1  0  0  0
  5 26  1  0  0  0
  5 90  1  0  0  0
  6 25  1  0  0  0
  6 91  1  0  0  0
  6 92  1  0  0  0
  7  8  2  0  0  0
  7 26  1  0  0  0
  7 29  1  0  0  0
  8  9  1  0  0  0
  8 22  1  0  0  0
  9 10  1  0  0  0
  9 27  2  0  0  0
 10 11  2  0  0  0
 10 15  1  0  0  0
 11 12  1  0  0  0
 11 93  1  0  0  0
 12 13  2  0  0  0
 12 94  1  0  0  0
 13 14  1  0  0  0
 13 31  1  0  0  0
 14 15  2  0  0  0
 14 95  1  0  0  0
 15 96  1  0  0  0
 16 17  2  0  0  0
 16 21  1  0  0  0
 16 31  1  0  0  0
 17 18  1  0  0  0
 17 97  1  0  0  0
 18 19  2  0  0  0
 18 98  1  0  0  0
 19 20  1  0  0  0
 19 24  1  0  0  0
 20 21  2  0  0  0
 20 99  1  0  0  0
 21 23  1  0  0  0
 22 28  1  0  0  0
 22 32  2  0  0  0
 26 27  1  0  0  0
 28100  1  0  0  0
 28101  1  0  0  0
 29102  1  0  0  0
 29103  1  0  0  0
 33 34  1  0  0  0
 33 66  1  0  0  0
 33 70  2  0  0  0
 34 36  1  0  0  0
 34 59  1  0  0  0
 34104  1  0  0  0
 35 44  2  0  0  0
 35 45  1  0  0  0
 35 68  1  0  0  0
 36 56  1  0  0  0
 36105  1  0  0  0
 37 39  1  0  0  0
 37 47  1  0  0  0
 37 66  1  0  0  0
 37106  1  0  0  0
 38 43  2  0  0  0
 38 46  1  0  0  0
 38 47  1  0  0  0
 39 64  1  0  0  0
 39 67  2  0  0  0
 40 52  1  0  0  0
 40 53  2  0  0  0
 40 58  1  0  0  0
 41107  1  0  0  0
 41108  1  0  0  0
 41109  1  0  0  0
 41 48  1  0  0  0
 42 43  1  0  0  0
 42 66  1  0  0  0
 42110  1  0  0  0
 42111  1  0  0  0
 43 44  1  0  0  0
 44112  1  0  0  0
 45 46  2  0  0  0
 45113  1  0  0  0
 46114  1  0  0  0
 47115  1  0  0  0
 47116  1  0  0  0
 48 56  1  0  0  0
 48 65  1  0  0  0
 48117  1  0  0  0
 49 50  1  0  0  0
 49 53  1  0  0  0
 49 64  1  0  0  0
 49118  1  0  0  0
 50 51  1  0  0  0
 50119  1  0  0  0
 50120  1  0  0  0
 51 52  1  0  0  0
 51121  1  0  0  0
 51122  1  0  0  0
 52123  1  0  0  0
 52124  1  0  0  0
 53 54  1  0  0  0
 54 55  2  0  0  0
 54125  1  0  0  0
 55 57  1  0  0  0
 55126  1  0  0  0
 56 69  2  0  0  0
 57 58  2  0  0  0
 57127  1  0  0  0
 58128  1  0  0  0
 59 60  1  0  0  0
 59 61  1  0  0  0
 59 62  1  0  0  0
 60129  1  0  0  0
 60130  1  0  0  0
 60131  1  0  0  0
 61132  1  0  0  0
 61133  1  0  0  0
 61134  1  0  0  0
 62135  1  0  0  0
 62136  1  0  0  0
 62137  1  0  0  0
 63 65  1  0  0  0
 63138  1  0  0  0
 63139  1  0  0  0
 63140  1  0  0  0
 64141  1  0  0  0
 65142  1  0  0  0
 68 80  1  0  0  0
 71 73  2  0  0  0
 71 76  1  0  0  0
 71143  1  0  0  0
 72 74  1  0  0  0
 72 76  2  0  0  0
 72144  1  0  0  0
 73 75  1  0  0  0
 73 77  1  0  0  0
 74 75  2  0  0  0
 74 78  1  0  0  0
 75 79  1  0  0  0
 76 83  1  0  0  0
 77145  1  0  0  0
 77146  1  0  0  0
 77147  1  0  0  0
 78148  1  0  0  0
 78149  1  0  0  0
 78150  1  0  0  0
 79 82  1  0  0  0
 79151  1  0  0  0
 79152  1  0  0  0
 80 81  1  0  0  0
 80153  1  0  0  0
 80154  1  0  0  0
 81 83  1  0  0  0
 81155  1  0  0  0
 81156  1  0  0  0
 82157  1  0  0  0
M  ISO  4   1 100  68 101  80 101  82 100
M  END
> <chiral flag>
0

> <version>
0

> <s_m_source_file>
/data/baiqing/PycharmProjects/Reinvent-master-3.2/result/LINK_invent/BTK/process_docking_weight1_custom_sum_contain_oxygen_bond_distance_aromatic_linkinvent_7_9_3/rearranged_h_0133.sdf

> <i_m_source_file_index>
66

> <r_mmod_Potential_Energy-OPLS-2005>
42.2586326599121

> <r_mmod_Stretch_Energy-OPLS-2005>
83.2163696289062

> <r_mmod_Bend_Energy-OPLS-2005>
159.996536254883

> <r_mmod_Torsional_Energy-OPLS-2005>
203.276458740234

> <r_mmod_Improper_Torsional_Energy-OPLS-2005>
4.50205326080322

> <r_mmod_Van_der_Waal_Energy-OPLS-2005>
153.536163330078

> <r_mmod_Electrostatic_Energy-OPLS-2005>
-406.759979248047

> <r_mmod_Solvation_Energy-OPLS-2005>
-210.376220703125

> <b_mmod_Minimization_Converged-OPLS-2005>
0

> <r_mmod_RMS_Derivative-OPLS-2005>
1.62400460243225

$$$$
67
                    3D
 Structure written by MMmdl.
153161  0  0  1  0            999 V2000
  -30.4655  -15.1565   20.3862 C   0  0  0  0  0  0
  -30.4598  -12.7193   19.5263 C   0  0  0  0  0  0
  -29.5426  -12.5323   18.2898 C   0  0  0  0  0  0
  -28.0937  -12.2604   18.7384 C   0  0  0  0  0  0
  -27.6334  -13.2466   19.8410 C   0  0  2  0  0  0
  -28.6751  -13.3652   20.9766 C   0  0  0  0  0  0
  -25.2483  -13.8187   20.5725 C   0  0  0  0  0  0
  -24.1808  -13.0446   20.9238 C   0  0  0  0  0  0
  -24.6372  -11.6889   20.8754 C   0  0  0  0  0  0
  -23.9031  -10.4276   21.0395 C   0  0  0  0  0  0
  -24.3578   -9.4197   21.9187 C   0  0  0  0  0  0
  -23.6255   -8.2236   22.0764 C   0  0  0  0  0  0
  -22.4249   -8.0256   21.3546 C   0  0  0  0  0  0
  -21.9862   -9.0229   20.4660 C   0  0  0  0  0  0
  -22.7178  -10.2111   20.3067 C   0  0  0  0  0  0
  -21.6855   -6.0693   22.5262 C   0  0  0  0  0  0
  -21.4008   -6.5607   23.8190 C   0  0  0  0  0  0
  -21.3661   -5.6776   24.9161 C   0  0  0  0  0  0
  -21.6054   -4.3037   24.7228 C   0  0  0  0  0  0
  -21.8826   -3.8108   23.4352 C   0  0  0  0  0  0
  -21.9193   -4.6916   22.3399 C   0  0  0  0  0  0
  -22.7811  -13.5193   21.1908 C   0  0  0  0  0  0
  -22.1673   -4.2088   21.0987 F   0  0  0  0  0  0
  -21.5638   -3.4543   25.7754 F   0  0  0  0  0  0
  -29.9193  -13.8517   20.3540 N   0  0  0  0  0  0
  -26.2926  -12.9416   20.3289 N   0  0  0  0  0  0
  -25.9336  -11.6538   20.5797 N   0  0  0  0  0  0
  -22.0491  -12.8192   22.0436 N   0  0  0  0  0  0
  -25.4199  -15.1929   20.4096 N   0  0  0  0  0  0
  -31.6785  -15.2153   20.1524 O   0  0  0  0  0  0
  -21.6644   -6.8834   21.4217 O   0  0  0  0  0  0
  -22.3493  -14.5510   20.6730 O   0  0  0  0  0  0
  -24.6594  -31.8186   23.1876 C   0  0  0  0  0  0
  -25.9366  -32.4375   23.8334 C   0  0  1  0  0  0
  -27.2202  -27.0136   20.1584 C   0  0  0  0  0  0
  -25.6086  -33.8204   24.2248 N   0  0  0  0  0  0
  -23.4613  -30.4367   21.5302 C   0  0  2  0  0  0
  -24.9138  -28.8456   20.1073 C   0  0  0  0  0  0
  -22.7661  -29.4407   22.4915 C   0  0  0  0  0  0
  -18.0272  -28.1277   22.8497 C   0  0  0  0  0  0
  -24.1486  -36.6912   23.2688 C   0  0  0  0  0  0
  -26.0377  -30.6477   21.4135 C   0  0  0  0  0  0
  -26.0977  -29.2662   20.7240 C   0  0  0  0  0  0
  -27.2508  -28.3760   20.7128 C   0  0  0  0  0  0
  -26.0008  -26.7131   19.5168 C   0  0  0  0  0  0
  -24.8872  -27.5891   19.4796 C   0  0  0  0  0  0
  -23.6904  -29.7514   20.1554 C   0  0  0  0  0  0
  -25.4111  -36.2742   24.0398 C   0  0  1  0  0  0
  -20.5897  -28.3591   23.1195 C   0  0  2  0  0  0
  -20.6657  -26.9275   22.5385 C   0  0  0  0  0  0
  -19.5663  -26.6330   21.5132 C   0  0  0  0  0  0
  -18.1862  -26.7826   22.1596 C   0  0  0  0  0  0
  -19.1547  -28.8798   23.2794 C   0  0  0  0  0  0
  -18.9468  -30.1394   23.8804 C   0  0  0  0  0  0
  -17.6465  -30.6514   24.0476 C   0  0  0  0  0  0
  -25.9142  -34.9146   23.5141 C   0  0  0  0  0  0
  -16.5349  -29.8952   23.6346 C   0  0  0  0  0  0
  -16.7261  -28.6331   23.0459 C   0  0  0  0  0  0
  -26.4740  -31.6226   25.0798 C   0  0  0  0  0  0
  -25.4139  -31.3222   26.1639 C   0  0  0  0  0  0
  -27.0670  -30.2568   24.6587 C   0  0  0  0  0  0
  -27.6263  -32.4078   25.7497 C   0  0  0  0  0  0
  -27.5528  -37.1557   24.8581 C   0  0  0  0  0  0
  -21.4370  -29.2859   22.3597 N   0  0  0  0  0  0
  -26.4221  -37.3519   23.9543 N   0  0  0  0  0  0
  -24.7366  -30.9996   22.0900 N   0  0  0  0  0  0
  -23.4256  -28.8094   23.3204 O   0  0  0  0  0  0
  -28.2592  -25.9789   20.2812 O   0  0  0  0  0  0
  -26.5746  -34.8695   22.4727 O   0  0  0  0  0  0
  -23.5721  -32.1150   23.7074 O   0  0  0  0  0  0
  -30.5788  -19.1530   20.7461 C   0  0  0  0  0  0
  -28.5510  -18.8251   19.4944 C   0  0  0  0  0  0
  -30.0731  -20.6905   21.1105 C   0  0  0  0  0  0
  -28.0828  -20.3952   19.7843 C   0  0  0  0  0  0
  -29.4676  -17.9986   20.5421 C   0  0  1  0  0  0
  -28.6304  -22.9597   20.7053 C   0  0  0  0  0  0
  -28.2536  -24.4245   19.8374 C   0  0  0  0  0  0
  -29.6189  -16.3463   20.4896 N   0  0  0  0  0  0
  -29.1157  -21.4731   20.1745 N   0  3  1  0  0  0
  -31.4875  -12.8964   19.2091 H   0  0  0  0  0  0
  -30.4974  -11.7961   20.1096 H   0  0  0  0  0  0
  -29.9017  -11.7094   17.6721 H   0  0  0  0  0  0
  -29.5709  -13.4237   17.6657 H   0  0  0  0  0  0
  -28.0693  -11.2473   19.1437 H   0  0  0  0  0  0
  -27.4109  -12.2708   17.8911 H   0  0  0  0  0  0
  -27.5699  -14.2184   19.3532 H   0  0  0  0  0  0
  -28.8244  -12.4084   21.4789 H   0  0  0  0  0  0
  -28.3416  -14.0633   21.7440 H   0  0  0  0  0  0
  -25.2728   -9.5698   22.4755 H   0  0  0  0  0  0
  -23.9982   -7.4638   22.7496 H   0  0  0  0  0  0
  -21.0790   -8.8712   19.8971 H   0  0  0  0  0  0
  -22.3610  -10.9642   19.6175 H   0  0  0  0  0  0
  -21.1995   -7.6123   23.9656 H   0  0  0  0  0  0
  -21.1488   -6.0533   25.9063 H   0  0  0  0  0  0
  -22.0605   -2.7566   23.2883 H   0  0  0  0  0  0
  -22.4118  -11.9827   22.4800 H   0  0  0  0  0  0
  -21.1131  -13.1225   22.2722 H   0  0  0  0  0  0
  -24.6458  -15.8446   20.5127 H   0  0  0  0  0  0
  -26.2390  -15.6103   19.9898 H   0  0  0  0  0  0
  -26.7457  -32.4856   23.1053 H   0  0  0  0  0  0
  -25.0105  -33.9251   25.0309 H   0  0  0  0  0  0
  -22.7628  -31.2593   21.3650 H   0  0  0  0  0  0
  -23.3788  -35.9190   23.3358 H   0  0  0  0  0  0
  -24.3614  -36.8494   22.2103 H   0  0  0  0  0  0
  -23.7163  -37.6099   23.6686 H   0  0  0  0  0  0
  -26.2937  -31.4218   20.6896 H   0  0  0  0  0  0
  -26.8675  -30.6231   22.1084 H   0  0  0  0  0  0
  -28.1587  -28.7175   21.1923 H   0  0  0  0  0  0
  -25.8456  -25.7394   19.0829 H   0  0  0  0  0  0
  -23.9808  -27.2440   18.9999 H   0  0  0  0  0  0
  -23.8094  -30.5132   19.3876 H   0  0  0  0  0  0
  -22.8112  -29.1759   19.8617 H   0  0  0  0  0  0
  -25.1240  -36.1513   25.0878 H   0  0  0  0  0  0
  -20.9911  -28.3083   24.1337 H   0  0  0  0  0  0
  -20.5320  -26.2205   23.3600 H   0  0  0  0  0  0
  -21.6525  -26.7100   22.1309 H   0  0  0  0  0  0
  -19.6772  -25.6272   21.1057 H   0  0  0  0  0  0
  -19.6527  -27.3218   20.6736 H   0  0  0  0  0  0
  -17.4097  -26.6598   21.4024 H   0  0  0  0  0  0
  -18.0279  -25.9904   22.8955 H   0  0  0  0  0  0
  -19.7963  -30.7199   24.2119 H   0  0  0  0  0  0
  -17.5018  -31.6204   24.5049 H   0  0  0  0  0  0
  -15.5331  -30.2815   23.7724 H   0  0  0  0  0  0
  -15.8647  -28.0556   22.7359 H   0  0  0  0  0  0
  -24.6484  -30.6273   25.8175 H   0  0  0  0  0  0
  -24.9157  -32.2201   26.5290 H   0  0  0  0  0  0
  -25.8805  -30.8464   27.0301 H   0  0  0  0  0  0
  -26.3336  -29.6107   24.1743 H   0  0  0  0  0  0
  -27.4286  -29.7014   25.5282 H   0  0  0  0  0  0
  -27.9291  -30.3641   23.9988 H   0  0  0  0  0  0
  -27.2891  -33.3470   26.1916 H   0  0  0  0  0  0
  -28.4112  -32.6484   25.0293 H   0  0  0  0  0  0
  -28.0928  -31.8316   26.5526 H   0  0  0  0  0  0
  -28.2574  -37.9832   24.7589 H   0  0  0  0  0  0
  -28.1005  -36.2353   24.6432 H   0  0  0  0  0  0
  -27.2298  -37.1218   25.9016 H   0  0  0  0  0  0
  -20.9745  -29.8366   21.6513 H   0  0  0  0  0  0
  -26.0023  -38.2552   24.1616 H   0  0  0  0  0  0
  -31.2437  -18.8533   21.5632 H   0  0  0  0  0  0
  -31.2302  -19.2036   19.8672 H   0  0  0  0  0  0
  -29.0413  -18.8025   18.5180 H   0  0  0  0  0  0
  -27.6210  -18.2689   19.3481 H   0  0  0  0  0  0
  -29.5924  -20.6348   22.0942 H   0  0  0  0  0  0
  -30.9505  -21.3228   21.2819 H   0  0  0  0  0  0
  -27.3009  -20.3704   20.5495 H   0  0  0  0  0  0
  -27.5760  -20.7513   18.8800 H   0  0  0  0  0  0
  -28.8907  -18.0577   21.4720 H   0  0  0  0  0  0
  -27.7784  -22.7841   21.3772 H   0  0  0  0  0  0
  -29.4405  -23.2646   21.3755 H   0  0  0  0  0  0
  -28.9587  -24.4374   19.0089 H   0  0  0  0  0  0
  -27.2979  -24.2201   19.3558 H   0  0  0  0  0  0
  -28.6947  -15.9669   20.6357 H   0  0  0  0  0  0
  -29.6635  -21.6445   19.3379 H   0  0  0  0  0  0
  1 25  1  0  0  0
  1 30  2  0  0  0
  1 78  1  0  0  0
  2  3  1  0  0  0
  2 25  1  0  0  0
  2 80  1  0  0  0
  2 81  1  0  0  0
  3  4  1  0  0  0
  3 82  1  0  0  0
  3 83  1  0  0  0
  4  5  1  0  0  0
  4 84  1  0  0  0
  4 85  1  0  0  0
  5  6  1  0  0  0
  5 26  1  0  0  0
  5 86  1  0  0  0
  6 25  1  0  0  0
  6 87  1  0  0  0
  6 88  1  0  0  0
  7  8  2  0  0  0
  7 26  1  0  0  0
  7 29  1  0  0  0
  8  9  1  0  0  0
  8 22  1  0  0  0
  9 10  1  0  0  0
  9 27  2  0  0  0
 10 11  2  0  0  0
 10 15  1  0  0  0
 11 12  1  0  0  0
 11 89  1  0  0  0
 12 13  2  0  0  0
 12 90  1  0  0  0
 13 14  1  0  0  0
 13 31  1  0  0  0
 14 15  2  0  0  0
 14 91  1  0  0  0
 15 92  1  0  0  0
 16 17  2  0  0  0
 16 21  1  0  0  0
 16 31  1  0  0  0
 17 18  1  0  0  0
 17 93  1  0  0  0
 18 19  2  0  0  0
 18 94  1  0  0  0
 19 20  1  0  0  0
 19 24  1  0  0  0
 20 21  2  0  0  0
 20 95  1  0  0  0
 21 23  1  0  0  0
 22 28  1  0  0  0
 22 32  2  0  0  0
 26 27  1  0  0  0
 28 96  1  0  0  0
 28 97  1  0  0  0
 29 98  1  0  0  0
 29 99  1  0  0  0
 33 34  1  0  0  0
 33 66  1  0  0  0
 33 70  2  0  0  0
 34 36  1  0  0  0
 34 59  1  0  0  0
 34100  1  0  0  0
 35 44  2  0  0  0
 35 45  1  0  0  0
 35 68  1  0  0  0
 36 56  1  0  0  0
 36101  1  0  0  0
 37 39  1  0  0  0
 37 47  1  0  0  0
 37 66  1  0  0  0
 37102  1  0  0  0
 38 43  2  0  0  0
 38 46  1  0  0  0
 38 47  1  0  0  0
 39 64  1  0  0  0
 39 67  2  0  0  0
 40 52  1  0  0  0
 40 53  2  0  0  0
 40 58  1  0  0  0
 41103  1  0  0  0
 41104  1  0  0  0
 41105  1  0  0  0
 41 48  1  0  0  0
 42 43  1  0  0  0
 42 66  1  0  0  0
 42106  1  0  0  0
 42107  1  0  0  0
 43 44  1  0  0  0
 44108  1  0  0  0
 45 46  2  0  0  0
 45109  1  0  0  0
 46110  1  0  0  0
 47111  1  0  0  0
 47112  1  0  0  0
 48 56  1  0  0  0
 48 65  1  0  0  0
 48113  1  0  0  0
 49 50  1  0  0  0
 49 53  1  0  0  0
 49 64  1  0  0  0
 49114  1  0  0  0
 50 51  1  0  0  0
 50115  1  0  0  0
 50116  1  0  0  0
 51 52  1  0  0  0
 51117  1  0  0  0
 51118  1  0  0  0
 52119  1  0  0  0
 52120  1  0  0  0
 53 54  1  0  0  0
 54 55  2  0  0  0
 54121  1  0  0  0
 55 57  1  0  0  0
 55122  1  0  0  0
 56 69  2  0  0  0
 57 58  2  0  0  0
 57123  1  0  0  0
 58124  1  0  0  0
 59 60  1  0  0  0
 59 61  1  0  0  0
 59 62  1  0  0  0
 60125  1  0  0  0
 60126  1  0  0  0
 60127  1  0  0  0
 61128  1  0  0  0
 61129  1  0  0  0
 61130  1  0  0  0
 62131  1  0  0  0
 62132  1  0  0  0
 62133  1  0  0  0
 63 65  1  0  0  0
 63134  1  0  0  0
 63135  1  0  0  0
 63136  1  0  0  0
 64137  1  0  0  0
 65138  1  0  0  0
 68 77  1  0  0  0
 71 73  1  0  0  0
 71 75  1  0  0  0
 71139  1  0  0  0
 71140  1  0  0  0
 72 74  1  0  0  0
 72 75  1  0  0  0
 72141  1  0  0  0
 72142  1  0  0  0
 73 79  1  0  0  0
 73143  1  0  0  0
 73144  1  0  0  0
 74 79  1  0  0  0
 74145  1  0  0  0
 74146  1  0  0  0
 75 78  1  0  0  0
 75147  1  0  0  0
 76 77  1  0  0  0
 76148  1  0  0  0
 76149  1  0  0  0
 76 79  1  0  0  0
 77150  1  0  0  0
 77151  1  0  0  0
 78152  1  0  0  0
 79153  1  0  0  0
M  CHG  1  79   1
M  ISO  4   1 100  68 101  77 101  78 100
M  END
> <chiral flag>
0

> <version>
0

> <s_m_source_file>
/data/baiqing/PycharmProjects/Reinvent-master-3.2/result/LINK_invent/BTK/process_docking_weight1_custom_sum_contain_oxygen_bond_distance_aromatic_linkinvent_7_9_3/rearranged_h_0133.sdf

> <i_m_source_file_index>
67

> <r_mmod_Potential_Energy-OPLS-2005>
907.49267578125

> <r_mmod_Stretch_Energy-OPLS-2005>
422.123931884766

> <r_mmod_Bend_Energy-OPLS-2005>
452.849731445312

> <r_mmod_Torsional_Energy-OPLS-2005>
236.023727416992

> <r_mmod_Improper_Torsional_Energy-OPLS-2005>
4.44967126846313

> <r_mmod_Van_der_Waal_Energy-OPLS-2005>
109.575119018555

> <r_mmod_Electrostatic_Energy-OPLS-2005>
-210.960876464844

> <r_mmod_Solvation_Energy-OPLS-2005>
-454.601898193359

> <b_mmod_Minimization_Converged-OPLS-2005>
0

> <r_mmod_RMS_Derivative-OPLS-2005>
8.72944927215576

$$$$
68
                    3D
 Structure written by MMmdl.
172181  0  0  1  0            999 V2000
  -30.7338  -14.4241   20.6325 C   0  0  0  0  0  0
  -30.4135  -12.2983   19.4237 C   0  0  0  0  0  0
  -29.4909  -12.5257   18.2090 C   0  0  0  0  0  0
  -28.0133  -12.3833   18.6168 C   0  0  0  0  0  0
  -27.6649  -13.2045   19.8875 C   0  0  2  0  0  0
  -28.7007  -12.9628   21.0106 C   0  0  0  0  0  0
  -25.2596  -13.8164   20.5674 C   0  0  0  0  0  0
  -24.1829  -13.0422   20.9151 C   0  0  0  0  0  0
  -24.6391  -11.6911   20.8720 C   0  0  0  0  0  0
  -23.9058  -10.4283   21.0400 C   0  0  0  0  0  0
  -24.3600   -9.4212   21.9195 C   0  0  0  0  0  0
  -23.6275   -8.2246   22.0759 C   0  0  0  0  0  0
  -22.4272   -8.0265   21.3538 C   0  0  0  0  0  0
  -21.9901   -9.0240   20.4640 C   0  0  0  0  0  0
  -22.7228  -10.2126   20.3045 C   0  0  0  0  0  0
  -21.6848   -6.0732   22.5277 C   0  0  0  0  0  0
  -21.4017   -6.5624   23.8206 C   0  0  0  0  0  0
  -21.3657   -5.6779   24.9168 C   0  0  0  0  0  0
  -21.6039   -4.3044   24.7228 C   0  0  0  0  0  0
  -21.8821   -3.8144   23.4342 C   0  0  0  0  0  0
  -21.9184   -4.6961   22.3403 C   0  0  0  0  0  0
  -22.7874  -13.5247   21.1818 C   0  0  0  0  0  0
  -22.1663   -4.2146   21.0983 F   0  0  0  0  0  0
  -21.5624   -3.4528   25.7745 F   0  0  0  0  0  0
  -30.0388  -13.2638   20.4730 N   0  0  0  0  0  0
  -26.3032  -12.9322   20.3406 N   0  0  0  0  0  0
  -25.9312  -11.6483   20.5753 N   0  0  0  0  0  0
  -22.0486  -12.8201   22.0351 N   0  0  0  0  0  0
  -25.4318  -15.1862   20.4088 N   0  0  0  0  0  0
  -31.7793  -14.6570   20.0208 O   0  0  0  0  0  0
  -21.6618   -6.8868   21.4242 O   0  0  0  0  0  0
  -22.3561  -14.5562   20.6704 O   0  0  0  0  0  0
  -24.6125  -31.8647   23.2093 C   0  0  0  0  0  0
  -25.8999  -32.4795   23.8399 C   0  0  1  0  0  0
  -27.2566  -27.4206   20.1316 C   0  0  0  0  0  0
  -25.5853  -33.8596   24.2310 N   0  0  0  0  0  0
  -23.4032  -30.4865   21.5459 C   0  0  2  0  0  0
  -24.8589  -28.9363   20.1329 C   0  0  0  0  0  0
  -22.7379  -29.4678   22.4975 C   0  0  0  0  0  0
  -18.0259  -28.1364   22.8507 C   0  0  0  0  0  0
  -24.1486  -36.7327   23.2632 C   0  0  0  0  0  0
  -25.9328  -30.8258   21.3617 C   0  0  0  0  0  0
  -26.0150  -29.4524   20.7285 C   0  0  0  0  0  0
  -27.2138  -28.7035   20.7289 C   0  0  0  0  0  0
  -26.0891  -26.9325   19.5034 C   0  0  0  0  0  0
  -24.8889  -27.6724   19.5190 C   0  0  0  0  0  0
  -23.6176  -29.8000   20.1705 C   0  0  0  0  0  0
  -25.4103  -36.3085   24.0320 C   0  0  1  0  0  0
  -20.5857  -28.3683   23.1328 C   0  0  2  0  0  0
  -20.6751  -26.9411   22.5439 C   0  0  0  0  0  0
  -19.5732  -26.6394   21.5233 C   0  0  0  0  0  0
  -18.1891  -26.7923   22.1595 C   0  0  0  0  0  0
  -19.1519  -28.8837   23.2904 C   0  0  0  0  0  0
  -18.9443  -30.1444   23.8923 C   0  0  0  0  0  0
  -17.6448  -30.6577   24.0610 C   0  0  0  0  0  0
  -25.9021  -34.9447   23.5114 C   0  0  0  0  0  0
  -16.5341  -29.9108   23.6349 C   0  0  0  0  0  0
  -16.7264  -28.6507   23.0385 C   0  0  0  0  0  0
  -26.4450  -31.6590   25.0730 C   0  0  0  0  0  0
  -25.3728  -31.3670   26.1494 C   0  0  0  0  0  0
  -27.0297  -30.3032   24.6132 C   0  0  0  0  0  0
  -27.6066  -32.4329   25.7440 C   0  0  0  0  0  0
  -27.5581  -37.1784   24.8428 C   0  0  0  0  0  0
  -21.4119  -29.3046   22.3711 N   0  0  0  0  0  0
  -26.4277  -37.3785   23.9403 N   0  0  0  0  0  0
  -24.6669  -31.0739   22.0978 N   0  0  0  0  0  0
  -23.4149  -28.8204   23.3014 O   0  0  0  0  0  0
  -28.4555  -26.7300   20.1023 O   0  0  0  0  0  0
  -26.5642  -34.8873   22.4721 O   0  0  0  0  0  0
  -23.5339  -32.1453   23.7480 O   0  0  0  0  0  0
  -31.7400  -20.1536   17.9221 C   0  0  0  0  0  0
  -32.9194  -20.7234   18.7103 C   0  0  0  0  0  0
  -28.5641  -22.8757   20.0088 C   0  0  0  0  0  0
  -30.5143  -23.7362   21.2359 C   0  0  0  0  0  0
  -28.0119  -24.3014   19.7553 C   0  0  0  0  0  0
  -30.0709  -25.2090   21.0120 C   0  0  0  0  0  0
  -30.4783  -20.8405   18.4707 C   0  0  0  0  0  0
  -32.3297  -21.5647   19.8618 C   0  0  0  0  0  0
  -30.1075  -22.8531   20.0239 C   0  0  1  0  0  0
  -28.5620  -25.4134   20.6938 C   0  0  1  0  0  0
  -30.7737  -21.4187   19.8887 C   0  0  0  0  0  0
  -30.2397  -20.4323   20.9951 C   0  0  0  0  0  0
  -30.8058  -16.6854   21.6819 C   0  0  0  0  0  0
  -30.0369  -17.8822   21.0475 C   0  0  0  0  0  0
  -30.2186  -15.3436   21.4682 N   0  0  0  0  0  0
  -30.9052  -19.1018   21.0398 N   0  3  0  0  0  0
  -31.4603  -12.3847   19.1243 H   0  0  0  0  0  0
  -30.3006  -11.2788   19.7978 H   0  0  0  0  0  0
  -29.7300  -11.8183   17.4142 H   0  0  0  0  0  0
  -29.6613  -13.5205   17.7940 H   0  0  0  0  0  0
  -27.8150  -11.3257   18.7939 H   0  0  0  0  0  0
  -27.3659  -12.6774   17.7912 H   0  0  0  0  0  0
  -27.7197  -14.2580   19.6142 H   0  0  0  0  0  0
  -28.6676  -11.9188   21.3306 H   0  0  0  0  0  0
  -28.4571  -13.5443   21.9008 H   0  0  0  0  0  0
  -25.2746   -9.5694   22.4762 H   0  0  0  0  0  0
  -23.9995   -7.4644   22.7488 H   0  0  0  0  0  0
  -21.0830   -8.8752   19.8933 H   0  0  0  0  0  0
  -22.3693  -10.9663   19.6126 H   0  0  0  0  0  0
  -21.2017   -7.6123   23.9715 H   0  0  0  0  0  0
  -21.1475   -6.0503   25.9070 H   0  0  0  0  0  0
  -22.0600   -2.7610   23.2845 H   0  0  0  0  0  0
  -22.4090  -11.9830   22.4678 H   0  0  0  0  0  0
  -21.1104  -13.1211   22.2548 H   0  0  0  0  0  0
  -24.6669  -15.8460   20.5051 H   0  0  0  0  0  0
  -26.2871  -15.6190   20.0839 H   0  0  0  0  0  0
  -26.7077  -32.5517   23.1171 H   0  0  0  0  0  0
  -24.9956  -33.9795   25.0414 H   0  0  0  0  0  0
  -22.6904  -31.3003   21.3919 H   0  0  0  0  0  0
  -23.3722  -35.9690   23.3303 H   0  0  0  0  0  0
  -24.3515  -36.8995   22.2040 H   0  0  0  0  0  0
  -23.7296  -37.6538   23.6698 H   0  0  0  0  0  0
  -26.0365  -31.5751   20.5781 H   0  0  0  0  0  0
  -26.8243  -30.8970   21.9744 H   0  0  0  0  0  0
  -28.1054  -29.0998   21.1907 H   0  0  0  0  0  0
  -26.1034  -25.9963   18.9656 H   0  0  0  0  0  0
  -24.0037  -27.2724   19.0450 H   0  0  0  0  0  0
  -23.7152  -30.5644   19.4004 H   0  0  0  0  0  0
  -22.7444  -29.2133   19.8850 H   0  0  0  0  0  0
  -25.1262  -36.1937   25.0816 H   0  0  0  0  0  0
  -20.9979  -28.3277   24.1436 H   0  0  0  0  0  0
  -20.5645  -26.2280   23.3602 H   0  0  0  0  0  0
  -21.6617  -26.7394   22.1255 H   0  0  0  0  0  0
  -19.6911  -25.6332   21.1208 H   0  0  0  0  0  0
  -19.6709  -27.3229   20.6782 H   0  0  0  0  0  0
  -17.4187  -26.6773   21.3958 H   0  0  0  0  0  0
  -18.0228  -26.0005   22.8915 H   0  0  0  0  0  0
  -19.7925  -30.7279   24.2296 H   0  0  0  0  0  0
  -17.4995  -31.6238   24.5234 H   0  0  0  0  0  0
  -15.5354  -30.3031   23.7622 H   0  0  0  0  0  0
  -15.8643  -28.0850   22.7108 H   0  0  0  0  0  0
  -24.6026  -30.6838   25.7878 H   0  0  0  0  0  0
  -24.8723  -32.2773   26.4820 H   0  0  0  0  0  0
  -25.8107  -30.9013   27.0328 H   0  0  0  0  0  0
  -26.2865  -29.6751   24.1215 H   0  0  0  0  0  0
  -27.4090  -29.7299   25.4589 H   0  0  0  0  0  0
  -27.8660  -30.4344   23.9267 H   0  0  0  0  0  0
  -27.2808  -33.3727   26.1919 H   0  0  0  0  0  0
  -28.3904  -32.6749   25.0243 H   0  0  0  0  0  0
  -28.0698  -31.8491   26.5415 H   0  0  0  0  0  0
  -28.2560  -38.0102   24.7516 H   0  0  0  0  0  0
  -28.1111  -36.2642   24.6216 H   0  0  0  0  0  0
  -27.2275  -37.1421   25.8811 H   0  0  0  0  0  0
  -20.9241  -29.8780   21.6965 H   0  0  0  0  0  0
  -26.0146  -38.2848   24.1462 H   0  0  0  0  0  0
  -31.6866  -19.0700   18.0383 H   0  0  0  0  0  0
  -31.8543  -20.3306   16.8491 H   0  0  0  0  0  0
  -33.5425  -21.3433   18.0611 H   0  0  0  0  0  0
  -33.5736  -19.9267   19.0682 H   0  0  0  0  0  0
  -28.1684  -22.1983   19.2476 H   0  0  0  0  0  0
  -28.1764  -22.5103   20.9622 H   0  0  0  0  0  0
  -30.0579  -23.3636   22.1556 H   0  0  0  0  0  0
  -31.5928  -23.7151   21.4121 H   0  0  0  0  0  0
  -26.9290  -24.2456   19.8639 H   0  0  0  0  0  0
  -28.2142  -24.5736   18.7190 H   0  0  0  0  0  0
  -30.6672  -25.6181   20.1935 H   0  0  0  0  0  0
  -30.3399  -25.8113   21.8822 H   0  0  0  0  0  0
  -29.6177  -20.1694   18.4557 H   0  0  0  0  0  0
  -30.2289  -21.6477   17.7809 H   0  0  0  0  0  0
  -32.6081  -22.6027   19.6608 H   0  0  0  0  0  0
  -32.8010  -21.3282   20.8189 H   0  0  0  0  0  0
  -30.4421  -23.4036   19.1404 H   0  0  0  0  0  0
  -28.0136  -25.3884   21.6392 H   0  0  0  0  0  0
  -29.1649  -20.2876   20.8797 H   0  0  0  0  0  0
  -30.3679  -20.8784   21.9849 H   0  0  0  0  0  0
  -30.8892  -16.8418   22.7610 H   0  0  0  0  0  0
  -31.8336  -16.7090   21.3138 H   0  0  0  0  0  0
  -29.1137  -18.0506   21.6112 H   0  0  0  0  0  0
  -29.7236  -17.6527   20.0237 H   0  0  0  0  0  0
  -29.4355  -15.0654   22.0440 H   0  0  0  0  0  0
  -31.4588  -19.0890   21.8854 H   0  0  0  0  0  0
  -31.5472  -19.0358   20.2651 H   0  0  0  0  0  0
  1 25  1  0  0  0
  1 30  2  0  0  0
  1 85  1  0  0  0
  2  3  1  0  0  0
  2 25  1  0  0  0
  2 87  1  0  0  0
  2 88  1  0  0  0
  3  4  1  0  0  0
  3 89  1  0  0  0
  3 90  1  0  0  0
  4  5  1  0  0  0
  4 91  1  0  0  0
  4 92  1  0  0  0
  5  6  1  0  0  0
  5 26  1  0  0  0
  5 93  1  0  0  0
  6 25  1  0  0  0
  6 94  1  0  0  0
  6 95  1  0  0  0
  7  8  2  0  0  0
  7 26  1  0  0  0
  7 29  1  0  0  0
  8  9  1  0  0  0
  8 22  1  0  0  0
  9 10  1  0  0  0
  9 27  2  0  0  0
 10 11  2  0  0  0
 10 15  1  0  0  0
 11 12  1  0  0  0
 11 96  1  0  0  0
 12 13  2  0  0  0
 12 97  1  0  0  0
 13 14  1  0  0  0
 13 31  1  0  0  0
 14 15  2  0  0  0
 14 98  1  0  0  0
 15 99  1  0  0  0
 16 17  2  0  0  0
 16 21  1  0  0  0
 16 31  1  0  0  0
 17 18  1  0  0  0
 17100  1  0  0  0
 18 19  2  0  0  0
 18101  1  0  0  0
 19 20  1  0  0  0
 19 24  1  0  0  0
 20 21  2  0  0  0
 20102  1  0  0  0
 21 23  1  0  0  0
 22 28  1  0  0  0
 22 32  2  0  0  0
 26 27  1  0  0  0
 28103  1  0  0  0
 28104  1  0  0  0
 29105  1  0  0  0
 29106  1  0  0  0
 33 34  1  0  0  0
 33 66  1  0  0  0
 33 70  2  0  0  0
 34 36  1  0  0  0
 34 59  1  0  0  0
 34107  1  0  0  0
 35 44  2  0  0  0
 35 45  1  0  0  0
 35 68  1  0  0  0
 36 56  1  0  0  0
 36108  1  0  0  0
 37 39  1  0  0  0
 37 47  1  0  0  0
 37 66  1  0  0  0
 37109  1  0  0  0
 38 43  2  0  0  0
 38 46  1  0  0  0
 38 47  1  0  0  0
 39 64  1  0  0  0
 39 67  2  0  0  0
 40 52  1  0  0  0
 40 53  2  0  0  0
 40 58  1  0  0  0
 41110  1  0  0  0
 41111  1  0  0  0
 41112  1  0  0  0
 41 48  1  0  0  0
 42 43  1  0  0  0
 42 66  1  0  0  0
 42113  1  0  0  0
 42114  1  0  0  0
 43 44  1  0  0  0
 44115  1  0  0  0
 45 46  2  0  0  0
 45116  1  0  0  0
 46117  1  0  0  0
 47118  1  0  0  0
 47119  1  0  0  0
 48 56  1  0  0  0
 48 65  1  0  0  0
 48120  1  0  0  0
 49 50  1  0  0  0
 49 53  1  0  0  0
 49 64  1  0  0  0
 49121  1  0  0  0
 50 51  1  0  0  0
 50122  1  0  0  0
 50123  1  0  0  0
 51 52  1  0  0  0
 51124  1  0  0  0
 51125  1  0  0  0
 52126  1  0  0  0
 52127  1  0  0  0
 53 54  1  0  0  0
 54 55  2  0  0  0
 54128  1  0  0  0
 55 57  1  0  0  0
 55129  1  0  0  0
 56 69  2  0  0  0
 57 58  2  0  0  0
 57130  1  0  0  0
 58131  1  0  0  0
 59 60  1  0  0  0
 59 61  1  0  0  0
 59 62  1  0  0  0
 60132  1  0  0  0
 60133  1  0  0  0
 60134  1  0  0  0
 61135  1  0  0  0
 61136  1  0  0  0
 61137  1  0  0  0
 62138  1  0  0  0
 62139  1  0  0  0
 62140  1  0  0  0
 63 65  1  0  0  0
 63141  1  0  0  0
 63142  1  0  0  0
 63143  1  0  0  0
 64144  1  0  0  0
 65145  1  0  0  0
 68 80  1  0  0  0
 71 72  1  0  0  0
 71 77  1  0  0  0
 71146  1  0  0  0
 71147  1  0  0  0
 72 78  1  0  0  0
 72148  1  0  0  0
 72149  1  0  0  0
 73 75  1  0  0  0
 73150  1  0  0  0
 73151  1  0  0  0
 73 79  1  0  0  0
 74 76  1  0  0  0
 74 79  1  0  0  0
 74152  1  0  0  0
 74153  1  0  0  0
 75 80  1  0  0  0
 75154  1  0  0  0
 75155  1  0  0  0
 76 80  1  0  0  0
 76156  1  0  0  0
 76157  1  0  0  0
 77 81  1  0  0  0
 77158  1  0  0  0
 77159  1  0  0  0
 78 81  1  0  0  0
 78160  1  0  0  0
 78161  1  0  0  0
 79 81  1  0  0  0
 79162  1  0  0  0
 80163  1  0  0  0
 81 82  1  0  0  0
 82 86  1  0  0  0
 82164  1  0  0  0
 82165  1  0  0  0
 83 84  1  0  0  0
 83 85  1  0  0  0
 83166  1  0  0  0
 83167  1  0  0  0
 84 86  1  0  0  0
 84168  1  0  0  0
 84169  1  0  0  0
 85170  1  0  0  0
 86171  1  0  0  0
 86172  1  0  0  0
M  CHG  1  86   1
M  ISO  4   1 100  68 101  80 101  85 100
M  END
> <chiral flag>
0

> <version>
0

> <s_m_source_file>
/data/baiqing/PycharmProjects/Reinvent-master-3.2/result/LINK_invent/BTK/process_docking_weight1_custom_sum_contain_oxygen_bond_distance_aromatic_linkinvent_7_9_3/rearranged_h_0133.sdf

> <i_m_source_file_index>
68

> <r_mmod_Potential_Energy-OPLS-2005>
-87.6025695800781

> <r_mmod_Stretch_Energy-OPLS-2005>
49.2945747375488

> <r_mmod_Bend_Energy-OPLS-2005>
137.805999755859

> <r_mmod_Torsional_Energy-OPLS-2005>
354.467590332031

> <r_mmod_Improper_Torsional_Energy-OPLS-2005>
2.31095790863037

> <r_mmod_Van_der_Waal_Energy-OPLS-2005>
133.314147949219

> <r_mmod_Electrostatic_Energy-OPLS-2005>
-325.612731933594

> <r_mmod_Solvation_Energy-OPLS-2005>
-449.030029296875

> <b_mmod_Minimization_Converged-OPLS-2005>
0

> <r_mmod_RMS_Derivative-OPLS-2005>
7.21630573272705

$$$$
69
                    3D
 Structure written by MMmdl.
160168  0  0  1  0            999 V2000
  -30.5939  -14.7548   20.4506 C   0  0  0  0  0  0
  -30.4362  -12.4618   19.4642 C   0  0  0  0  0  0
  -29.5083  -12.5078   18.2285 C   0  0  0  0  0  0
  -28.0339  -12.3317   18.6439 C   0  0  0  0  0  0
  -27.6396  -13.2300   19.8466 C   0  0  2  0  0  0
  -28.6872  -13.1633   20.9789 C   0  0  0  0  0  0
  -25.2493  -13.8192   20.5712 C   0  0  0  0  0  0
  -24.1787  -13.0438   20.9227 C   0  0  0  0  0  0
  -24.6375  -11.6918   20.8762 C   0  0  0  0  0  0
  -23.9057  -10.4290   21.0391 C   0  0  0  0  0  0
  -24.3608   -9.4210   21.9172 C   0  0  0  0  0  0
  -23.6286   -8.2238   22.0735 C   0  0  0  0  0  0
  -22.4267   -8.0280   21.3534 C   0  0  0  0  0  0
  -21.9913   -9.0255   20.4638 C   0  0  0  0  0  0
  -22.7231  -10.2132   20.3040 C   0  0  0  0  0  0
  -21.6850   -6.0741   22.5284 C   0  0  0  0  0  0
  -21.4020   -6.5640   23.8229 C   0  0  0  0  0  0
  -21.3656   -5.6783   24.9176 C   0  0  0  0  0  0
  -21.6038   -4.3048   24.7220 C   0  0  0  0  0  0
  -21.8822   -3.8151   23.4340 C   0  0  0  0  0  0
  -21.9195   -4.6968   22.3393 C   0  0  0  0  0  0
  -22.7801  -13.5223   21.1878 C   0  0  0  0  0  0
  -22.1654   -4.2163   21.0963 F   0  0  0  0  0  0
  -21.5619   -3.4515   25.7723 F   0  0  0  0  0  0
  -29.9830  -13.5227   20.3905 N   0  0  0  0  0  0
  -26.2912  -12.9398   20.3267 N   0  0  0  0  0  0
  -25.9304  -11.6549   20.5756 N   0  0  0  0  0  0
  -22.0440  -12.8229   22.0440 N   0  0  0  0  0  0
  -25.4175  -15.1924   20.4144 N   0  0  0  0  0  0
  -31.7893  -14.8658   20.1669 O   0  0  0  0  0  0
  -21.6638   -6.8870   21.4243 O   0  0  0  0  0  0
  -22.3493  -14.5525   20.6717 O   0  0  0  0  0  0
  -24.6308  -31.8561   23.1966 C   0  0  0  0  0  0
  -25.9134  -32.4759   23.8317 C   0  0  1  0  0  0
  -27.2217  -27.2586   20.1349 C   0  0  0  0  0  0
  -25.5929  -33.8555   24.2244 N   0  0  0  0  0  0
  -23.4284  -30.4765   21.5402 C   0  0  2  0  0  0
  -24.8760  -28.9141   20.1161 C   0  0  0  0  0  0
  -22.7498  -29.4609   22.4912 C   0  0  0  0  0  0
  -18.0298  -28.1400   22.8495 C   0  0  0  0  0  0
  -24.1488  -36.7282   23.2637 C   0  0  0  0  0  0
  -25.9721  -30.7668   21.3762 C   0  0  0  0  0  0
  -26.0456  -29.3836   20.7276 C   0  0  0  0  0  0
  -27.2219  -28.5674   20.7276 C   0  0  0  0  0  0
  -26.0306  -26.8490   19.5024 C   0  0  0  0  0  0
  -24.8722  -27.6540   19.4937 C   0  0  0  0  0  0
  -23.6491  -29.8064   20.1576 C   0  0  0  0  0  0
  -25.4115  -36.3061   24.0319 C   0  0  1  0  0  0
  -20.5898  -28.3712   23.1275 C   0  0  2  0  0  0
  -20.6782  -26.9431   22.5410 C   0  0  0  0  0  0
  -19.5752  -26.6395   21.5220 C   0  0  0  0  0  0
  -18.1941  -26.7945   22.1635 C   0  0  0  0  0  0
  -19.1549  -28.8871   23.2886 C   0  0  0  0  0  0
  -18.9467  -30.1475   23.8898 C   0  0  0  0  0  0
  -17.6465  -30.6597   24.0576 C   0  0  0  0  0  0
  -25.9056  -34.9433   23.5083 C   0  0  0  0  0  0
  -16.5357  -29.9100   23.6334 C   0  0  0  0  0  0
  -16.7287  -28.6520   23.0354 C   0  0  0  0  0  0
  -26.4496  -31.6589   25.0712 C   0  0  0  0  0  0
  -25.3715  -31.3757   26.1433 C   0  0  0  0  0  0
  -27.0336  -30.3004   24.6202 C   0  0  0  0  0  0
  -27.6041  -32.4334   25.7500 C   0  0  0  0  0  0
  -27.5572  -37.1803   24.8462 C   0  0  0  0  0  0
  -21.4204  -29.3057   22.3645 N   0  0  0  0  0  0
  -26.4281  -37.3767   23.9405 N   0  0  0  0  0  0
  -24.6960  -31.0519   22.0946 N   0  0  0  0  0  0
  -23.4198  -28.8161   23.3020 O   0  0  0  0  0  0
  -28.3315  -26.3883   20.1072 O   0  0  0  0  0  0
  -26.5626  -34.8914   22.4654 O   0  0  0  0  0  0
  -23.5456  -32.1384   23.7255 O   0  0  0  0  0  0
  -28.7197  -23.8373   19.6225 C   0  0  0  0  0  0
  -27.7312  -24.4000   21.5136 C   0  0  0  0  0  0
  -28.2375  -24.9856   20.3841 C   0  0  0  0  0  0
  -28.4581  -22.6118   20.2545 C   0  0  0  0  0  0
  -25.9408  -22.4861   22.9880 C   0  0  0  0  0  0
  -28.3594  -22.0096   23.6294 C   0  0  0  0  0  0
  -28.5870  -21.0907   19.7840 C   0  0  0  0  0  0
  -30.1632  -17.3670   20.7087 C   0  0  0  0  0  0
  -29.1274  -18.5200   20.2023 C   0  0  0  0  0  0
  -27.3401  -22.0962   22.4858 C   0  0  0  0  0  0
  -27.8226  -22.9991   21.4413 N   0  0  0  0  0  0
  -29.7946  -15.8764   20.6246 N   0  0  0  0  0  0
  -29.4237  -20.0113   20.4955 N   0  3  0  0  0  0
  -31.4750  -12.5984   19.1596 H   0  0  0  0  0  0
  -30.3903  -11.4875   19.9532 H   0  0  0  0  0  0
  -29.7915  -11.7335   17.5138 H   0  0  0  0  0  0
  -29.6301  -13.4619   17.7123 H   0  0  0  0  0  0
  -27.8918  -11.2836   18.9093 H   0  0  0  0  0  0
  -27.3742  -12.5240   17.7958 H   0  0  0  0  0  0
  -27.6332  -14.2506   19.4630 H   0  0  0  0  0  0
  -28.7272  -12.1656   21.4200 H   0  0  0  0  0  0
  -28.4229  -13.8420   21.7917 H   0  0  0  0  0  0
  -25.2732   -9.5696   22.4768 H   0  0  0  0  0  0
  -23.9996   -7.4630   22.7444 H   0  0  0  0  0  0
  -21.0849   -8.8779   19.8940 H   0  0  0  0  0  0
  -22.3679  -10.9685   19.6159 H   0  0  0  0  0  0
  -21.2025   -7.6156   23.9745 H   0  0  0  0  0  0
  -21.1461   -6.0496   25.9088 H   0  0  0  0  0  0
  -22.0605   -2.7621   23.2831 H   0  0  0  0  0  0
  -22.4055  -11.9882   22.4821 H   0  0  0  0  0  0
  -21.1060  -13.1255   22.2615 H   0  0  0  0  0  0
  -24.6390  -15.8350   20.5164 H   0  0  0  0  0  0
  -26.2485  -15.6339   20.0441 H   0  0  0  0  0  0
  -26.7203  -32.5421   23.1059 H   0  0  0  0  0  0
  -25.0061  -33.9694   25.0379 H   0  0  0  0  0  0
  -22.7235  -31.2973   21.3909 H   0  0  0  0  0  0
  -23.3743  -35.9626   23.3301 H   0  0  0  0  0  0
  -24.3568  -36.8911   22.2051 H   0  0  0  0  0  0
  -23.7252  -37.6484   23.6671 H   0  0  0  0  0  0
  -26.1049  -31.5224   20.6004 H   0  0  0  0  0  0
  -26.8501  -30.8230   22.0071 H   0  0  0  0  0  0
  -28.1224  -28.9272   21.2049 H   0  0  0  0  0  0
  -25.9939  -25.8825   19.0180 H   0  0  0  0  0  0
  -23.9780  -27.2905   19.0067 H   0  0  0  0  0  0
  -23.7757  -30.5801   19.3990 H   0  0  0  0  0  0
  -22.7669  -29.2418   19.8524 H   0  0  0  0  0  0
  -25.1306  -36.1902   25.0812 H   0  0  0  0  0  0
  -21.0009  -28.3299   24.1386 H   0  0  0  0  0  0
  -20.5689  -26.2332   23.3618 H   0  0  0  0  0  0
  -21.6655  -26.7451   22.1204 H   0  0  0  0  0  0
  -19.6908  -25.6305   21.1258 H   0  0  0  0  0  0
  -19.6685  -27.3192   20.6738 H   0  0  0  0  0  0
  -17.4212  -26.6703   21.4037 H   0  0  0  0  0  0
  -18.0338  -26.0085   22.9022 H   0  0  0  0  0  0
  -19.7940  -30.7305   24.2256 H   0  0  0  0  0  0
  -17.5016  -31.6271   24.5189 H   0  0  0  0  0  0
  -15.5362  -30.3005   23.7641 H   0  0  0  0  0  0
  -15.8692  -28.0837   22.7058 H   0  0  0  0  0  0
  -24.5889  -30.7112   25.7758 H   0  0  0  0  0  0
  -24.8904  -32.2932   26.4826 H   0  0  0  0  0  0
  -25.8016  -30.8949   27.0228 H   0  0  0  0  0  0
  -26.2921  -29.6770   24.1199 H   0  0  0  0  0  0
  -27.3976  -29.7256   25.4729 H   0  0  0  0  0  0
  -27.8817  -30.4260   23.9470 H   0  0  0  0  0  0
  -27.2638  -33.3636   26.2061 H   0  0  0  0  0  0
  -28.3865  -32.6902   25.0346 H   0  0  0  0  0  0
  -28.0698  -31.8477   26.5435 H   0  0  0  0  0  0
  -28.2596  -38.0094   24.7497 H   0  0  0  0  0  0
  -28.1063  -36.2624   24.6307 H   0  0  0  0  0  0
  -27.2286  -37.1474   25.8864 H   0  0  0  0  0  0
  -20.9382  -29.8772   21.6842 H   0  0  0  0  0  0
  -26.0156  -38.2842   24.1408 H   0  0  0  0  0  0
  -29.1930  -23.9076   18.6532 H   0  0  0  0  0  0
  -27.2911  -24.8688   22.3834 H   0  0  0  0  0  0
  -25.5453  -21.7161   23.6493 H   0  0  0  0  0  0
  -25.2413  -22.5944   22.1581 H   0  0  0  0  0  0
  -25.9456  -23.4196   23.5504 H   0  0  0  0  0  0
  -28.0642  -21.2591   24.3616 H   0  0  0  0  0  0
  -28.4512  -22.9626   24.1502 H   0  0  0  0  0  0
  -29.3492  -21.7371   23.2624 H   0  0  0  0  0  0
  -28.9260  -21.0941   18.7478 H   0  0  0  0  0  0
  -27.5714  -20.6972   19.7200 H   0  0  0  0  0  0
  -30.3890  -17.5602   21.7570 H   0  0  0  0  0  0
  -31.1071  -17.5071   20.1819 H   0  0  0  0  0  0
  -28.1428  -18.3033   20.6166 H   0  0  0  0  0  0
  -29.0176  -18.4164   19.1221 H   0  0  0  0  0  0
  -27.2373  -21.1006   22.0569 H   0  0  0  0  0  0
  -28.8198  -15.6663   20.7782 H   0  0  0  0  0  0
  -30.3871  -20.1930   20.2664 H   0  0  0  0  0  0
  -29.3298  -20.1463   21.4859 H   0  0  0  0  0  0
  1 25  1  0  0  0
  1 30  2  0  0  0
  1 82  1  0  0  0
  2  3  1  0  0  0
  2 25  1  0  0  0
  2 84  1  0  0  0
  2 85  1  0  0  0
  3  4  1  0  0  0
  3 86  1  0  0  0
  3 87  1  0  0  0
  4  5  1  0  0  0
  4 88  1  0  0  0
  4 89  1  0  0  0
  5  6  1  0  0  0
  5 26  1  0  0  0
  5 90  1  0  0  0
  6 25  1  0  0  0
  6 91  1  0  0  0
  6 92  1  0  0  0
  7  8  2  0  0  0
  7 26  1  0  0  0
  7 29  1  0  0  0
  8  9  1  0  0  0
  8 22  1  0  0  0
  9 10  1  0  0  0
  9 27  2  0  0  0
 10 11  2  0  0  0
 10 15  1  0  0  0
 11 12  1  0  0  0
 11 93  1  0  0  0
 12 13  2  0  0  0
 12 94  1  0  0  0
 13 14  1  0  0  0
 13 31  1  0  0  0
 14 15  2  0  0  0
 14 95  1  0  0  0
 15 96  1  0  0  0
 16 17  2  0  0  0
 16 21  1  0  0  0
 16 31  1  0  0  0
 17 18  1  0  0  0
 17 97  1  0  0  0
 18 19  2  0  0  0
 18 98  1  0  0  0
 19 20  1  0  0  0
 19 24  1  0  0  0
 20 21  2  0  0  0
 20 99  1  0  0  0
 21 23  1  0  0  0
 22 28  1  0  0  0
 22 32  2  0  0  0
 26 27  1  0  0  0
 28100  1  0  0  0
 28101  1  0  0  0
 29102  1  0  0  0
 29103  1  0  0  0
 33 34  1  0  0  0
 33 66  1  0  0  0
 33 70  2  0  0  0
 34 36  1  0  0  0
 34 59  1  0  0  0
 34104  1  0  0  0
 35 44  2  0  0  0
 35 45  1  0  0  0
 35 68  1  0  0  0
 36 56  1  0  0  0
 36105  1  0  0  0
 37 39  1  0  0  0
 37 47  1  0  0  0
 37 66  1  0  0  0
 37106  1  0  0  0
 38 43  2  0  0  0
 38 46  1  0  0  0
 38 47  1  0  0  0
 39 64  1  0  0  0
 39 67  2  0  0  0
 40 52  1  0  0  0
 40 53  2  0  0  0
 40 58  1  0  0  0
 41107  1  0  0  0
 41108  1  0  0  0
 41109  1  0  0  0
 41 48  1  0  0  0
 42 43  1  0  0  0
 42 66  1  0  0  0
 42110  1  0  0  0
 42111  1  0  0  0
 43 44  1  0  0  0
 44112  1  0  0  0
 45 46  2  0  0  0
 45113  1  0  0  0
 46114  1  0  0  0
 47115  1  0  0  0
 47116  1  0  0  0
 48 56  1  0  0  0
 48 65  1  0  0  0
 48117  1  0  0  0
 49 50  1  0  0  0
 49 53  1  0  0  0
 49 64  1  0  0  0
 49118  1  0  0  0
 50 51  1  0  0  0
 50119  1  0  0  0
 50120  1  0  0  0
 51 52  1  0  0  0
 51121  1  0  0  0
 51122  1  0  0  0
 52123  1  0  0  0
 52124  1  0  0  0
 53 54  1  0  0  0
 54 55  2  0  0  0
 54125  1  0  0  0
 55 57  1  0  0  0
 55126  1  0  0  0
 56 69  2  0  0  0
 57 58  2  0  0  0
 57127  1  0  0  0
 58128  1  0  0  0
 59 60  1  0  0  0
 59 61  1  0  0  0
 59 62  1  0  0  0
 60129  1  0  0  0
 60130  1  0  0  0
 60131  1  0  0  0
 61132  1  0  0  0
 61133  1  0  0  0
 61134  1  0  0  0
 62135  1  0  0  0
 62136  1  0  0  0
 62137  1  0  0  0
 63 65  1  0  0  0
 63138  1  0  0  0
 63139  1  0  0  0
 63140  1  0  0  0
 64141  1  0  0  0
 65142  1  0  0  0
 68 73  1  0  0  0
 71 73  1  0  0  0
 71 74  2  0  0  0
 71143  1  0  0  0
 72 73  2  0  0  0
 72 81  1  0  0  0
 72144  1  0  0  0
 74 77  1  0  0  0
 74 81  1  0  0  0
 75145  1  0  0  0
 75146  1  0  0  0
 75147  1  0  0  0
 75 80  1  0  0  0
 76 80  1  0  0  0
 76148  1  0  0  0
 76149  1  0  0  0
 76150  1  0  0  0
 77 83  1  0  0  0
 77151  1  0  0  0
 77152  1  0  0  0
 78 79  1  0  0  0
 78 82  1  0  0  0
 78153  1  0  0  0
 78154  1  0  0  0
 79 83  1  0  0  0
 79155  1  0  0  0
 79156  1  0  0  0
 80 81  1  0  0  0
 80157  1  0  0  0
 82158  1  0  0  0
 83159  1  0  0  0
 83160  1  0  0  0
M  CHG  1  83   1
M  ISO  4   1 100  68 101  73 101  82 100
M  END
> <chiral flag>
0

> <version>
0

> <s_m_source_file>
/data/baiqing/PycharmProjects/Reinvent-master-3.2/result/LINK_invent/BTK/process_docking_weight1_custom_sum_contain_oxygen_bond_distance_aromatic_linkinvent_7_9_3/rearranged_h_0133.sdf

> <i_m_source_file_index>
69

> <r_mmod_Potential_Energy-OPLS-2005>
-129.821350097656

> <r_mmod_Stretch_Energy-OPLS-2005>
118.154678344727

> <r_mmod_Bend_Energy-OPLS-2005>
160.255249023438

> <r_mmod_Torsional_Energy-OPLS-2005>
231.890838623047

> <r_mmod_Improper_Torsional_Energy-OPLS-2005>
5.46991682052612

> <r_mmod_Van_der_Waal_Energy-OPLS-2005>
109.276206970215

> <r_mmod_Electrostatic_Energy-OPLS-2005>
-339.909851074219

> <r_mmod_Solvation_Energy-OPLS-2005>
-500.981170654297

> <b_mmod_Minimization_Converged-OPLS-2005>
0

> <r_mmod_RMS_Derivative-OPLS-2005>
2.32625317573547

$$$$
70
                    3D
 Structure written by MMmdl.
158166  0  0  1  0            999 V2000
  -30.7597  -14.4023   20.6648 C   0  0  0  0  0  0
  -30.4161  -12.3053   19.4038 C   0  0  0  0  0  0
  -29.4841  -12.5213   18.1967 C   0  0  0  0  0  0
  -28.0092  -12.3738   18.6154 C   0  0  0  0  0  0
  -27.6632  -13.2065   19.8777 C   0  0  2  0  0  0
  -28.7029  -12.9701   20.9948 C   0  0  0  0  0  0
  -25.2586  -13.8167   20.5679 C   0  0  0  0  0  0
  -24.1837  -13.0440   20.9180 C   0  0  0  0  0  0
  -24.6390  -11.6906   20.8738 C   0  0  0  0  0  0
  -23.9056  -10.4290   21.0404 C   0  0  0  0  0  0
  -24.3600   -9.4210   21.9191 C   0  0  0  0  0  0
  -23.6279   -8.2246   22.0759 C   0  0  0  0  0  0
  -22.4267   -8.0282   21.3542 C   0  0  0  0  0  0
  -21.9907   -9.0251   20.4641 C   0  0  0  0  0  0
  -22.7232  -10.2132   20.3052 C   0  0  0  0  0  0
  -21.6853   -6.0735   22.5276 C   0  0  0  0  0  0
  -21.4007   -6.5640   23.8209 C   0  0  0  0  0  0
  -21.3659   -5.6791   24.9173 C   0  0  0  0  0  0
  -21.6051   -4.3053   24.7223 C   0  0  0  0  0  0
  -21.8821   -3.8141   23.4346 C   0  0  0  0  0  0
  -21.9189   -4.6960   22.3399 C   0  0  0  0  0  0
  -22.7855  -13.5235   21.1844 C   0  0  0  0  0  0
  -22.1661   -4.2143   21.0978 F   0  0  0  0  0  0
  -21.5633   -3.4539   25.7739 F   0  0  0  0  0  0
  -30.0409  -13.2682   20.4514 N   0  0  0  0  0  0
  -26.3027  -12.9338   20.3382 N   0  0  0  0  0  0
  -25.9317  -11.6491   20.5765 N   0  0  0  0  0  0
  -22.0492  -12.8221   22.0392 N   0  0  0  0  0  0
  -25.4314  -15.1879   20.4074 N   0  0  0  0  0  0
  -31.8136  -14.6528   20.0727 O   0  0  0  0  0  0
  -21.6634   -6.8878   21.4238 O   0  0  0  0  0  0
  -22.3546  -14.5548   20.6704 O   0  0  0  0  0  0
  -24.6151  -31.8694   23.2124 C   0  0  0  0  0  0
  -25.9046  -32.4828   23.8421 C   0  0  1  0  0  0
  -27.2330  -27.4335   20.0727 C   0  0  0  0  0  0
  -25.5910  -33.8631   24.2350 N   0  0  0  0  0  0
  -23.4020  -30.4962   21.5537 C   0  0  2  0  0  0
  -24.8450  -28.9656   20.1142 C   0  0  0  0  0  0
  -22.7408  -29.4670   22.4994 C   0  0  0  0  0  0
  -18.0272  -28.1384   22.8502 C   0  0  0  0  0  0
  -24.1478  -36.7315   23.2643 C   0  0  0  0  0  0
  -25.9328  -30.8311   21.3679 C   0  0  0  0  0  0
  -26.0062  -29.4659   20.7141 C   0  0  0  0  0  0
  -27.1973  -28.7025   20.6994 C   0  0  0  0  0  0
  -26.0453  -26.9564   19.4629 C   0  0  0  0  0  0
  -24.8591  -27.7082   19.4926 C   0  0  0  0  0  0
  -23.6088  -29.8333   20.1673 C   0  0  0  0  0  0
  -25.4103  -36.3122   24.0344 C   0  0  1  0  0  0
  -20.5866  -28.3667   23.1319 C   0  0  2  0  0  0
  -20.6757  -26.9413   22.5409 C   0  0  0  0  0  0
  -19.5723  -26.6396   21.5217 C   0  0  0  0  0  0
  -18.1906  -26.7931   22.1631 C   0  0  0  0  0  0
  -19.1524  -28.8843   23.2905 C   0  0  0  0  0  0
  -18.9453  -30.1449   23.8911 C   0  0  0  0  0  0
  -17.6456  -30.6587   24.0575 C   0  0  0  0  0  0
  -25.9036  -34.9481   23.5140 C   0  0  0  0  0  0
  -16.5345  -29.9093   23.6330 C   0  0  0  0  0  0
  -16.7263  -28.6509   23.0348 C   0  0  0  0  0  0
  -26.4482  -31.6597   25.0741 C   0  0  0  0  0  0
  -25.3748  -31.3641   26.1478 C   0  0  0  0  0  0
  -27.0366  -30.3070   24.6104 C   0  0  0  0  0  0
  -27.6049  -32.4319   25.7520 C   0  0  0  0  0  0
  -27.5575  -37.1820   24.8475 C   0  0  0  0  0  0
  -21.4135  -29.3040   22.3727 N   0  0  0  0  0  0
  -26.4293  -37.3808   23.9414 N   0  0  0  0  0  0
  -24.6687  -31.0793   22.1036 N   0  0  0  0  0  0
  -23.4188  -28.8203   23.3022 O   0  0  0  0  0  0
  -28.4179  -26.7173   20.0965 O   0  0  0  0  0  0
  -26.5585  -34.8926   22.4695 O   0  0  0  0  0  0
  -23.5343  -32.1444   23.7522 O   0  0  0  0  0  0
  -28.1795  -21.7156   21.7561 C   0  0  0  0  0  0
  -30.3285  -20.5089   20.5642 C   0  0  0  0  0  0
  -28.2829  -20.3149   21.8381 C   0  0  0  0  0  0
  -29.3979  -19.6775   21.2428 C   0  0  0  0  0  0
  -29.1567  -22.4452   21.0638 C   0  0  0  0  0  0
  -27.2060  -19.5253   22.5629 C   0  0  0  0  0  0
  -30.8601  -17.6628   21.2500 C   0  0  0  0  0  0
  -30.9721  -16.4059   22.1369 C   0  0  0  0  0  0
  -28.5111  -25.4761   19.3791 C   0  0  0  0  0  0
  -29.6129  -24.5593   19.9403 C   0  0  0  0  0  0
  -30.2169  -21.8550   20.4712 N   0  0  0  0  0  0
  -29.5383  -18.2772   21.3452 N   0  0  0  0  0  0
  -30.2713  -15.2410   21.5902 N   0  0  0  0  0  0
  -29.0391  -23.8188   21.0231 O   0  0  0  0  0  0
  -31.4590  -12.4046   19.0977 H   0  0  0  0  0  0
  -30.3158  -11.2883   19.7868 H   0  0  0  0  0  0
  -29.7206  -11.8083   17.4055 H   0  0  0  0  0  0
  -29.6509  -13.5136   17.7751 H   0  0  0  0  0  0
  -27.8234  -11.3165   18.8079 H   0  0  0  0  0  0
  -27.3528  -12.6514   17.7899 H   0  0  0  0  0  0
  -27.7160  -14.2576   19.5921 H   0  0  0  0  0  0
  -28.6716  -11.9306   21.3230 H   0  0  0  0  0  0
  -28.4508  -13.5565   21.8782 H   0  0  0  0  0  0
  -25.2741   -9.5691   22.4775 H   0  0  0  0  0  0
  -23.9984   -7.4640   22.7483 H   0  0  0  0  0  0
  -21.0847   -8.8768   19.8937 H   0  0  0  0  0  0
  -22.3693  -10.9669   19.6157 H   0  0  0  0  0  0
  -21.1999   -7.6149   23.9707 H   0  0  0  0  0  0
  -21.1485   -6.0526   25.9078 H   0  0  0  0  0  0
  -22.0603   -2.7605   23.2848 H   0  0  0  0  0  0
  -22.4088  -11.9859   22.4748 H   0  0  0  0  0  0
  -21.1104  -13.1239   22.2583 H   0  0  0  0  0  0
  -24.6676  -15.8477   20.5085 H   0  0  0  0  0  0
  -26.2924  -15.6210   20.0972 H   0  0  0  0  0  0
  -26.7110  -32.5548   23.1187 H   0  0  0  0  0  0
  -25.0052  -33.9795   25.0485 H   0  0  0  0  0  0
  -22.6900  -31.3136   21.4194 H   0  0  0  0  0  0
  -23.3760  -35.9632   23.3306 H   0  0  0  0  0  0
  -24.3552  -36.8940   22.2055 H   0  0  0  0  0  0
  -23.7205  -37.6504   23.6662 H   0  0  0  0  0  0
  -26.0457  -31.5962   20.5985 H   0  0  0  0  0  0
  -26.8214  -30.8829   21.9854 H   0  0  0  0  0  0
  -28.0934  -29.0860   21.1681 H   0  0  0  0  0  0
  -25.9873  -26.0119   18.9478 H   0  0  0  0  0  0
  -23.9664  -27.3192   19.0219 H   0  0  0  0  0  0
  -23.7179  -30.6106   19.4099 H   0  0  0  0  0  0
  -22.7313  -29.2559   19.8719 H   0  0  0  0  0  0
  -25.1277  -36.1991   25.0834 H   0  0  0  0  0  0
  -20.9959  -28.3251   24.1441 H   0  0  0  0  0  0
  -20.5688  -26.2279   23.3599 H   0  0  0  0  0  0
  -21.6625  -26.7469   22.1192 H   0  0  0  0  0  0
  -19.6885  -25.6320   21.1213 H   0  0  0  0  0  0
  -19.6647  -27.3232   20.6767 H   0  0  0  0  0  0
  -17.4181  -26.6698   21.4028 H   0  0  0  0  0  0
  -18.0293  -26.0079   22.9026 H   0  0  0  0  0  0
  -19.7934  -30.7258   24.2275 H   0  0  0  0  0  0
  -17.5024  -31.6267   24.5183 H   0  0  0  0  0  0
  -15.5343  -30.2994   23.7663 H   0  0  0  0  0  0
  -15.8660  -28.0837   22.7031 H   0  0  0  0  0  0
  -24.5948  -30.6974   25.7785 H   0  0  0  0  0  0
  -24.8894  -32.2757   26.4973 H   0  0  0  0  0  0
  -25.8109  -30.8772   27.0212 H   0  0  0  0  0  0
  -26.2928  -29.6777   24.1209 H   0  0  0  0  0  0
  -27.4241  -29.7349   25.4541 H   0  0  0  0  0  0
  -27.8701  -30.4445   23.9216 H   0  0  0  0  0  0
  -27.2685  -33.3644   26.2067 H   0  0  0  0  0  0
  -28.3879  -32.6822   25.0353 H   0  0  0  0  0  0
  -28.0698  -31.8457   26.5460 H   0  0  0  0  0  0
  -28.2594  -38.0119   24.7542 H   0  0  0  0  0  0
  -28.1071  -36.2647   24.6301 H   0  0  0  0  0  0
  -27.2276  -37.1465   25.8873 H   0  0  0  0  0  0
  -20.9292  -29.8772   21.6962 H   0  0  0  0  0  0
  -26.0193  -38.2889   24.1419 H   0  0  0  0  0  0
  -27.3493  -22.2345   22.2139 H   0  0  0  0  0  0
  -31.1942  -20.0875   20.0738 H   0  0  0  0  0  0
  -26.4692  -20.1859   23.0198 H   0  0  0  0  0  0
  -27.6398  -18.9159   23.3554 H   0  0  0  0  0  0
  -26.6812  -18.8700   21.8674 H   0  0  0  0  0  0
  -31.0984  -17.4314   20.2104 H   0  0  0  0  0  0
  -31.6168  -18.3728   21.5903 H   0  0  0  0  0  0
  -30.6028  -16.6088   23.1439 H   0  0  0  0  0  0
  -32.0280  -16.1525   22.2614 H   0  0  0  0  0  0
  -27.6002  -24.8822   19.3978 H   0  0  0  0  0  0
  -28.7224  -25.7125   18.3353 H   0  0  0  0  0  0
  -30.4770  -25.1317   20.2761 H   0  0  0  0  0  0
  -29.9496  -23.9157   19.1266 H   0  0  0  0  0  0
  -28.8529  -17.7790   21.9054 H   0  0  0  0  0  0
  -29.3948  -14.9855   22.0195 H   0  0  0  0  0  0
  1 25  1  0  0  0
  1 30  2  0  0  0
  1 83  1  0  0  0
  2  3  1  0  0  0
  2 25  1  0  0  0
  2 85  1  0  0  0
  2 86  1  0  0  0
  3  4  1  0  0  0
  3 87  1  0  0  0
  3 88  1  0  0  0
  4  5  1  0  0  0
  4 89  1  0  0  0
  4 90  1  0  0  0
  5  6  1  0  0  0
  5 26  1  0  0  0
  5 91  1  0  0  0
  6 25  1  0  0  0
  6 92  1  0  0  0
  6 93  1  0  0  0
  7  8  2  0  0  0
  7 26  1  0  0  0
  7 29  1  0  0  0
  8  9  1  0  0  0
  8 22  1  0  0  0
  9 10  1  0  0  0
  9 27  2  0  0  0
 10 11  2  0  0  0
 10 15  1  0  0  0
 11 12  1  0  0  0
 11 94  1  0  0  0
 12 13  2  0  0  0
 12 95  1  0  0  0
 13 14  1  0  0  0
 13 31  1  0  0  0
 14 15  2  0  0  0
 14 96  1  0  0  0
 15 97  1  0  0  0
 16 17  2  0  0  0
 16 21  1  0  0  0
 16 31  1  0  0  0
 17 18  1  0  0  0
 17 98  1  0  0  0
 18 19  2  0  0  0
 18 99  1  0  0  0
 19 20  1  0  0  0
 19 24  1  0  0  0
 20 21  2  0  0  0
 20100  1  0  0  0
 21 23  1  0  0  0
 22 28  1  0  0  0
 22 32  2  0  0  0
 26 27  1  0  0  0
 28101  1  0  0  0
 28102  1  0  0  0
 29103  1  0  0  0
 29104  1  0  0  0
 33 34  1  0  0  0
 33 66  1  0  0  0
 33 70  2  0  0  0
 34 36  1  0  0  0
 34 59  1  0  0  0
 34105  1  0  0  0
 35 44  2  0  0  0
 35 45  1  0  0  0
 35 68  1  0  0  0
 36 56  1  0  0  0
 36106  1  0  0  0
 37 39  1  0  0  0
 37 47  1  0  0  0
 37 66  1  0  0  0
 37107  1  0  0  0
 38 43  2  0  0  0
 38 46  1  0  0  0
 38 47  1  0  0  0
 39 64  1  0  0  0
 39 67  2  0  0  0
 40 52  1  0  0  0
 40 53  2  0  0  0
 40 58  1  0  0  0
 41108  1  0  0  0
 41109  1  0  0  0
 41110  1  0  0  0
 41 48  1  0  0  0
 42 43  1  0  0  0
 42 66  1  0  0  0
 42111  1  0  0  0
 42112  1  0  0  0
 43 44  1  0  0  0
 44113  1  0  0  0
 45 46  2  0  0  0
 45114  1  0  0  0
 46115  1  0  0  0
 47116  1  0  0  0
 47117  1  0  0  0
 48 56  1  0  0  0
 48 65  1  0  0  0
 48118  1  0  0  0
 49 50  1  0  0  0
 49 53  1  0  0  0
 49 64  1  0  0  0
 49119  1  0  0  0
 50 51  1  0  0  0
 50120  1  0  0  0
 50121  1  0  0  0
 51 52  1  0  0  0
 51122  1  0  0  0
 51123  1  0  0  0
 52124  1  0  0  0
 52125  1  0  0  0
 53 54  1  0  0  0
 54 55  2  0  0  0
 54126  1  0  0  0
 55 57  1  0  0  0
 55127  1  0  0  0
 56 69  2  0  0  0
 57 58  2  0  0  0
 57128  1  0  0  0
 58129  1  0  0  0
 59 60  1  0  0  0
 59 61  1  0  0  0
 59 62  1  0  0  0
 60130  1  0  0  0
 60131  1  0  0  0
 60132  1  0  0  0
 61133  1  0  0  0
 61134  1  0  0  0
 61135  1  0  0  0
 62136  1  0  0  0
 62137  1  0  0  0
 62138  1  0  0  0
 63 65  1  0  0  0
 63139  1  0  0  0
 63140  1  0  0  0
 63141  1  0  0  0
 64142  1  0  0  0
 65143  1  0  0  0
 68 79  1  0  0  0
 71 73  2  0  0  0
 71 75  1  0  0  0
 71144  1  0  0  0
 72 74  2  0  0  0
 72 81  1  0  0  0
 72145  1  0  0  0
 73 74  1  0  0  0
 73 76  1  0  0  0
 74 82  1  0  0  0
 75 81  2  0  0  0
 75 84  1  0  0  0
 76146  1  0  0  0
 76147  1  0  0  0
 76148  1  0  0  0
 77 78  1  0  0  0
 77 82  1  0  0  0
 77149  1  0  0  0
 77150  1  0  0  0
 78 83  1  0  0  0
 78151  1  0  0  0
 78152  1  0  0  0
 79 80  1  0  0  0
 79153  1  0  0  0
 79154  1  0  0  0
 80 84  1  0  0  0
 80155  1  0  0  0
 80156  1  0  0  0
 82157  1  0  0  0
 83158  1  0  0  0
M  ISO  4   1 100  68 101  79 101  83 100
M  END
> <chiral flag>
0

> <version>
0

> <s_m_source_file>
/data/baiqing/PycharmProjects/Reinvent-master-3.2/result/LINK_invent/BTK/process_docking_weight1_custom_sum_contain_oxygen_bond_distance_aromatic_linkinvent_7_9_3/rearranged_h_0133.sdf

> <i_m_source_file_index>
70

> <r_mmod_Potential_Energy-OPLS-2005>
-275.690582275391

> <r_mmod_Stretch_Energy-OPLS-2005>
36.1740913391113

> <r_mmod_Bend_Energy-OPLS-2005>
114.46703338623

> <r_mmod_Torsional_Energy-OPLS-2005>
189.92170715332

> <r_mmod_Improper_Torsional_Energy-OPLS-2005>
3.79552125930786

> <r_mmod_Van_der_Waal_Energy-OPLS-2005>
170.682647705078

> <r_mmod_Electrostatic_Energy-OPLS-2005>
-572.128601074219

> <r_mmod_Solvation_Energy-OPLS-2005>
-228.16389465332

> <b_mmod_Minimization_Converged-OPLS-2005>
0

> <r_mmod_RMS_Derivative-OPLS-2005>
1.38143396377563

$$$$
71
                    3D
 Structure written by MMmdl.
151160  0  0  1  0            999 V2000
  -30.4804  -15.1736   20.3596 C   0  0  0  0  0  0
  -30.4350  -12.7419   19.5119 C   0  0  0  0  0  0
  -29.5242  -12.5450   18.2760 C   0  0  0  0  0  0
  -28.0714  -12.2865   18.7107 C   0  0  0  0  0  0
  -27.6107  -13.2631   19.8218 C   0  0  2  0  0  0
  -28.6496  -13.4199   20.9512 C   0  0  0  0  0  0
  -25.2401  -13.8232   20.5766 C   0  0  0  0  0  0
  -24.1730  -13.0436   20.9246 C   0  0  0  0  0  0
  -24.6371  -11.6930   20.8764 C   0  0  0  0  0  0
  -23.9068  -10.4290   21.0409 C   0  0  0  0  0  0
  -24.3618   -9.4204   21.9183 C   0  0  0  0  0  0
  -23.6292   -8.2238   22.0752 C   0  0  0  0  0  0
  -22.4274   -8.0274   21.3541 C   0  0  0  0  0  0
  -21.9911   -9.0250   20.4646 C   0  0  0  0  0  0
  -22.7242  -10.2130   20.3057 C   0  0  0  0  0  0
  -21.6848   -6.0730   22.5274 C   0  0  0  0  0  0
  -21.4014   -6.5634   23.8207 C   0  0  0  0  0  0
  -21.3661   -5.6787   24.9170 C   0  0  0  0  0  0
  -21.6045   -4.3051   24.7220 C   0  0  0  0  0  0
  -21.8818   -3.8141   23.4342 C   0  0  0  0  0  0
  -21.9191   -4.6957   22.3398 C   0  0  0  0  0  0
  -22.7751  -13.5198   21.1898 C   0  0  0  0  0  0
  -22.1658   -4.2146   21.0972 F   0  0  0  0  0  0
  -21.5634   -3.4533   25.7730 F   0  0  0  0  0  0
  -29.8923  -13.8866   20.3207 N   0  0  0  0  0  0
  -26.2807  -12.9482   20.3240 N   0  0  0  0  0  0
  -25.9303  -11.6602   20.5747 N   0  0  0  0  0  0
  -22.0408  -12.8182   22.0458 N   0  0  0  0  0  0
  -25.4097  -15.1968   20.4263 N   0  0  0  0  0  0
  -31.7118  -15.1602   20.2240 O   0  0  0  0  0  0
  -21.6636   -6.8875   21.4237 O   0  0  0  0  0  0
  -22.3430  -14.5505   20.6746 O   0  0  0  0  0  0
  -24.6587  -31.8291   23.1757 C   0  0  0  0  0  0
  -25.9294  -32.4612   23.8199 C   0  0  1  0  0  0
  -27.2138  -26.9793   20.1738 C   0  0  0  0  0  0
  -25.5983  -33.8425   24.2102 N   0  0  0  0  0  0
  -23.4708  -30.4452   21.5234 C   0  0  2  0  0  0
  -24.9235  -28.8469   20.1111 C   0  0  0  0  0  0
  -22.7648  -29.4471   22.4778 C   0  0  0  0  0  0
  -18.0322  -28.1397   22.8456 C   0  0  0  0  0  0
  -24.1498  -36.7218   23.2646 C   0  0  0  0  0  0
  -26.0388  -30.6507   21.4029 C   0  0  0  0  0  0
  -26.1070  -29.2481   20.7443 C   0  0  0  0  0  0
  -27.2497  -28.3345   20.7546 C   0  0  0  0  0  0
  -26.0018  -26.7271   19.4890 C   0  0  0  0  0  0
  -24.8931  -27.6041   19.4642 C   0  0  0  0  0  0
  -23.7090  -29.7689   20.1469 C   0  0  0  0  0  0
  -25.4135  -36.2973   24.0296 C   0  0  1  0  0  0
  -20.5947  -28.3746   23.1179 C   0  0  2  0  0  0
  -20.6801  -26.9429   22.5384 C   0  0  0  0  0  0
  -19.5774  -26.6374   21.5192 C   0  0  0  0  0  0
  -18.1957  -26.7932   22.1607 C   0  0  0  0  0  0
  -19.1587  -28.8890   23.2804 C   0  0  0  0  0  0
  -18.9503  -30.1482   23.8841 C   0  0  0  0  0  0
  -17.6500  -30.6592   24.0554 C   0  0  0  0  0  0
  -25.9095  -34.9358   23.5010 C   0  0  0  0  0  0
  -16.5385  -29.9082   23.6339 C   0  0  0  0  0  0
  -16.7309  -28.6502   23.0354 C   0  0  0  0  0  0
  -26.4558  -31.6552   25.0721 C   0  0  0  0  0  0
  -25.3695  -31.3792   26.1387 C   0  0  0  0  0  0
  -27.0455  -30.2918   24.6445 C   0  0  0  0  0  0
  -27.6047  -32.4370   25.7513 C   0  0  0  0  0  0
  -27.5568  -37.1763   24.8461 C   0  0  0  0  0  0
  -21.4324  -29.3051   22.3535 N   0  0  0  0  0  0
  -26.4278  -37.3710   23.9404 N   0  0  0  0  0  0
  -24.7433  -31.0010   22.0867 N   0  0  0  0  0  0
  -23.4220  -28.8018   23.2984 O   0  0  0  0  0  0
  -28.2014  -25.8746   20.2543 O   0  0  0  0  0  0
  -26.5707  -34.8884   22.4606 O   0  0  0  0  0  0
  -23.5669  -32.1236   23.6891 O   0  0  0  0  0  0
  -30.0630  -20.7770   20.9376 C   0  0  0  0  0  0
  -28.2533  -20.1639   19.6520 C   0  0  0  0  0  0
  -29.6403  -22.2055   20.9020 C   0  0  0  0  0  0
  -27.8405  -21.5835   19.6080 C   0  0  0  0  0  0
  -29.4186  -19.6172   20.3165 C   0  0  0  0  0  0
  -28.4886  -22.7478   20.2008 C   0  0  0  0  0  0
  -30.0849  -17.6803   18.6606 C   0  0  0  0  0  0
  -29.0011  -16.6621   19.0376 C   0  0  0  0  0  0
  -30.1333  -18.0444   20.1383 C   0  0  2  0  0  0
  -27.7714  -24.3217   20.0865 C   0  0  0  0  0  0
  -29.7296  -16.4469   20.2944 N   0  0  0  0  0  0
  -31.4565  -12.9329   19.1807 H   0  0  0  0  0  0
  -30.4828  -11.8300   20.1093 H   0  0  0  0  0  0
  -29.8838  -11.7163   17.6643 H   0  0  0  0  0  0
  -29.5653  -13.4332   17.6446 H   0  0  0  0  0  0
  -28.0214  -11.2639   19.0863 H   0  0  0  0  0  0
  -27.3981  -12.3297   17.8536 H   0  0  0  0  0  0
  -27.5263  -14.2301   19.3277 H   0  0  0  0  0  0
  -28.7947  -12.4860   21.4964 H   0  0  0  0  0  0
  -28.3089  -14.1598   21.6770 H   0  0  0  0  0  0
  -25.2758   -9.5679   22.4768 H   0  0  0  0  0  0
  -23.9992   -7.4630   22.7479 H   0  0  0  0  0  0
  -21.0837   -8.8779   19.8953 H   0  0  0  0  0  0
  -22.3694  -10.9677   19.6174 H   0  0  0  0  0  0
  -21.2005   -7.6141   23.9711 H   0  0  0  0  0  0
  -21.1487   -6.0515   25.9073 H   0  0  0  0  0  0
  -22.0596   -2.7604   23.2839 H   0  0  0  0  0  0
  -22.4027  -11.9842   22.4841 H   0  0  0  0  0  0
  -21.1031  -13.1212   22.2687 H   0  0  0  0  0  0
  -24.6528  -15.8576   20.5655 H   0  0  0  0  0  0
  -26.2807  -15.6411   20.1659 H   0  0  0  0  0  0
  -26.7357  -32.5162   23.0909 H   0  0  0  0  0  0
  -25.0076  -33.9506   25.0213 H   0  0  0  0  0  0
  -22.7813  -31.2757   21.3573 H   0  0  0  0  0  0
  -23.3762  -35.9543   23.3272 H   0  0  0  0  0  0
  -24.3571  -36.8908   22.2065 H   0  0  0  0  0  0
  -23.7260  -37.6395   23.6735 H   0  0  0  0  0  0
  -26.2198  -31.3958   20.6277 H   0  0  0  0  0  0
  -26.8989  -30.7004   22.0586 H   0  0  0  0  0  0
  -28.1433  -28.6364   21.2836 H   0  0  0  0  0  0
  -25.8591  -25.7852   18.9838 H   0  0  0  0  0  0
  -23.9948  -27.2902   18.9507 H   0  0  0  0  0  0
  -23.8646  -30.5414   19.3928 H   0  0  0  0  0  0
  -22.8203  -29.2227   19.8258 H   0  0  0  0  0  0
  -25.1333  -36.1759   25.0787 H   0  0  0  0  0  0
  -21.0034  -28.3353   24.1302 H   0  0  0  0  0  0
  -20.5674  -26.2362   23.3624 H   0  0  0  0  0  0
  -21.6665  -26.7409   22.1197 H   0  0  0  0  0  0
  -19.6939  -25.6275   21.1254 H   0  0  0  0  0  0
  -19.6714  -27.3155   20.6700 H   0  0  0  0  0  0
  -17.4223  -26.6660   21.4015 H   0  0  0  0  0  0
  -18.0363  -26.0082   22.9014 H   0  0  0  0  0  0
  -19.7985  -30.7298   24.2186 H   0  0  0  0  0  0
  -17.5061  -31.6266   24.5168 H   0  0  0  0  0  0
  -15.5386  -30.2971   23.7706 H   0  0  0  0  0  0
  -15.8701  -28.0816   22.7096 H   0  0  0  0  0  0
  -24.5867  -30.7163   25.7687 H   0  0  0  0  0  0
  -24.8900  -32.2993   26.4739 H   0  0  0  0  0  0
  -25.7928  -30.8995   27.0221 H   0  0  0  0  0  0
  -26.3123  -29.6584   24.1440 H   0  0  0  0  0  0
  -27.3972  -29.7297   25.5107 H   0  0  0  0  0  0
  -27.9069  -30.4090   23.9864 H   0  0  0  0  0  0
  -27.2614  -33.3720   26.1950 H   0  0  0  0  0  0
  -28.3917  -32.6859   25.0385 H   0  0  0  0  0  0
  -28.0641  -31.8600   26.5545 H   0  0  0  0  0  0
  -28.2562  -38.0081   24.7516 H   0  0  0  0  0  0
  -28.1092  -36.2608   24.6283 H   0  0  0  0  0  0
  -27.2281  -37.1397   25.8863 H   0  0  0  0  0  0
  -20.9561  -29.8772   21.6701 H   0  0  0  0  0  0
  -26.0121  -38.2761   24.1437 H   0  0  0  0  0  0
  -30.9839  -20.5741   21.4663 H   0  0  0  0  0  0
  -27.6436  -19.4713   19.0894 H   0  0  0  0  0  0
  -30.2557  -22.9119   21.4421 H   0  0  0  0  0  0
  -26.9360  -21.7856   19.0511 H   0  0  0  0  0  0
  -29.7510  -18.4711   17.9881 H   0  0  0  0  0  0
  -31.0037  -17.2205   18.2903 H   0  0  0  0  0  0
  -28.9648  -15.8194   18.3445 H   0  0  0  0  0  0
  -28.0069  -17.0923   19.1717 H   0  0  0  0  0  0
  -31.1739  -18.1812   20.4359 H   0  0  0  0  0  0
  -26.8873  -24.2295   20.7185 H   0  0  0  0  0  0
  -27.3867  -24.2880   19.0681 H   0  0  0  0  0  0
  1 25  1  0  0  0
  1 30  2  0  0  0
  1 81  1  0  0  0
  2  3  1  0  0  0
  2 25  1  0  0  0
  2 82  1  0  0  0
  2 83  1  0  0  0
  3  4  1  0  0  0
  3 84  1  0  0  0
  3 85  1  0  0  0
  4  5  1  0  0  0
  4 86  1  0  0  0
  4 87  1  0  0  0
  5  6  1  0  0  0
  5 26  1  0  0  0
  5 88  1  0  0  0
  6 25  1  0  0  0
  6 89  1  0  0  0
  6 90  1  0  0  0
  7  8  2  0  0  0
  7 26  1  0  0  0
  7 29  1  0  0  0
  8  9  1  0  0  0
  8 22  1  0  0  0
  9 10  1  0  0  0
  9 27  2  0  0  0
 10 11  2  0  0  0
 10 15  1  0  0  0
 11 12  1  0  0  0
 11 91  1  0  0  0
 12 13  2  0  0  0
 12 92  1  0  0  0
 13 14  1  0  0  0
 13 31  1  0  0  0
 14 15  2  0  0  0
 14 93  1  0  0  0
 15 94  1  0  0  0
 16 17  2  0  0  0
 16 21  1  0  0  0
 16 31  1  0  0  0
 17 18  1  0  0  0
 17 95  1  0  0  0
 18 19  2  0  0  0
 18 96  1  0  0  0
 19 20  1  0  0  0
 19 24  1  0  0  0
 20 21  2  0  0  0
 20 97  1  0  0  0
 21 23  1  0  0  0
 22 28  1  0  0  0
 22 32  2  0  0  0
 26 27  1  0  0  0
 28 98  1  0  0  0
 28 99  1  0  0  0
 29100  1  0  0  0
 29101  1  0  0  0
 33 34  1  0  0  0
 33 66  1  0  0  0
 33 70  2  0  0  0
 34 36  1  0  0  0
 34 59  1  0  0  0
 34102  1  0  0  0
 35 44  2  0  0  0
 35 45  1  0  0  0
 35 68  1  0  0  0
 36 56  1  0  0  0
 36103  1  0  0  0
 37 39  1  0  0  0
 37 47  1  0  0  0
 37 66  1  0  0  0
 37104  1  0  0  0
 38 43  2  0  0  0
 38 46  1  0  0  0
 38 47  1  0  0  0
 39 64  1  0  0  0
 39 67  2  0  0  0
 40 52  1  0  0  0
 40 53  2  0  0  0
 40 58  1  0  0  0
 41105  1  0  0  0
 41106  1  0  0  0
 41107  1  0  0  0
 41 48  1  0  0  0
 42 43  1  0  0  0
 42 66  1  0  0  0
 42108  1  0  0  0
 42109  1  0  0  0
 43 44  1  0  0  0
 44110  1  0  0  0
 45 46  2  0  0  0
 45111  1  0  0  0
 46112  1  0  0  0
 47113  1  0  0  0
 47114  1  0  0  0
 48 56  1  0  0  0
 48 65  1  0  0  0
 48115  1  0  0  0
 49 50  1  0  0  0
 49 53  1  0  0  0
 49 64  1  0  0  0
 49116  1  0  0  0
 50 51  1  0  0  0
 50117  1  0  0  0
 50118  1  0  0  0
 51 52  1  0  0  0
 51119  1  0  0  0
 51120  1  0  0  0
 52121  1  0  0  0
 52122  1  0  0  0
 53 54  1  0  0  0
 54 55  2  0  0  0
 54123  1  0  0  0
 55 57  1  0  0  0
 55124  1  0  0  0
 56 69  2  0  0  0
 57 58  2  0  0  0
 57125  1  0  0  0
 58126  1  0  0  0
 59 60  1  0  0  0
 59 61  1  0  0  0
 59 62  1  0  0  0
 60127  1  0  0  0
 60128  1  0  0  0
 60129  1  0  0  0
 61130  1  0  0  0
 61131  1  0  0  0
 61132  1  0  0  0
 62133  1  0  0  0
 62134  1  0  0  0
 62135  1  0  0  0
 63 65  1  0  0  0
 63136  1  0  0  0
 63137  1  0  0  0
 63138  1  0  0  0
 64139  1  0  0  0
 65140  1  0  0  0
 68 80  1  0  0  0
 71 73  2  0  0  0
 71 75  1  0  0  0
 71141  1  0  0  0
 72 74  1  0  0  0
 72 75  2  0  0  0
 72142  1  0  0  0
 73 76  1  0  0  0
 73143  1  0  0  0
 74 76  2  0  0  0
 74144  1  0  0  0
 75 79  1  0  0  0
 76 80  1  0  0  0
 77 78  1  0  0  0
 77 79  1  0  0  0
 77145  1  0  0  0
 77146  1  0  0  0
 78 81  1  0  0  0
 78147  1  0  0  0
 78148  1  0  0  0
 79 81  1  0  0  0
 79149  1  0  0  0
 80150  1  0  0  0
 80151  1  0  0  0
M  ISO  4   1 100  68 101  80 101  81 100
M  END
> <chiral flag>
0

> <version>
0

> <s_m_source_file>
/data/baiqing/PycharmProjects/Reinvent-master-3.2/result/LINK_invent/BTK/process_docking_weight1_custom_sum_contain_oxygen_bond_distance_aromatic_linkinvent_7_9_3/rearranged_h_0133.sdf

> <i_m_source_file_index>
71

> <r_mmod_Potential_Energy-OPLS-2005>
1185.47692871094

> <r_mmod_Stretch_Energy-OPLS-2005>
447.461791992188

> <r_mmod_Bend_Energy-OPLS-2005>
442.647613525391

> <r_mmod_Torsional_Energy-OPLS-2005>
285.720336914062

> <r_mmod_Improper_Torsional_Energy-OPLS-2005>
15.9423894882202

> <r_mmod_Van_der_Waal_Energy-OPLS-2005>
135.134643554688

> <r_mmod_Electrostatic_Energy-OPLS-2005>
-317.395233154297

> <r_mmod_Solvation_Energy-OPLS-2005>
-206.402694702148

> <b_mmod_Minimization_Converged-OPLS-2005>
0

> <r_mmod_RMS_Derivative-OPLS-2005>
1.26945424079895

$$$$
72
                    3D
 Structure written by MMmdl.
156164  0  0  1  0            999 V2000
  -30.7465  -14.4008   20.6544 C   0  0  0  0  0  0
  -30.4180  -12.2998   19.3980 C   0  0  0  0  0  0
  -29.4842  -12.5204   18.1930 C   0  0  0  0  0  0
  -28.0088  -12.3747   18.6113 C   0  0  0  0  0  0
  -27.6637  -13.2032   19.8770 C   0  0  2  0  0  0
  -28.7032  -12.9554   20.9915 C   0  0  0  0  0  0
  -25.2596  -13.8155   20.5676 C   0  0  0  0  0  0
  -24.1843  -13.0436   20.9170 C   0  0  0  0  0  0
  -24.6393  -11.6903   20.8731 C   0  0  0  0  0  0
  -23.9060  -10.4291   21.0406 C   0  0  0  0  0  0
  -24.3613   -9.4207   21.9186 C   0  0  0  0  0  0
  -23.6288   -8.2244   22.0755 C   0  0  0  0  0  0
  -22.4272   -8.0283   21.3545 C   0  0  0  0  0  0
  -21.9910   -9.0256   20.4643 C   0  0  0  0  0  0
  -22.7237  -10.2134   20.3053 C   0  0  0  0  0  0
  -21.6851   -6.0738   22.5280 C   0  0  0  0  0  0
  -21.4012   -6.5641   23.8214 C   0  0  0  0  0  0
  -21.3658   -5.6793   24.9177 C   0  0  0  0  0  0
  -21.6045   -4.3055   24.7225 C   0  0  0  0  0  0
  -21.8821   -3.8149   23.4346 C   0  0  0  0  0  0
  -21.9193   -4.6966   22.3403 C   0  0  0  0  0  0
  -22.7867  -13.5240   21.1838 C   0  0  0  0  0  0
  -22.1663   -4.2152   21.0980 F   0  0  0  0  0  0
  -21.5630   -3.4539   25.7738 F   0  0  0  0  0  0
  -30.0402  -13.2580   20.4478 N   0  0  0  0  0  0
  -26.3033  -12.9320   20.3370 N   0  0  0  0  0  0
  -25.9316  -11.6481   20.5757 N   0  0  0  0  0  0
  -22.0507  -12.8228   22.0393 N   0  0  0  0  0  0
  -25.4331  -15.1870   20.4093 N   0  0  0  0  0  0
  -31.8104  -14.6517   20.0805 O   0  0  0  0  0  0
  -21.6637   -6.8882   21.4242 O   0  0  0  0  0  0
  -22.3558  -14.5551   20.6696 O   0  0  0  0  0  0
  -24.6127  -31.8687   23.2115 C   0  0  0  0  0  0
  -25.9026  -32.4823   23.8405 C   0  0  1  0  0  0
  -27.2394  -27.4492   20.0707 C   0  0  0  0  0  0
  -25.5882  -33.8622   24.2332 N   0  0  0  0  0  0
  -23.3993  -30.4932   21.5526 C   0  0  2  0  0  0
  -24.8437  -28.9587   20.1167 C   0  0  0  0  0  0
  -22.7386  -29.4670   22.5008 C   0  0  0  0  0  0
  -18.0263  -28.1372   22.8497 C   0  0  0  0  0  0
  -24.1484  -36.7323   23.2636 C   0  0  0  0  0  0
  -25.9274  -30.8352   21.3634 C   0  0  0  0  0  0
  -26.0035  -29.4696   20.7113 C   0  0  0  0  0  0
  -27.1993  -28.7173   20.6946 C   0  0  0  0  0  0
  -26.0499  -26.9372   19.5020 C   0  0  0  0  0  0
  -24.8599  -27.6883   19.5165 C   0  0  0  0  0  0
  -23.6059  -29.8250   20.1671 C   0  0  0  0  0  0
  -25.4102  -36.3115   24.0338 C   0  0  1  0  0  0
  -20.5849  -28.3658   23.1329 C   0  0  2  0  0  0
  -20.6752  -26.9399   22.5424 C   0  0  0  0  0  0
  -19.5737  -26.6389   21.5211 C   0  0  0  0  0  0
  -18.1912  -26.7922   22.1623 C   0  0  0  0  0  0
  -19.1511  -28.8831   23.2911 C   0  0  0  0  0  0
  -18.9440  -30.1438   23.8920 C   0  0  0  0  0  0
  -17.6444  -30.6580   24.0572 C   0  0  0  0  0  0
  -25.9029  -34.9476   23.5134 C   0  0  0  0  0  0
  -16.5335  -29.9086   23.6325 C   0  0  0  0  0  0
  -16.7254  -28.6502   23.0347 C   0  0  0  0  0  0
  -26.4458  -31.6592   25.0723 C   0  0  0  0  0  0
  -25.3726  -31.3672   26.1468 C   0  0  0  0  0  0
  -27.0296  -30.3043   24.6085 C   0  0  0  0  0  0
  -27.6038  -32.4302   25.7483 C   0  0  0  0  0  0
  -27.5580  -37.1808   24.8461 C   0  0  0  0  0  0
  -21.4115  -29.3035   22.3743 N   0  0  0  0  0  0
  -26.4292  -37.3795   23.9408 N   0  0  0  0  0  0
  -24.6650  -31.0795   22.1012 N   0  0  0  0  0  0
  -23.4166  -28.8209   23.3040 O   0  0  0  0  0  0
  -28.4264  -26.7452   20.0792 O   0  0  0  0  0  0
  -26.5600  -34.8926   22.4700 O   0  0  0  0  0  0
  -23.5324  -32.1446   23.7513 O   0  0  0  0  0  0
  -30.2757  -20.4365   20.2378 C   0  0  0  0  0  0
  -27.9570  -20.1122   20.8724 C   0  0  0  0  0  0
  -30.0117  -21.7965   19.9641 C   0  0  0  0  0  0
  -27.6925  -21.4685   20.5906 C   0  0  0  0  0  0
  -29.2514  -19.5789   20.7045 C   0  0  0  0  0  0
  -28.7100  -22.3313   20.1355 C   0  0  0  0  0  0
  -30.8063  -17.6566   21.1017 C   0  0  0  0  0  0
  -30.8650  -16.4554   22.0654 C   0  0  0  0  0  0
  -29.3633  -24.5538   19.4356 C   0  0  0  0  0  0
  -28.7409  -25.8872   18.9742 C   0  0  0  0  0  0
  -29.4626  -18.2218   21.0091 N   0  0  0  0  0  0
  -30.2158  -15.2535   21.5415 N   0  0  0  0  0  0
  -28.3563  -23.6439   19.8810 O   0  0  0  0  0  0
  -31.4606  -12.4034   19.0916 H   0  0  0  0  0  0
  -30.3214  -11.2805   19.7744 H   0  0  0  0  0  0
  -29.7183  -11.8102   17.3990 H   0  0  0  0  0  0
  -29.6513  -13.5141   17.7746 H   0  0  0  0  0  0
  -27.8197  -11.3171   18.7983 H   0  0  0  0  0  0
  -27.3536  -12.6584   17.7867 H   0  0  0  0  0  0
  -27.7186  -14.2556   19.5974 H   0  0  0  0  0  0
  -28.6730  -11.9124   21.3097 H   0  0  0  0  0  0
  -28.4515  -13.5315   21.8820 H   0  0  0  0  0  0
  -25.2759   -9.5685   22.4758 H   0  0  0  0  0  0
  -23.9998   -7.4639   22.7475 H   0  0  0  0  0  0
  -21.0844   -8.8776   19.8944 H   0  0  0  0  0  0
  -22.3702  -10.9675   19.6158 H   0  0  0  0  0  0
  -21.2001   -7.6149   23.9718 H   0  0  0  0  0  0
  -21.1478   -6.0522   25.9080 H   0  0  0  0  0  0
  -22.0601   -2.7611   23.2847 H   0  0  0  0  0  0
  -22.4117  -11.9877   22.4762 H   0  0  0  0  0  0
  -21.1130  -13.1261   22.2605 H   0  0  0  0  0  0
  -24.6690  -15.8455   20.5156 H   0  0  0  0  0  0
  -26.2928  -15.6237   20.1003 H   0  0  0  0  0  0
  -26.7092  -32.5539   23.1167 H   0  0  0  0  0  0
  -25.0003  -33.9793   25.0455 H   0  0  0  0  0  0
  -22.6875  -31.3097   21.4145 H   0  0  0  0  0  0
  -23.3744  -35.9658   23.3304 H   0  0  0  0  0  0
  -24.3578  -36.8937   22.2052 H   0  0  0  0  0  0
  -23.7245  -37.6528   23.6655 H   0  0  0  0  0  0
  -26.0366  -31.6010   20.5940 H   0  0  0  0  0  0
  -26.8169  -30.8900   21.9794 H   0  0  0  0  0  0
  -28.0972  -29.1118   21.1504 H   0  0  0  0  0  0
  -26.0124  -25.9510   19.0640 H   0  0  0  0  0  0
  -23.9619  -27.2795   19.0734 H   0  0  0  0  0  0
  -23.7127  -30.5999   19.4070 H   0  0  0  0  0  0
  -22.7295  -29.2444   19.8737 H   0  0  0  0  0  0
  -25.1280  -36.1980   25.0834 H   0  0  0  0  0  0
  -20.9938  -28.3221   24.1452 H   0  0  0  0  0  0
  -20.5643  -26.2265   23.3605 H   0  0  0  0  0  0
  -21.6627  -26.7441   22.1223 H   0  0  0  0  0  0
  -19.6899  -25.6305   21.1228 H   0  0  0  0  0  0
  -19.6675  -27.3208   20.6749 H   0  0  0  0  0  0
  -17.4181  -26.6673   21.4026 H   0  0  0  0  0  0
  -18.0313  -26.0057   22.9013 H   0  0  0  0  0  0
  -19.7916  -30.7247   24.2300 H   0  0  0  0  0  0
  -17.5002  -31.6260   24.5173 H   0  0  0  0  0  0
  -15.5337  -30.2997   23.7640 H   0  0  0  0  0  0
  -15.8652  -28.0833   22.7049 H   0  0  0  0  0  0
  -24.5921  -30.6994   25.7797 H   0  0  0  0  0  0
  -24.8882  -32.2809   26.4921 H   0  0  0  0  0  0
  -25.8088  -30.8841   27.0222 H   0  0  0  0  0  0
  -26.2841  -29.6792   24.1154 H   0  0  0  0  0  0
  -27.4097  -29.7281   25.4531 H   0  0  0  0  0  0
  -27.8658  -30.4374   23.9216 H   0  0  0  0  0  0
  -27.2674  -33.3604   26.2074 H   0  0  0  0  0  0
  -28.3841  -32.6850   25.0299 H   0  0  0  0  0  0
  -28.0711  -31.8410   26.5385 H   0  0  0  0  0  0
  -28.2589  -38.0112   24.7521 H   0  0  0  0  0  0
  -28.1087  -36.2646   24.6275 H   0  0  0  0  0  0
  -27.2299  -37.1440   25.8862 H   0  0  0  0  0  0
  -20.9259  -29.8778   21.6996 H   0  0  0  0  0  0
  -26.0186  -38.2873   24.1414 H   0  0  0  0  0  0
  -31.2803  -20.0738   20.0776 H   0  0  0  0  0  0
  -27.1485  -19.4861   21.2229 H   0  0  0  0  0  0
  -30.8332  -22.4061   19.6190 H   0  0  0  0  0  0
  -26.6913  -21.8507   20.7282 H   0  0  0  0  0  0
  -31.1679  -17.3821   20.1091 H   0  0  0  0  0  0
  -31.4929  -18.4125   21.4852 H   0  0  0  0  0  0
  -30.4198  -16.7126   23.0275 H   0  0  0  0  0  0
  -31.9101  -16.2213   22.2792 H   0  0  0  0  0  0
  -30.1056  -24.7241   20.2165 H   0  0  0  0  0  0
  -29.8803  -24.1251   18.5758 H   0  0  0  0  0  0
  -27.9309  -25.6960   18.2737 H   0  0  0  0  0  0
  -29.4890  -26.4231   18.3896 H   0  0  0  0  0  0
  -28.6949  -17.6738   21.3872 H   0  0  0  0  0  0
  -29.3379  -14.9830   21.9585 H   0  0  0  0  0  0
  1 25  1  0  0  0
  1 30  2  0  0  0
  1 82  1  0  0  0
  2  3  1  0  0  0
  2 25  1  0  0  0
  2 84  1  0  0  0
  2 85  1  0  0  0
  3  4  1  0  0  0
  3 86  1  0  0  0
  3 87  1  0  0  0
  4  5  1  0  0  0
  4 88  1  0  0  0
  4 89  1  0  0  0
  5  6  1  0  0  0
  5 26  1  0  0  0
  5 90  1  0  0  0
  6 25  1  0  0  0
  6 91  1  0  0  0
  6 92  1  0  0  0
  7  8  2  0  0  0
  7 26  1  0  0  0
  7 29  1  0  0  0
  8  9  1  0  0  0
  8 22  1  0  0  0
  9 10  1  0  0  0
  9 27  2  0  0  0
 10 11  2  0  0  0
 10 15  1  0  0  0
 11 12  1  0  0  0
 11 93  1  0  0  0
 12 13  2  0  0  0
 12 94  1  0  0  0
 13 14  1  0  0  0
 13 31  1  0  0  0
 14 15  2  0  0  0
 14 95  1  0  0  0
 15 96  1  0  0  0
 16 17  2  0  0  0
 16 21  1  0  0  0
 16 31  1  0  0  0
 17 18  1  0  0  0
 17 97  1  0  0  0
 18 19  2  0  0  0
 18 98  1  0  0  0
 19 20  1  0  0  0
 19 24  1  0  0  0
 20 21  2  0  0  0
 20 99  1  0  0  0
 21 23  1  0  0  0
 22 28  1  0  0  0
 22 32  2  0  0  0
 26 27  1  0  0  0
 28100  1  0  0  0
 28101  1  0  0  0
 29102  1  0  0  0
 29103  1  0  0  0
 33 34  1  0  0  0
 33 66  1  0  0  0
 33 70  2  0  0  0
 34 36  1  0  0  0
 34 59  1  0  0  0
 34104  1  0  0  0
 35 44  2  0  0  0
 35 45  1  0  0  0
 35 68  1  0  0  0
 36 56  1  0  0  0
 36105  1  0  0  0
 37 39  1  0  0  0
 37 47  1  0  0  0
 37 66  1  0  0  0
 37106  1  0  0  0
 38 43  2  0  0  0
 38 46  1  0  0  0
 38 47  1  0  0  0
 39 64  1  0  0  0
 39 67  2  0  0  0
 40 52  1  0  0  0
 40 53  2  0  0  0
 40 58  1  0  0  0
 41107  1  0  0  0
 41108  1  0  0  0
 41109  1  0  0  0
 41 48  1  0  0  0
 42 43  1  0  0  0
 42 66  1  0  0  0
 42110  1  0  0  0
 42111  1  0  0  0
 43 44  1  0  0  0
 44112  1  0  0  0
 45 46  2  0  0  0
 45113  1  0  0  0
 46114  1  0  0  0
 47115  1  0  0  0
 47116  1  0  0  0
 48 56  1  0  0  0
 48 65  1  0  0  0
 48117  1  0  0  0
 49 50  1  0  0  0
 49 53  1  0  0  0
 49 64  1  0  0  0
 49118  1  0  0  0
 50 51  1  0  0  0
 50119  1  0  0  0
 50120  1  0  0  0
 51 52  1  0  0  0
 51121  1  0  0  0
 51122  1  0  0  0
 52123  1  0  0  0
 52124  1  0  0  0
 53 54  1  0  0  0
 54 55  2  0  0  0
 54125  1  0  0  0
 55 57  1  0  0  0
 55126  1  0  0  0
 56 69  2  0  0  0
 57 58  2  0  0  0
 57127  1  0  0  0
 58128  1  0  0  0
 59 60  1  0  0  0
 59 61  1  0  0  0
 59 62  1  0  0  0
 60129  1  0  0  0
 60130  1  0  0  0
 60131  1  0  0  0
 61132  1  0  0  0
 61133  1  0  0  0
 61134  1  0  0  0
 62135  1  0  0  0
 62136  1  0  0  0
 62137  1  0  0  0
 63 65  1  0  0  0
 63138  1  0  0  0
 63139  1  0  0  0
 63140  1  0  0  0
 64141  1  0  0  0
 65142  1  0  0  0
 68 80  1  0  0  0
 71 73  2  0  0  0
 71 75  1  0  0  0
 71143  1  0  0  0
 72 74  1  0  0  0
 72 75  2  0  0  0
 72144  1  0  0  0
 73 76  1  0  0  0
 73145  1  0  0  0
 74 76  2  0  0  0
 74146  1  0  0  0
 75 81  1  0  0  0
 76 83  1  0  0  0
 77 78  1  0  0  0
 77 81  1  0  0  0
 77147  1  0  0  0
 77148  1  0  0  0
 78 82  1  0  0  0
 78149  1  0  0  0
 78150  1  0  0  0
 79 80  1  0  0  0
 79 83  1  0  0  0
 79151  1  0  0  0
 79152  1  0  0  0
 80153  1  0  0  0
 80154  1  0  0  0
 81155  1  0  0  0
 82156  1  0  0  0
M  ISO  4   1 100  68 101  80 101  82 100
M  END
> <chiral flag>
0

> <version>
0

> <s_m_source_file>
/data/baiqing/PycharmProjects/Reinvent-master-3.2/result/LINK_invent/BTK/process_docking_weight1_custom_sum_contain_oxygen_bond_distance_aromatic_linkinvent_7_9_3/rearranged_h_0133.sdf

> <i_m_source_file_index>
72

> <r_mmod_Potential_Energy-OPLS-2005>
-167.412490844727

> <r_mmod_Stretch_Energy-OPLS-2005>
34.4750823974609

> <r_mmod_Bend_Energy-OPLS-2005>
114.033226013184

> <r_mmod_Torsional_Energy-OPLS-2005>
197.818069458008

> <r_mmod_Improper_Torsional_Energy-OPLS-2005>
2.3855459690094

> <r_mmod_Van_der_Waal_Energy-OPLS-2005>
162.000228881836

> <r_mmod_Electrostatic_Energy-OPLS-2005>
-459.90087890625

> <r_mmod_Solvation_Energy-OPLS-2005>
-226.531814575195

> <b_mmod_Minimization_Converged-OPLS-2005>
0

> <r_mmod_RMS_Derivative-OPLS-2005>
0.63792097568512

$$$$
73
                    3D
 Structure written by MMmdl.
170179  0  0  1  0            999 V2000
  -30.3048  -15.6013   20.3328 C   0  0  0  0  0  0
  -30.4307  -13.0496   19.5442 C   0  0  0  0  0  0
  -29.5509  -12.6549   18.3218 C   0  0  0  0  0  0
  -28.1226  -12.3017   18.7625 C   0  0  0  0  0  0
  -27.6008  -13.3039   19.8173 C   0  0  2  0  0  0
  -28.6199  -13.6042   20.9425 C   0  0  0  0  0  0
  -25.2346  -13.8278   20.5782 C   0  0  0  0  0  0
  -24.1734  -13.0430   20.9289 C   0  0  0  0  0  0
  -24.6432  -11.6935   20.8766 C   0  0  0  0  0  0
  -23.9135  -10.4288   21.0407 C   0  0  0  0  0  0
  -24.3666   -9.4193   21.9186 C   0  0  0  0  0  0
  -23.6315   -8.2236   22.0749 C   0  0  0  0  0  0
  -22.4293   -8.0287   21.3546 C   0  0  0  0  0  0
  -21.9951   -9.0265   20.4644 C   0  0  0  0  0  0
  -22.7304  -10.2128   20.3052 C   0  0  0  0  0  0
  -21.6855   -6.0743   22.5290 C   0  0  0  0  0  0
  -21.4019   -6.5647   23.8227 C   0  0  0  0  0  0
  -21.3652   -5.6795   24.9188 C   0  0  0  0  0  0
  -21.6042   -4.3060   24.7237 C   0  0  0  0  0  0
  -21.8814   -3.8150   23.4363 C   0  0  0  0  0  0
  -21.9192   -4.6966   22.3416 C   0  0  0  0  0  0
  -22.7745  -13.5158   21.1921 C   0  0  0  0  0  0
  -22.1662   -4.2155   21.0990 F   0  0  0  0  0  0
  -21.5618   -3.4538   25.7748 F   0  0  0  0  0  0
  -29.8049  -14.2251   20.3042 N   0  0  0  0  0  0
  -26.2793  -12.9604   20.3219 N   0  0  0  0  0  0
  -25.9384  -11.6685   20.5702 N   0  0  0  0  0  0
  -22.0398  -12.8127   22.0458 N   0  0  0  0  0  0
  -25.3937  -15.2018   20.4212 N   0  0  0  0  0  0
  -31.5307  -15.5645   20.1090 O   0  0  0  0  0  0
  -21.6642   -6.8889   21.4254 O   0  0  0  0  0  0
  -22.3431  -14.5468   20.6762 O   0  0  0  0  0  0
  -24.6831  -31.7990   23.1514 C   0  0  0  0  0  0
  -25.9406  -32.4468   23.8075 C   0  0  1  0  0  0
  -27.2385  -26.6998   20.2229 C   0  0  0  0  0  0
  -25.5986  -33.8292   24.1956 N   0  0  0  0  0  0
  -23.5137  -30.3992   21.5034 C   0  0  2  0  0  0
  -24.9760  -28.7393   20.1200 C   0  0  0  0  0  0
  -22.7782  -29.4320   22.4701 C   0  0  0  0  0  0
  -18.0322  -28.1395   22.8482 C   0  0  0  0  0  0
  -24.1497  -36.7144   23.2660 C   0  0  0  0  0  0
  -26.0932  -30.5334   21.4179 C   0  0  0  0  0  0
  -26.1629  -29.0969   20.7698 C   0  0  0  0  0  0
  -27.2782  -28.1039   20.7900 C   0  0  0  0  0  0
  -26.0188  -26.5551   19.5135 C   0  0  0  0  0  0
  -24.9424  -27.4930   19.4700 C   0  0  0  0  0  0
  -23.7714  -29.6940   20.1398 C   0  0  0  0  0  0
  -25.4142  -36.2888   24.0288 C   0  0  1  0  0  0
  -20.5975  -28.3766   23.1063 C   0  0  2  0  0  0
  -20.6800  -26.9489   22.5178 C   0  0  0  0  0  0
  -19.5677  -26.6410   21.5117 C   0  0  0  0  0  0
  -18.1943  -26.7892   22.1693 C   0  0  0  0  0  0
  -19.1603  -28.8904   23.2758 C   0  0  0  0  0  0
  -18.9527  -30.1487   23.8806 C   0  0  0  0  0  0
  -17.6528  -30.6603   24.0532 C   0  0  0  0  0  0
  -25.9120  -34.9281   23.4955 C   0  0  0  0  0  0
  -16.5408  -29.9093   23.6349 C   0  0  0  0  0  0
  -16.7310  -28.6499   23.0402 C   0  0  0  0  0  0
  -26.4582  -31.6511   25.0697 C   0  0  0  0  0  0
  -25.3622  -31.3807   26.1287 C   0  0  0  0  0  0
  -27.0540  -30.2859   24.6605 C   0  0  0  0  0  0
  -27.6041  -32.4374   25.7500 C   0  0  0  0  0  0
  -27.5561  -37.1723   24.8466 C   0  0  0  0  0  0
  -21.4426  -29.3057   22.3444 N   0  0  0  0  0  0
  -26.4265  -37.3648   23.9417 N   0  0  0  0  0  0
  -24.7867  -30.9438   22.0769 N   0  0  0  0  0  0
  -23.4209  -28.7921   23.3052 O   0  0  0  0  0  0
  -28.1918  -25.4704   20.3212 O   0  0  0  0  0  0
  -26.5758  -34.8867   22.4568 O   0  0  0  0  0  0
  -23.5839  -32.1077   23.6442 O   0  0  0  0  0  0
  -28.8604  -19.5510   21.4382 C   0  0  0  0  0  0
  -28.5532  -21.0489   21.4103 C   0  0  0  0  0  0
  -28.6631  -22.0285   20.2903 C   0  0  0  0  0  0
  -29.2315  -21.0549   19.2954 C   0  0  0  0  0  0
  -29.4006  -18.6398   20.4012 C   0  0  0  0  0  0
  -25.5957  -20.7495   24.9476 C   0  0  0  0  0  0
  -24.1688  -21.0538   25.4114 C   0  0  0  0  0  0
  -25.9770  -21.9253   24.0444 C   0  0  2  0  0  0
  -24.6535  -22.6784   23.8502 C   0  0  2  0  0  0
  -29.5345  -21.6343   17.9315 C   0  0  0  0  0  0
  -23.5130  -24.8862   23.2192 C   0  0  0  0  0  0
  -28.0240  -21.6043   22.7153 C   0  0  0  0  0  0
  -27.9300  -23.7525   20.0661 C   0  0  0  0  0  0
  -24.8274  -24.1848   23.5820 C   0  0  0  0  0  0
  -29.5505  -19.6113   19.3562 N   0  0  0  0  0  0
  -23.9554  -22.4630   25.1108 N   0  0  0  0  0  0
  -29.4959  -16.9215   20.4901 N   0  0  0  0  0  0
  -26.5615  -21.4798   22.7659 N   0  3  0  0  0  0
  -31.4290  -13.3021   19.1854 H   0  0  0  0  0  0
  -30.5770  -12.1914   20.2021 H   0  0  0  0  0  0
  -29.9965  -11.8178   17.7830 H   0  0  0  0  0  0
  -29.5173  -13.4889   17.6193 H   0  0  0  0  0  0
  -28.1471  -11.2997   19.1939 H   0  0  0  0  0  0
  -27.4518  -12.2531   17.9042 H   0  0  0  0  0  0
  -27.4734  -14.2334   19.2617 H   0  0  0  0  0  0
  -28.8697  -12.7033   21.5052 H   0  0  0  0  0  0
  -28.1934  -14.3049   21.6615 H   0  0  0  0  0  0
  -25.2818   -9.5649   22.4763 H   0  0  0  0  0  0
  -24.0009   -7.4632   22.7482 H   0  0  0  0  0  0
  -21.0867   -8.8813   19.8963 H   0  0  0  0  0  0
  -22.3789  -10.9667   19.6151 H   0  0  0  0  0  0
  -21.2020   -7.6156   23.9738 H   0  0  0  0  0  0
  -21.1471   -6.0523   25.9088 H   0  0  0  0  0  0
  -22.0595   -2.7613   23.2870 H   0  0  0  0  0  0
  -22.4028  -11.9810   22.4880 H   0  0  0  0  0  0
  -21.0998  -13.1127   22.2635 H   0  0  0  0  0  0
  -24.6127  -15.8410   20.5237 H   0  0  0  0  0  0
  -26.2142  -15.6406   20.0250 H   0  0  0  0  0  0
  -26.7501  -32.4952   23.0801 H   0  0  0  0  0  0
  -25.0051  -33.9344   25.0058 H   0  0  0  0  0  0
  -22.8379  -31.2353   21.3085 H   0  0  0  0  0  0
  -23.3781  -35.9449   23.3253 H   0  0  0  0  0  0
  -24.3583  -36.8874   22.2094 H   0  0  0  0  0  0
  -23.7247  -37.6296   23.6783 H   0  0  0  0  0  0
  -26.2960  -31.2597   20.6303 H   0  0  0  0  0  0
  -26.9426  -30.6035   22.0853 H   0  0  0  0  0  0
  -28.1698  -28.3820   21.3354 H   0  0  0  0  0  0
  -25.8523  -25.6124   19.0132 H   0  0  0  0  0  0
  -24.0460  -27.2050   18.9381 H   0  0  0  0  0  0
  -23.9535  -30.4534   19.3781 H   0  0  0  0  0  0
  -22.8783  -29.1604   19.8104 H   0  0  0  0  0  0
  -25.1354  -36.1637   25.0777 H   0  0  0  0  0  0
  -21.0052  -28.3291   24.1184 H   0  0  0  0  0  0
  -20.5893  -26.2346   23.3371 H   0  0  0  0  0  0
  -21.6563  -26.7626   22.0711 H   0  0  0  0  0  0
  -19.6859  -25.6322   21.1144 H   0  0  0  0  0  0
  -19.6475  -27.3213   20.6622 H   0  0  0  0  0  0
  -17.4112  -26.6489   21.4234 H   0  0  0  0  0  0
  -18.0547  -26.0089   22.9181 H   0  0  0  0  0  0
  -19.8018  -30.7285   24.2153 H   0  0  0  0  0  0
  -17.5112  -31.6291   24.5117 H   0  0  0  0  0  0
  -15.5409  -30.2989   23.7722 H   0  0  0  0  0  0
  -15.8704  -28.0782   22.7209 H   0  0  0  0  0  0
  -24.5842  -30.7142   25.7537 H   0  0  0  0  0  0
  -24.8766  -32.3016   26.4522 H   0  0  0  0  0  0
  -25.7759  -30.9070   27.0198 H   0  0  0  0  0  0
  -26.3270  -29.6438   24.1625 H   0  0  0  0  0  0
  -27.4006  -29.7350   25.5361 H   0  0  0  0  0  0
  -27.9232  -30.4010   24.0130 H   0  0  0  0  0  0
  -27.2614  -33.3768   26.1851 H   0  0  0  0  0  0
  -28.3948  -32.6784   25.0379 H   0  0  0  0  0  0
  -28.0604  -31.8654   26.5588 H   0  0  0  0  0  0
  -28.2517  -38.0076   24.7527 H   0  0  0  0  0  0
  -28.1118  -36.2590   24.6266 H   0  0  0  0  0  0
  -27.2279  -37.1326   25.8871 H   0  0  0  0  0  0
  -20.9735  -29.8772   21.6552 H   0  0  0  0  0  0
  -26.0080  -38.2684   24.1442 H   0  0  0  0  0  0
  -28.6408  -19.0497   22.3721 H   0  0  0  0  0  0
  -25.6243  -19.7860   24.4350 H   0  0  0  0  0  0
  -26.2813  -20.6820   25.7941 H   0  0  0  0  0  0
  -24.0172  -20.8346   26.4698 H   0  0  0  0  0  0
  -23.4517  -20.4588   24.8423 H   0  0  0  0  0  0
  -26.6759  -22.5750   24.5779 H   0  0  0  0  0  0
  -24.0727  -22.2109   23.0515 H   0  0  0  0  0  0
  -28.6347  -22.0604   17.4908 H   0  0  0  0  0  0
  -29.9245  -20.8825   17.2444 H   0  0  0  0  0  0
  -30.2796  -22.4255   18.0229 H   0  0  0  0  0  0
  -23.6932  -25.9333   22.9728 H   0  0  0  0  0  0
  -22.8045  -24.8554   24.0471 H   0  0  0  0  0  0
  -23.0387  -24.4189   22.3557 H   0  0  0  0  0  0
  -28.3193  -22.6492   22.8194 H   0  0  0  0  0  0
  -28.4758  -21.0715   23.5532 H   0  0  0  0  0  0
  -26.9541  -23.6247   20.5341 H   0  0  0  0  0  0
  -27.6931  -23.7447   19.0021 H   0  0  0  0  0  0
  -25.5226  -24.3267   22.7528 H   0  0  0  0  0  0
  -25.2840  -24.6812   24.4403 H   0  0  0  0  0  0
  -24.4336  -23.0080   25.8247 H   0  0  0  0  0  0
  -28.5913  -16.5957   20.7932 H   0  0  0  0  0  0
  -26.1885  -22.0367   22.0172 H   0  0  0  0  0  0
  -26.3074  -20.5238   22.5830 H   0  0  0  0  0  0
  1 25  1  0  0  0
  1 30  2  0  0  0
  1 87  1  0  0  0
  2  3  1  0  0  0
  2 25  1  0  0  0
  2 89  1  0  0  0
  2 90  1  0  0  0
  3  4  1  0  0  0
  3 91  1  0  0  0
  3 92  1  0  0  0
  4  5  1  0  0  0
  4 93  1  0  0  0
  4 94  1  0  0  0
  5  6  1  0  0  0
  5 26  1  0  0  0
  5 95  1  0  0  0
  6 25  1  0  0  0
  6 96  1  0  0  0
  6 97  1  0  0  0
  7  8  2  0  0  0
  7 26  1  0  0  0
  7 29  1  0  0  0
  8  9  1  0  0  0
  8 22  1  0  0  0
  9 10  1  0  0  0
  9 27  2  0  0  0
 10 11  2  0  0  0
 10 15  1  0  0  0
 11 12  1  0  0  0
 11 98  1  0  0  0
 12 13  2  0  0  0
 12 99  1  0  0  0
 13 14  1  0  0  0
 13 31  1  0  0  0
 14 15  2  0  0  0
 14100  1  0  0  0
 15101  1  0  0  0
 16 17  2  0  0  0
 16 21  1  0  0  0
 16 31  1  0  0  0
 17 18  1  0  0  0
 17102  1  0  0  0
 18 19  2  0  0  0
 18103  1  0  0  0
 19 20  1  0  0  0
 19 24  1  0  0  0
 20 21  2  0  0  0
 20104  1  0  0  0
 21 23  1  0  0  0
 22 28  1  0  0  0
 22 32  2  0  0  0
 26 27  1  0  0  0
 28105  1  0  0  0
 28106  1  0  0  0
 29107  1  0  0  0
 29108  1  0  0  0
 33 34  1  0  0  0
 33 66  1  0  0  0
 33 70  2  0  0  0
 34 36  1  0  0  0
 34 59  1  0  0  0
 34109  1  0  0  0
 35 44  2  0  0  0
 35 45  1  0  0  0
 35 68  1  0  0  0
 36 56  1  0  0  0
 36110  1  0  0  0
 37 39  1  0  0  0
 37 47  1  0  0  0
 37 66  1  0  0  0
 37111  1  0  0  0
 38 43  2  0  0  0
 38 46  1  0  0  0
 38 47  1  0  0  0
 39 64  1  0  0  0
 39 67  2  0  0  0
 40 52  1  0  0  0
 40 53  2  0  0  0
 40 58  1  0  0  0
 41112  1  0  0  0
 41113  1  0  0  0
 41114  1  0  0  0
 41 48  1  0  0  0
 42 43  1  0  0  0
 42 66  1  0  0  0
 42115  1  0  0  0
 42116  1  0  0  0
 43 44  1  0  0  0
 44117  1  0  0  0
 45 46  2  0  0  0
 45118  1  0  0  0
 46119  1  0  0  0
 47120  1  0  0  0
 47121  1  0  0  0
 48 56  1  0  0  0
 48 65  1  0  0  0
 48122  1  0  0  0
 49 50  1  0  0  0
 49 53  1  0  0  0
 49 64  1  0  0  0
 49123  1  0  0  0
 50 51  1  0  0  0
 50124  1  0  0  0
 50125  1  0  0  0
 51 52  1  0  0  0
 51126  1  0  0  0
 51127  1  0  0  0
 52128  1  0  0  0
 52129  1  0  0  0
 53 54  1  0  0  0
 54 55  2  0  0  0
 54130  1  0  0  0
 55 57  1  0  0  0
 55131  1  0  0  0
 56 69  2  0  0  0
 57 58  2  0  0  0
 57132  1  0  0  0
 58133  1  0  0  0
 59 60  1  0  0  0
 59 61  1  0  0  0
 59 62  1  0  0  0
 60134  1  0  0  0
 60135  1  0  0  0
 60136  1  0  0  0
 61137  1  0  0  0
 61138  1  0  0  0
 61139  1  0  0  0
 62140  1  0  0  0
 62141  1  0  0  0
 62142  1  0  0  0
 63 65  1  0  0  0
 63143  1  0  0  0
 63144  1  0  0  0
 63145  1  0  0  0
 64146  1  0  0  0
 65147  1  0  0  0
 68 83  1  0  0  0
 71 72  2  0  0  0
 71 75  1  0  0  0
 71148  1  0  0  0
 72 73  1  0  0  0
 72 82  1  0  0  0
 73 74  2  0  0  0
 73 83  1  0  0  0
 74 80  1  0  0  0
 74 85  1  0  0  0
 75 85  2  0  0  0
 75 87  1  0  0  0
 76 77  1  0  0  0
 76 78  1  0  0  0
 76149  1  0  0  0
 76150  1  0  0  0
 77 86  1  0  0  0
 77151  1  0  0  0
 77152  1  0  0  0
 78 79  1  0  0  0
 78 88  1  0  0  0
 78153  1  0  0  0
 79 84  1  0  0  0
 79 86  1  0  0  0
 79154  1  0  0  0
 80155  1  0  0  0
 80156  1  0  0  0
 80157  1  0  0  0
 81 84  1  0  0  0
 81158  1  0  0  0
 81159  1  0  0  0
 81160  1  0  0  0
 82 88  1  0  0  0
 82161  1  0  0  0
 82162  1  0  0  0
 83163  1  0  0  0
 83164  1  0  0  0
 84165  1  0  0  0
 84166  1  0  0  0
 86167  1  0  0  0
 87168  1  0  0  0
 88169  1  0  0  0
 88170  1  0  0  0
M  CHG  1  88   1
M  ISO  4   1 100  68 101  83 101  87 100
M  END
> <chiral flag>
0

> <version>
0

> <s_m_source_file>
/data/baiqing/PycharmProjects/Reinvent-master-3.2/result/LINK_invent/BTK/process_docking_weight1_custom_sum_contain_oxygen_bond_distance_aromatic_linkinvent_7_9_3/rearranged_h_0133.sdf

> <i_m_source_file_index>
73

> <r_mmod_Potential_Energy-OPLS-2005>
1964.97302246094

> <r_mmod_Stretch_Energy-OPLS-2005>
951.386901855469

> <r_mmod_Bend_Energy-OPLS-2005>
692.789855957031

> <r_mmod_Torsional_Energy-OPLS-2005>
324.770751953125

> <r_mmod_Improper_Torsional_Energy-OPLS-2005>
7.54348087310791

> <r_mmod_Van_der_Waal_Energy-OPLS-2005>
117.700721740723

> <r_mmod_Electrostatic_Energy-OPLS-2005>
-484.435760498047

> <r_mmod_Solvation_Energy-OPLS-2005>
-521.475280761719

> <b_mmod_Minimization_Converged-OPLS-2005>
0

> <r_mmod_RMS_Derivative-OPLS-2005>
2.04841589927673

$$$$
74
                    3D
 Structure written by MMmdl.
168177  0  0  1  0            999 V2000
  -30.8433  -14.2707   20.7461 C   0  0  0  0  0  0
  -30.4015  -12.2815   19.3728 C   0  0  0  0  0  0
  -29.4640  -12.5301   18.1823 C   0  0  0  0  0  0
  -27.9967  -12.3726   18.6120 C   0  0  0  0  0  0
  -27.6624  -13.2038   19.8765 C   0  0  2  0  0  0
  -28.7025  -12.9662   20.9941 C   0  0  0  0  0  0
  -25.2579  -13.8173   20.5683 C   0  0  0  0  0  0
  -24.1824  -13.0441   20.9170 C   0  0  0  0  0  0
  -24.6379  -11.6911   20.8733 C   0  0  0  0  0  0
  -23.9039  -10.4300   21.0407 C   0  0  0  0  0  0
  -24.3606   -9.4222   21.9185 C   0  0  0  0  0  0
  -23.6291   -8.2247   22.0757 C   0  0  0  0  0  0
  -22.4276   -8.0281   21.3540 C   0  0  0  0  0  0
  -21.9907   -9.0248   20.4642 C   0  0  0  0  0  0
  -22.7218  -10.2130   20.3050 C   0  0  0  0  0  0
  -21.6846   -6.0734   22.5280 C   0  0  0  0  0  0
  -21.4017   -6.5637   23.8218 C   0  0  0  0  0  0
  -21.3659   -5.6790   24.9178 C   0  0  0  0  0  0
  -21.6043   -4.3055   24.7226 C   0  0  0  0  0  0
  -21.8822   -3.8145   23.4352 C   0  0  0  0  0  0
  -21.9197   -4.6965   22.3404 C   0  0  0  0  0  0
  -22.7845  -13.5235   21.1831 C   0  0  0  0  0  0
  -22.1660   -4.2147   21.0981 F   0  0  0  0  0  0
  -21.5631   -3.4539   25.7740 F   0  0  0  0  0  0
  -30.0523  -13.2126   20.4530 N   0  0  0  0  0  0
  -26.3020  -12.9340   20.3394 N   0  0  0  0  0  0
  -25.9297  -11.6497   20.5783 N   0  0  0  0  0  0
  -22.0495  -12.8218   22.0399 N   0  0  0  0  0  0
  -25.4303  -15.1890   20.4086 N   0  0  0  0  0  0
  -31.7670  -14.6566   20.0227 O   0  0  0  0  0  0
  -21.6639   -6.8876   21.4243 O   0  0  0  0  0  0
  -22.3522  -14.5546   20.6696 O   0  0  0  0  0  0
  -24.6089  -31.8714   23.2135 C   0  0  0  0  0  0
  -25.8995  -32.4845   23.8423 C   0  0  1  0  0  0
  -27.2341  -27.4618   20.0950 C   0  0  0  0  0  0
  -25.5865  -33.8642   24.2343 N   0  0  0  0  0  0
  -23.3965  -30.4952   21.5521 C   0  0  2  0  0  0
  -24.8439  -28.9658   20.1127 C   0  0  0  0  0  0
  -22.7391  -29.4664   22.4990 C   0  0  0  0  0  0
  -18.0266  -28.1348   22.8496 C   0  0  0  0  0  0
  -24.1478  -36.7313   23.2644 C   0  0  0  0  0  0
  -25.9240  -30.8425   21.3680 C   0  0  0  0  0  0
  -26.0012  -29.4813   20.7106 C   0  0  0  0  0  0
  -27.1996  -28.7369   20.6952 C   0  0  0  0  0  0
  -26.0609  -26.9523   19.4908 C   0  0  0  0  0  0
  -24.8684  -27.6997   19.5004 C   0  0  0  0  0  0
  -23.6039  -29.8279   20.1666 C   0  0  0  0  0  0
  -25.4109  -36.3136   24.0337 C   0  0  1  0  0  0
  -20.5854  -28.3633   23.1319 C   0  0  2  0  0  0
  -20.6757  -26.9373   22.5416 C   0  0  0  0  0  0
  -19.5743  -26.6359   21.5208 C   0  0  0  0  0  0
  -18.1912  -26.7897   22.1609 C   0  0  0  0  0  0
  -19.1514  -28.8805   23.2906 C   0  0  0  0  0  0
  -18.9448  -30.1397   23.8945 C   0  0  0  0  0  0
  -17.6457  -30.6576   24.0551 C   0  0  0  0  0  0
  -25.9022  -34.9491   23.5139 C   0  0  0  0  0  0
  -16.5349  -29.9073   23.6320 C   0  0  0  0  0  0
  -16.7255  -28.6472   23.0380 C   0  0  0  0  0  0
  -26.4442  -31.6634   25.0752 C   0  0  0  0  0  0
  -25.3715  -31.3736   26.1511 C   0  0  0  0  0  0
  -27.0250  -30.3085   24.6096 C   0  0  0  0  0  0
  -27.6023  -32.4361   25.7513 C   0  0  0  0  0  0
  -27.5577  -37.1821   24.8462 C   0  0  0  0  0  0
  -21.4124  -29.3013   22.3733 N   0  0  0  0  0  0
  -26.4307  -37.3806   23.9384 N   0  0  0  0  0  0
  -24.6613  -31.0828   22.1022 N   0  0  0  0  0  0
  -23.4191  -28.8189   23.3001 O   0  0  0  0  0  0
  -28.4217  -26.7710   20.0926 O   0  0  0  0  0  0
  -26.5590  -34.8937   22.4705 O   0  0  0  0  0  0
  -23.5284  -32.1440   23.7553 O   0  0  0  0  0  0
  -30.3129  -19.4805   22.8851 C   0  0  0  0  0  0
  -29.8890  -20.8062   22.6849 C   0  0  0  0  0  0
  -32.0323  -21.6032   23.5071 C   0  0  0  0  0  0
  -31.6022  -19.1941   23.3866 C   0  0  0  0  0  0
  -32.4671  -20.2739   23.7077 C   0  0  0  0  0  0
  -30.7515  -21.8816   22.9901 C   0  0  0  0  0  0
  -31.1885  -16.9534   24.5791 C   0  0  0  0  0  0
  -31.4456  -15.4826   24.2405 C   0  0  0  0  0  0
  -31.9095  -16.8989   22.2729 C   0  0  0  0  0  0
  -32.0219  -17.7322   23.5570 C   0  0  1  0  0  0
  -31.7520  -15.4366   22.7314 C   0  0  2  0  0  0
  -33.8637  -20.0491   24.2662 C   0  0  0  0  0  0
  -29.3351  -25.0386   21.4792 C   0  0  0  0  0  0
  -29.4304  -23.5299   21.7412 C   0  0  0  0  0  0
  -28.3644  -25.3660   20.3347 C   0  0  0  0  0  0
  -30.3802  -23.2202   22.8033 N   0  0  0  0  0  0
  -30.7090  -14.7184   21.9996 N   0  0  0  0  0  0
  -31.4426  -12.3773   19.0586 H   0  0  0  0  0  0
  -30.2977  -11.2566   19.7343 H   0  0  0  0  0  0
  -29.6912  -11.8376   17.3706 H   0  0  0  0  0  0
  -29.6241  -13.5342   17.7869 H   0  0  0  0  0  0
  -27.8117  -11.3147   18.8014 H   0  0  0  0  0  0
  -27.3326  -12.6538   17.7926 H   0  0  0  0  0  0
  -27.7166  -14.2554   19.5927 H   0  0  0  0  0  0
  -28.6473  -11.9369   21.3538 H   0  0  0  0  0  0
  -28.4608  -13.5972   21.8504 H   0  0  0  0  0  0
  -25.2743   -9.5704   22.4764 H   0  0  0  0  0  0
  -24.0002   -7.4646   22.7477 H   0  0  0  0  0  0
  -21.0841   -8.8755   19.8946 H   0  0  0  0  0  0
  -22.3673  -10.9666   19.6165 H   0  0  0  0  0  0
  -21.2011   -7.6142   23.9720 H   0  0  0  0  0  0
  -21.1474   -6.0517   25.9077 H   0  0  0  0  0  0
  -22.0607   -2.7608   23.2848 H   0  0  0  0  0  0
  -22.4106  -11.9847   22.4730 H   0  0  0  0  0  0
  -21.1122  -13.1248   22.2656 H   0  0  0  0  0  0
  -24.6690  -15.8500   20.5213 H   0  0  0  0  0  0
  -26.2951  -15.6260   20.1128 H   0  0  0  0  0  0
  -26.7068  -32.5574   23.1200 H   0  0  0  0  0  0
  -25.0034  -33.9805   25.0500 H   0  0  0  0  0  0
  -22.6827  -31.3104   21.4135 H   0  0  0  0  0  0
  -23.3765  -35.9623   23.3322 H   0  0  0  0  0  0
  -24.3584  -36.8899   22.2054 H   0  0  0  0  0  0
  -23.7184  -37.6494   23.6663 H   0  0  0  0  0  0
  -26.0386  -31.6161   20.6072 H   0  0  0  0  0  0
  -26.8091  -30.8895   21.9898 H   0  0  0  0  0  0
  -28.0963  -29.1275   21.1569 H   0  0  0  0  0  0
  -26.0659  -25.9891   18.9986 H   0  0  0  0  0  0
  -23.9799  -27.3019   19.0292 H   0  0  0  0  0  0
  -23.7026  -30.6049   19.4060 H   0  0  0  0  0  0
  -22.7294  -29.2430   19.8771 H   0  0  0  0  0  0
  -25.1287  -36.2045   25.0832 H   0  0  0  0  0  0
  -20.9930  -28.3211   24.1443 H   0  0  0  0  0  0
  -20.5646  -26.2254   23.3604 H   0  0  0  0  0  0
  -21.6625  -26.7407   22.1212 H   0  0  0  0  0  0
  -19.6913  -25.6273   21.1219 H   0  0  0  0  0  0
  -19.6704  -27.3189   20.6757 H   0  0  0  0  0  0
  -17.4179  -26.6658   21.4010 H   0  0  0  0  0  0
  -18.0295  -26.0036   22.9000 H   0  0  0  0  0  0
  -19.7931  -30.7150   24.2415 H   0  0  0  0  0  0
  -17.5031  -31.6293   24.5084 H   0  0  0  0  0  0
  -15.5351  -30.2999   23.7621 H   0  0  0  0  0  0
  -15.8649  -28.0786   22.7141 H   0  0  0  0  0  0
  -24.5849  -30.7148   25.7815 H   0  0  0  0  0  0
  -24.8985  -32.2902   26.5047 H   0  0  0  0  0  0
  -25.8064  -30.8812   27.0220 H   0  0  0  0  0  0
  -26.2769  -29.6909   24.1119 H   0  0  0  0  0  0
  -27.3958  -29.7280   25.4546 H   0  0  0  0  0  0
  -27.8651  -30.4390   23.9276 H   0  0  0  0  0  0
  -27.2640  -33.3655   26.2117 H   0  0  0  0  0  0
  -28.3833  -32.6930   25.0343 H   0  0  0  0  0  0
  -28.0707  -31.8481   26.5410 H   0  0  0  0  0  0
  -28.2608  -38.0109   24.7514 H   0  0  0  0  0  0
  -28.1055  -36.2632   24.6313 H   0  0  0  0  0  0
  -27.2294  -37.1494   25.8868 H   0  0  0  0  0  0
  -20.9278  -29.8745   21.6974 H   0  0  0  0  0  0
  -26.0217  -38.2885   24.1416 H   0  0  0  0  0  0
  -29.6319  -18.6769   22.6421 H   0  0  0  0  0  0
  -28.8920  -20.9712   22.2996 H   0  0  0  0  0  0
  -32.7012  -22.4198   23.7457 H   0  0  0  0  0  0
  -31.4530  -17.1986   25.6084 H   0  0  0  0  0  0
  -30.1264  -17.1659   24.4513 H   0  0  0  0  0  0
  -30.6144  -14.8429   24.5406 H   0  0  0  0  0  0
  -32.3211  -15.1319   24.7905 H   0  0  0  0  0  0
  -32.7746  -17.0369   21.6226 H   0  0  0  0  0  0
  -31.0355  -17.1938   21.6926 H   0  0  0  0  0  0
  -33.0613  -17.6664   23.8756 H   0  0  0  0  0  0
  -32.6972  -14.9070   22.5910 H   0  0  0  0  0  0
  -34.3571  -20.9920   24.5065 H   0  0  0  0  0  0
  -34.4882  -19.5262   23.5408 H   0  0  0  0  0  0
  -33.8226  -19.4587   25.1828 H   0  0  0  0  0  0
  -30.3202  -25.4399   21.2413 H   0  0  0  0  0  0
  -29.0023  -25.5476   22.3854 H   0  0  0  0  0  0
  -29.7342  -23.0224   20.8226 H   0  0  0  0  0  0
  -28.4427  -23.1488   22.0074 H   0  0  0  0  0  0
  -27.3697  -25.0117   20.6127 H   0  0  0  0  0  0
  -28.6515  -24.8400   19.4243 H   0  0  0  0  0  0
  -31.0904  -23.9222   23.0018 H   0  0  0  0  0  0
  -29.9405  -14.3377   22.5321 H   0  0  0  0  0  0
  1 25  1  0  0  0
  1 30  2  0  0  0
  1 87  1  0  0  0
  2  3  1  0  0  0
  2 25  1  0  0  0
  2 88  1  0  0  0
  2 89  1  0  0  0
  3  4  1  0  0  0
  3 90  1  0  0  0
  3 91  1  0  0  0
  4  5  1  0  0  0
  4 92  1  0  0  0
  4 93  1  0  0  0
  5  6  1  0  0  0
  5 26  1  0  0  0
  5 94  1  0  0  0
  6 25  1  0  0  0
  6 95  1  0  0  0
  6 96  1  0  0  0
  7  8  2  0  0  0
  7 26  1  0  0  0
  7 29  1  0  0  0
  8  9  1  0  0  0
  8 22  1  0  0  0
  9 10  1  0  0  0
  9 27  2  0  0  0
 10 11  2  0  0  0
 10 15  1  0  0  0
 11 12  1  0  0  0
 11 97  1  0  0  0
 12 13  2  0  0  0
 12 98  1  0  0  0
 13 14  1  0  0  0
 13 31  1  0  0  0
 14 15  2  0  0  0
 14 99  1  0  0  0
 15100  1  0  0  0
 16 17  2  0  0  0
 16 21  1  0  0  0
 16 31  1  0  0  0
 17 18  1  0  0  0
 17101  1  0  0  0
 18 19  2  0  0  0
 18102  1  0  0  0
 19 20  1  0  0  0
 19 24  1  0  0  0
 20 21  2  0  0  0
 20103  1  0  0  0
 21 23  1  0  0  0
 22 28  1  0  0  0
 22 32  2  0  0  0
 26 27  1  0  0  0
 28104  1  0  0  0
 28105  1  0  0  0
 29106  1  0  0  0
 29107  1  0  0  0
 33 34  1  0  0  0
 33 66  1  0  0  0
 33 70  2  0  0  0
 34 36  1  0  0  0
 34 59  1  0  0  0
 34108  1  0  0  0
 35 44  2  0  0  0
 35 45  1  0  0  0
 35 68  1  0  0  0
 36 56  1  0  0  0
 36109  1  0  0  0
 37 39  1  0  0  0
 37 47  1  0  0  0
 37 66  1  0  0  0
 37110  1  0  0  0
 38 43  2  0  0  0
 38 46  1  0  0  0
 38 47  1  0  0  0
 39 64  1  0  0  0
 39 67  2  0  0  0
 40 52  1  0  0  0
 40 53  2  0  0  0
 40 58  1  0  0  0
 41111  1  0  0  0
 41112  1  0  0  0
 41113  1  0  0  0
 41 48  1  0  0  0
 42 43  1  0  0  0
 42 66  1  0  0  0
 42114  1  0  0  0
 42115  1  0  0  0
 43 44  1  0  0  0
 44116  1  0  0  0
 45 46  2  0  0  0
 45117  1  0  0  0
 46118  1  0  0  0
 47119  1  0  0  0
 47120  1  0  0  0
 48 56  1  0  0  0
 48 65  1  0  0  0
 48121  1  0  0  0
 49 50  1  0  0  0
 49 53  1  0  0  0
 49 64  1  0  0  0
 49122  1  0  0  0
 50 51  1  0  0  0
 50123  1  0  0  0
 50124  1  0  0  0
 51 52  1  0  0  0
 51125  1  0  0  0
 51126  1  0  0  0
 52127  1  0  0  0
 52128  1  0  0  0
 53 54  1  0  0  0
 54 55  2  0  0  0
 54129  1  0  0  0
 55 57  1  0  0  0
 55130  1  0  0  0
 56 69  2  0  0  0
 57 58  2  0  0  0
 57131  1  0  0  0
 58132  1  0  0  0
 59 60  1  0  0  0
 59 61  1  0  0  0
 59 62  1  0  0  0
 60133  1  0  0  0
 60134  1  0  0  0
 60135  1  0  0  0
 61136  1  0  0  0
 61137  1  0  0  0
 61138  1  0  0  0
 62139  1  0  0  0
 62140  1  0  0  0
 62141  1  0  0  0
 63 65  1  0  0  0
 63142  1  0  0  0
 63143  1  0  0  0
 63144  1  0  0  0
 64145  1  0  0  0
 65146  1  0  0  0
 68 85  1  0  0  0
 71 72  2  0  0  0
 71 74  1  0  0  0
 71147  1  0  0  0
 72 76  1  0  0  0
 72148  1  0  0  0
 73 75  1  0  0  0
 73 76  2  0  0  0
 73149  1  0  0  0
 74 75  2  0  0  0
 74 80  1  0  0  0
 75 82  1  0  0  0
 76 86  1  0  0  0
 77 78  1  0  0  0
 77 80  1  0  0  0
 77150  1  0  0  0
 77151  1  0  0  0
 78 81  1  0  0  0
 78152  1  0  0  0
 78153  1  0  0  0
 79 80  1  0  0  0
 79 81  1  0  0  0
 79154  1  0  0  0
 79155  1  0  0  0
 80156  1  0  0  0
 81 87  1  0  0  0
 81157  1  0  0  0
 82158  1  0  0  0
 82159  1  0  0  0
 82160  1  0  0  0
 83 84  1  0  0  0
 83 85  1  0  0  0
 83161  1  0  0  0
 83162  1  0  0  0
 84 86  1  0  0  0
 84163  1  0  0  0
 84164  1  0  0  0
 85165  1  0  0  0
 85166  1  0  0  0
 86167  1  0  0  0
 87168  1  0  0  0
M  ISO  4   1 100  68 101  85 101  87 100
M  END
> <chiral flag>
0

> <version>
0

> <s_m_source_file>
/data/baiqing/PycharmProjects/Reinvent-master-3.2/result/LINK_invent/BTK/process_docking_weight1_custom_sum_contain_oxygen_bond_distance_aromatic_linkinvent_7_9_3/rearranged_h_0133.sdf

> <i_m_source_file_index>
74

> <r_mmod_Potential_Energy-OPLS-2005>
-26.8962936401367

> <r_mmod_Stretch_Energy-OPLS-2005>
32.114143371582

> <r_mmod_Bend_Energy-OPLS-2005>
113.714729309082

> <r_mmod_Torsional_Energy-OPLS-2005>
244.760925292969

> <r_mmod_Improper_Torsional_Energy-OPLS-2005>
7.92920017242432

> <r_mmod_Van_der_Waal_Energy-OPLS-2005>
159.551208496094

> <r_mmod_Electrostatic_Energy-OPLS-2005>
-379.267974853516

> <r_mmod_Solvation_Energy-OPLS-2005>
-215.150115966797

> <b_mmod_Minimization_Converged-OPLS-2005>
0

> <r_mmod_RMS_Derivative-OPLS-2005>
2.45228481292725

$$$$
75
                    3D
 Structure written by MMmdl.
162171  0  0  1  0            999 V2000
  -30.7147  -14.4955   20.5220 C   0  0  0  0  0  0
  -30.4222  -12.3137   19.4259 C   0  0  0  0  0  0
  -29.4972  -12.4868   18.2036 C   0  0  0  0  0  0
  -28.0229  -12.3305   18.6257 C   0  0  0  0  0  0
  -27.6564  -13.2034   19.8547 C   0  0  2  0  0  0
  -28.7021  -13.0426   20.9834 C   0  0  0  0  0  0
  -25.2531  -13.8083   20.5563 C   0  0  0  0  0  0
  -24.1824  -13.0375   20.9157 C   0  0  0  0  0  0
  -24.6387  -11.6859   20.8718 C   0  0  0  0  0  0
  -23.9032  -10.4256   21.0375 C   0  0  0  0  0  0
  -24.3579   -9.4186   21.9163 C   0  0  0  0  0  0
  -23.6259   -8.2219   22.0731 C   0  0  0  0  0  0
  -22.4237   -8.0249   21.3540 C   0  0  0  0  0  0
  -21.9870   -9.0212   20.4641 C   0  0  0  0  0  0
  -22.7198  -10.2102   20.3033 C   0  0  0  0  0  0
  -21.6858   -6.0699   22.5263 C   0  0  0  0  0  0
  -21.4013   -6.5606   23.8200 C   0  0  0  0  0  0
  -21.3654   -5.6751   24.9147 C   0  0  0  0  0  0
  -21.6037   -4.3015   24.7218 C   0  0  0  0  0  0
  -21.8837   -3.8123   23.4336 C   0  0  0  0  0  0
  -21.9212   -4.6924   22.3389 C   0  0  0  0  0  0
  -22.7863  -13.5201   21.1821 C   0  0  0  0  0  0
  -22.1678   -4.2119   21.0974 F   0  0  0  0  0  0
  -21.5621   -3.4510   25.7733 F   0  0  0  0  0  0
  -30.0289  -13.3252   20.4189 N   0  0  0  0  0  0
  -26.2997  -12.9297   20.3239 N   0  0  0  0  0  0
  -25.9317  -11.6457   20.5715 N   0  0  0  0  0  0
  -22.0508  -12.8221   22.0393 N   0  0  0  0  0  0
  -25.4065  -15.1775   20.3809 N   0  0  0  0  0  0
  -31.8971  -14.6057   20.1992 O   0  0  0  0  0  0
  -21.6623   -6.8828   21.4228 O   0  0  0  0  0  0
  -22.3547  -14.5507   20.6659 O   0  0  0  0  0  0
  -24.6211  -31.8674   23.2108 C   0  0  0  0  0  0
  -25.9115  -32.4809   23.8402 C   0  0  1  0  0  0
  -27.2079  -27.3868   20.1018 C   0  0  0  0  0  0
  -25.5964  -33.8618   24.2327 N   0  0  0  0  0  0
  -23.4076  -30.4958   21.5530 C   0  0  2  0  0  0
  -24.8437  -28.9567   20.1185 C   0  0  0  0  0  0
  -22.7432  -29.4661   22.4964 C   0  0  0  0  0  0
  -18.0290  -28.1412   22.8462 C   0  0  0  0  0  0
  -24.1475  -36.7283   23.2625 C   0  0  0  0  0  0
  -25.9425  -30.8179   21.3708 C   0  0  0  0  0  0
  -26.0134  -29.4527   20.7087 C   0  0  0  0  0  0
  -27.1996  -28.6773   20.6915 C   0  0  0  0  0  0
  -26.0134  -26.9172   19.5078 C   0  0  0  0  0  0
  -24.8376  -27.6873   19.5225 C   0  0  0  0  0  0
  -23.6194  -29.8418   20.1634 C   0  0  0  0  0  0
  -25.4098  -36.3089   24.0335 C   0  0  1  0  0  0
  -20.5874  -28.3701   23.1305 C   0  0  2  0  0  0
  -20.6794  -26.9435   22.5429 C   0  0  0  0  0  0
  -19.5788  -26.6398   21.5216 C   0  0  0  0  0  0
  -18.1945  -26.7961   22.1587 C   0  0  0  0  0  0
  -19.1541  -28.8877   23.2876 C   0  0  0  0  0  0
  -18.9458  -30.1480   23.8892 C   0  0  0  0  0  0
  -17.6468  -30.6592   24.0600 C   0  0  0  0  0  0
  -25.9041  -34.9467   23.5110 C   0  0  0  0  0  0
  -16.5360  -29.9104   23.6347 C   0  0  0  0  0  0
  -16.7286  -28.6545   23.0309 C   0  0  0  0  0  0
  -26.4527  -31.6617   25.0762 C   0  0  0  0  0  0
  -25.3775  -31.3801   26.1506 C   0  0  0  0  0  0
  -27.0381  -30.3041   24.6218 C   0  0  0  0  0  0
  -27.6063  -32.4370   25.7551 C   0  0  0  0  0  0
  -27.5581  -37.1791   24.8462 C   0  0  0  0  0  0
  -21.4153  -29.3060   22.3701 N   0  0  0  0  0  0
  -26.4279  -37.3778   23.9422 N   0  0  0  0  0  0
  -24.6763  -31.0745   22.1028 N   0  0  0  0  0  0
  -23.4190  -28.8182   23.2994 O   0  0  0  0  0  0
  -28.3562  -26.6085   20.1367 O   0  0  0  0  0  0
  -26.5570  -34.8934   22.4653 O   0  0  0  0  0  0
  -23.5404  -32.1460   23.7474 O   0  0  0  0  0  0
  -30.3866  -20.8526   18.3789 C   0  0  0  0  0  0
  -29.9987  -22.0189   19.0658 C   0  0  0  0  0  0
  -29.1971  -20.6386   20.9053 C   0  0  0  0  0  0
  -30.1731  -19.5789   18.9455 C   0  0  0  0  0  0
  -29.5626  -19.4550   20.2075 C   0  0  0  0  0  0
  -29.4043  -21.9308   20.3468 C   0  0  0  0  0  0
  -30.5514  -18.3301   18.1773 C   0  0  0  0  0  0
  -29.2501  -18.0485   20.7516 C   0  0  2  0  0  0
  -30.3897  -17.0043   20.4766 C   0  0  2  0  0  0
  -31.0528  -17.1703   19.0639 C   0  0  2  0  0  0
  -27.8868  -17.5816   20.2116 C   0  0  0  0  0  0
  -28.1911  -25.1707   20.0350 C   0  0  0  0  0  0
  -29.3520  -24.3788   20.6916 C   0  0  0  0  0  0
  -29.9636  -15.5994   20.7209 N   0  0  0  0  0  0
  -32.4499  -17.3081   19.2592 O   0  0  0  0  0  0
  -28.9930  -23.0342   21.0813 O   0  0  0  0  0  0
  -31.4647  -12.4109   19.1188 H   0  0  0  0  0  0
  -30.3207  -11.3104   19.8436 H   0  0  0  0  0  0
  -29.7453  -11.7514   17.4356 H   0  0  0  0  0  0
  -29.6491  -13.4685   17.7512 H   0  0  0  0  0  0
  -27.8595  -11.2783   18.8605 H   0  0  0  0  0  0
  -27.3659  -12.5560   17.7853 H   0  0  0  0  0  0
  -27.6878  -14.2373   19.5128 H   0  0  0  0  0  0
  -28.6841  -12.0267   21.3824 H   0  0  0  0  0  0
  -28.4719  -13.7017   21.8217 H   0  0  0  0  0  0
  -25.2720   -9.5692   22.4730 H   0  0  0  0  0  0
  -23.9983   -7.4613   22.7442 H   0  0  0  0  0  0
  -21.0805   -8.8716   19.8949 H   0  0  0  0  0  0
  -22.3626  -10.9614   19.6123 H   0  0  0  0  0  0
  -21.1989   -7.6106   23.9682 H   0  0  0  0  0  0
  -21.1447   -6.0477   25.9046 H   0  0  0  0  0  0
  -22.0627   -2.7586   23.2851 H   0  0  0  0  0  0
  -22.4144  -11.9911   22.4826 H   0  0  0  0  0  0
  -21.1117  -13.1252   22.2542 H   0  0  0  0  0  0
  -24.6134  -15.8054   20.4629 H   0  0  0  0  0  0
  -26.2033  -15.6093   19.9351 H   0  0  0  0  0  0
  -26.7163  -32.5489   23.1133 H   0  0  0  0  0  0
  -25.0255  -33.9799   25.0568 H   0  0  0  0  0  0
  -22.6976  -31.3144   21.4181 H   0  0  0  0  0  0
  -23.3748  -35.9599   23.3285 H   0  0  0  0  0  0
  -24.3544  -36.8908   22.2034 H   0  0  0  0  0  0
  -23.7228  -37.6491   23.6636 H   0  0  0  0  0  0
  -26.0699  -31.5877   20.6081 H   0  0  0  0  0  0
  -26.8230  -30.8573   22.0010 H   0  0  0  0  0  0
  -28.1028  -29.0491   21.1551 H   0  0  0  0  0  0
  -25.9550  -25.9439   19.0435 H   0  0  0  0  0  0
  -23.9269  -27.2935   19.0905 H   0  0  0  0  0  0
  -23.7611  -30.6276   19.4202 H   0  0  0  0  0  0
  -22.7349  -29.2883   19.8441 H   0  0  0  0  0  0
  -25.1257  -36.1926   25.0824 H   0  0  0  0  0  0
  -20.9967  -28.3304   24.1429 H   0  0  0  0  0  0
  -20.5715  -26.2317   23.3625 H   0  0  0  0  0  0
  -21.6675  -26.7499   22.1234 H   0  0  0  0  0  0
  -19.6961  -25.6298   21.1283 H   0  0  0  0  0  0
  -19.6767  -27.3186   20.6727 H   0  0  0  0  0  0
  -17.4243  -26.6741   21.3956 H   0  0  0  0  0  0
  -18.0314  -26.0103   22.8975 H   0  0  0  0  0  0
  -19.7937  -30.7305   24.2242 H   0  0  0  0  0  0
  -17.5024  -31.6260   24.5237 H   0  0  0  0  0  0
  -15.5365  -30.2998   23.7685 H   0  0  0  0  0  0
  -15.8682  -28.0892   22.6960 H   0  0  0  0  0  0
  -24.5918  -30.7167   25.7886 H   0  0  0  0  0  0
  -24.9018  -32.3007   26.4894 H   0  0  0  0  0  0
  -25.8120  -30.9036   27.0299 H   0  0  0  0  0  0
  -26.2984  -29.6781   24.1226 H   0  0  0  0  0  0
  -27.4063  -29.7310   25.4735 H   0  0  0  0  0  0
  -27.8844  -30.4312   23.9465 H   0  0  0  0  0  0
  -27.2608  -33.3610   26.2190 H   0  0  0  0  0  0
  -28.3857  -32.7039   25.0408 H   0  0  0  0  0  0
  -28.0761  -31.8497   26.5444 H   0  0  0  0  0  0
  -28.2584  -38.0098   24.7497 H   0  0  0  0  0  0
  -28.1081  -36.2628   24.6249 H   0  0  0  0  0  0
  -27.2319  -37.1433   25.8874 H   0  0  0  0  0  0
  -20.9299  -29.8823   21.6963 H   0  0  0  0  0  0
  -26.0158  -38.2849   24.1433 H   0  0  0  0  0  0
  -30.8318  -20.9426   17.3976 H   0  0  0  0  0  0
  -30.1619  -22.9673   18.5743 H   0  0  0  0  0  0
  -28.7379  -20.5525   21.8803 H   0  0  0  0  0  0
  -31.2793  -18.5619   17.3979 H   0  0  0  0  0  0
  -29.6525  -18.0068   17.6497 H   0  0  0  0  0  0
  -29.1447  -18.1339   21.8340 H   0  0  0  0  0  0
  -31.1442  -17.2219   21.2359 H   0  0  0  0  0  0
  -30.9217  -16.2737   18.4559 H   0  0  0  0  0  0
  -27.9104  -17.4109   19.1351 H   0  0  0  0  0  0
  -27.1081  -18.3199   20.4048 H   0  0  0  0  0  0
  -27.5754  -16.6606   20.6964 H   0  0  0  0  0  0
  -27.2788  -24.8721   20.5545 H   0  0  0  0  0  0
  -28.0720  -24.8737   18.9908 H   0  0  0  0  0  0
  -29.5865  -24.8838   21.6296 H   0  0  0  0  0  0
  -30.2731  -24.4519   20.1138 H   0  0  0  0  0  0
  -28.9915  -15.4472   20.9326 H   0  0  0  0  0  0
  -32.7226  -16.5069   19.7058 H   0  0  0  0  0  0
  1 25  1  0  0  0
  1 30  2  0  0  0
  1 84  1  0  0  0
  2  3  1  0  0  0
  2 25  1  0  0  0
  2 87  1  0  0  0
  2 88  1  0  0  0
  3  4  1  0  0  0
  3 89  1  0  0  0
  3 90  1  0  0  0
  4  5  1  0  0  0
  4 91  1  0  0  0
  4 92  1  0  0  0
  5  6  1  0  0  0
  5 26  1  0  0  0
  5 93  1  0  0  0
  6 25  1  0  0  0
  6 94  1  0  0  0
  6 95  1  0  0  0
  7  8  2  0  0  0
  7 26  1  0  0  0
  7 29  1  0  0  0
  8  9  1  0  0  0
  8 22  1  0  0  0
  9 10  1  0  0  0
  9 27  2  0  0  0
 10 11  2  0  0  0
 10 15  1  0  0  0
 11 12  1  0  0  0
 11 96  1  0  0  0
 12 13  2  0  0  0
 12 97  1  0  0  0
 13 14  1  0  0  0
 13 31  1  0  0  0
 14 15  2  0  0  0
 14 98  1  0  0  0
 15 99  1  0  0  0
 16 17  2  0  0  0
 16 21  1  0  0  0
 16 31  1  0  0  0
 17 18  1  0  0  0
 17100  1  0  0  0
 18 19  2  0  0  0
 18101  1  0  0  0
 19 20  1  0  0  0
 19 24  1  0  0  0
 20 21  2  0  0  0
 20102  1  0  0  0
 21 23  1  0  0  0
 22 28  1  0  0  0
 22 32  2  0  0  0
 26 27  1  0  0  0
 28103  1  0  0  0
 28104  1  0  0  0
 29105  1  0  0  0
 29106  1  0  0  0
 33 34  1  0  0  0
 33 66  1  0  0  0
 33 70  2  0  0  0
 34 36  1  0  0  0
 34 59  1  0  0  0
 34107  1  0  0  0
 35 44  2  0  0  0
 35 45  1  0  0  0
 35 68  1  0  0  0
 36 56  1  0  0  0
 36108  1  0  0  0
 37 39  1  0  0  0
 37 47  1  0  0  0
 37 66  1  0  0  0
 37109  1  0  0  0
 38 43  2  0  0  0
 38 46  1  0  0  0
 38 47  1  0  0  0
 39 64  1  0  0  0
 39 67  2  0  0  0
 40 52  1  0  0  0
 40 53  2  0  0  0
 40 58  1  0  0  0
 41110  1  0  0  0
 41111  1  0  0  0
 41112  1  0  0  0
 41 48  1  0  0  0
 42 43  1  0  0  0
 42 66  1  0  0  0
 42113  1  0  0  0
 42114  1  0  0  0
 43 44  1  0  0  0
 44115  1  0  0  0
 45 46  2  0  0  0
 45116  1  0  0  0
 46117  1  0  0  0
 47118  1  0  0  0
 47119  1  0  0  0
 48 56  1  0  0  0
 48 65  1  0  0  0
 48120  1  0  0  0
 49 50  1  0  0  0
 49 53  1  0  0  0
 49 64  1  0  0  0
 49121  1  0  0  0
 50 51  1  0  0  0
 50122  1  0  0  0
 50123  1  0  0  0
 51 52  1  0  0  0
 51124  1  0  0  0
 51125  1  0  0  0
 52126  1  0  0  0
 52127  1  0  0  0
 53 54  1  0  0  0
 54 55  2  0  0  0
 54128  1  0  0  0
 55 57  1  0  0  0
 55129  1  0  0  0
 56 69  2  0  0  0
 57 58  2  0  0  0
 57130  1  0  0  0
 58131  1  0  0  0
 59 60  1  0  0  0
 59 61  1  0  0  0
 59 62  1  0  0  0
 60132  1  0  0  0
 60133  1  0  0  0
 60134  1  0  0  0
 61135  1  0  0  0
 61136  1  0  0  0
 61137  1  0  0  0
 62138  1  0  0  0
 62139  1  0  0  0
 62140  1  0  0  0
 63 65  1  0  0  0
 63141  1  0  0  0
 63142  1  0  0  0
 63143  1  0  0  0
 64144  1  0  0  0
 65145  1  0  0  0
 68 82  1  0  0  0
 71 72  2  0  0  0
 71 74  1  0  0  0
 71146  1  0  0  0
 72 76  1  0  0  0
 72147  1  0  0  0
 73 75  1  0  0  0
 73 76  2  0  0  0
 73148  1  0  0  0
 74 75  2  0  0  0
 74 77  1  0  0  0
 75 78  1  0  0  0
 76 86  1  0  0  0
 77 80  1  0  0  0
 77149  1  0  0  0
 77150  1  0  0  0
 78 79  1  0  0  0
 78 81  1  0  0  0
 78151  1  0  0  0
 79 80  1  0  0  0
 79 84  1  0  0  0
 79152  1  0  0  0
 80 85  1  0  0  0
 80153  1  0  0  0
 81154  1  0  0  0
 81155  1  0  0  0
 81156  1  0  0  0
 82 83  1  0  0  0
 82157  1  0  0  0
 82158  1  0  0  0
 83 86  1  0  0  0
 83159  1  0  0  0
 83160  1  0  0  0
 84161  1  0  0  0
 85162  1  0  0  0
M  ISO  4   1 100  68 101  82 101  84 100
M  END
> <chiral flag>
0

> <version>
0

> <s_m_source_file>
/data/baiqing/PycharmProjects/Reinvent-master-3.2/result/LINK_invent/BTK/process_docking_weight1_custom_sum_contain_oxygen_bond_distance_aromatic_linkinvent_7_9_3/rearranged_h_0133.sdf

> <i_m_source_file_index>
75

> <r_mmod_Potential_Energy-OPLS-2005>
-108.805213928223

> <r_mmod_Stretch_Energy-OPLS-2005>
47.2984771728516

> <r_mmod_Bend_Energy-OPLS-2005>
114.61092376709

> <r_mmod_Torsional_Energy-OPLS-2005>
219.652633666992

> <r_mmod_Improper_Torsional_Energy-OPLS-2005>
7.64367628097534

> <r_mmod_Van_der_Waal_Energy-OPLS-2005>
166.014694213867

> <r_mmod_Electrostatic_Energy-OPLS-2005>
-472.693511962891

> <r_mmod_Solvation_Energy-OPLS-2005>
-217.22053527832

> <b_mmod_Minimization_Converged-OPLS-2005>
0

> <r_mmod_RMS_Derivative-OPLS-2005>
4.10433578491211

$$$$
76
                    3D
 Structure written by MMmdl.
171180  0  0  1  0            999 V2000
  -30.5203  -14.9827   20.4323 C   0  0  0  0  0  0
  -30.4356  -12.6102   19.5031 C   0  0  0  0  0  0
  -29.5202  -12.5378   18.2589 C   0  0  0  0  0  0
  -28.0550  -12.3096   18.6759 C   0  0  0  0  0  0
  -27.6235  -13.2489   19.8315 C   0  0  2  0  0  0
  -28.6643  -13.2907   20.9690 C   0  0  0  0  0  0
  -25.2452  -13.8214   20.5691 C   0  0  0  0  0  0
  -24.1751  -13.0431   20.9213 C   0  0  0  0  0  0
  -24.6371  -11.6927   20.8751 C   0  0  0  0  0  0
  -23.9056  -10.4294   21.0414 C   0  0  0  0  0  0
  -24.3615   -9.4215   21.9189 C   0  0  0  0  0  0
  -23.6292   -8.2244   22.0757 C   0  0  0  0  0  0
  -22.4277   -8.0274   21.3545 C   0  0  0  0  0  0
  -21.9913   -9.0237   20.4642 C   0  0  0  0  0  0
  -22.7235  -10.2120   20.3059 C   0  0  0  0  0  0
  -21.6846   -6.0738   22.5277 C   0  0  0  0  0  0
  -21.4006   -6.5642   23.8209 C   0  0  0  0  0  0
  -21.3664   -5.6799   24.9175 C   0  0  0  0  0  0
  -21.6046   -4.3058   24.7228 C   0  0  0  0  0  0
  -21.8821   -3.8150   23.4346 C   0  0  0  0  0  0
  -21.9185   -4.6964   22.3405 C   0  0  0  0  0  0
  -22.7786  -13.5214   21.1884 C   0  0  0  0  0  0
  -22.1655   -4.2162   21.0981 F   0  0  0  0  0  0
  -21.5633   -3.4546   25.7733 F   0  0  0  0  0  0
  -29.9346  -13.7160   20.3681 N   0  0  0  0  0  0
  -26.2844  -12.9441   20.3213 N   0  0  0  0  0  0
  -25.9300  -11.6571   20.5725 N   0  0  0  0  0  0
  -22.0456  -12.8182   22.0449 N   0  0  0  0  0  0
  -25.4169  -15.1944   20.4117 N   0  0  0  0  0  0
  -31.7331  -15.0497   20.2063 O   0  0  0  0  0  0
  -21.6631   -6.8876   21.4239 O   0  0  0  0  0  0
  -22.3465  -14.5528   20.6751 O   0  0  0  0  0  0
  -24.6477  -31.8397   23.1765 C   0  0  0  0  0  0
  -25.9218  -32.4667   23.8218 C   0  0  1  0  0  0
  -27.2346  -27.1074   20.1574 C   0  0  0  0  0  0
  -25.5946  -33.8486   24.2119 N   0  0  0  0  0  0
  -23.4548  -30.4529   21.5233 C   0  0  2  0  0  0
  -24.9064  -28.8670   20.1063 C   0  0  0  0  0  0
  -22.7601  -29.4502   22.4790 C   0  0  0  0  0  0
  -18.0314  -28.1442   22.8441 C   0  0  0  0  0  0
  -24.1464  -36.7215   23.2654 C   0  0  0  0  0  0
  -26.0113  -30.7030   21.3804 C   0  0  0  0  0  0
  -26.0813  -29.3109   20.7241 C   0  0  0  0  0  0
  -27.2389  -28.4440   20.7363 C   0  0  0  0  0  0
  -26.0321  -26.7651   19.5029 C   0  0  0  0  0  0
  -24.8941  -27.6062   19.4857 C   0  0  0  0  0  0
  -23.6833  -29.7717   20.1455 C   0  0  0  0  0  0
  -25.4114  -36.3000   24.0298 C   0  0  1  0  0  0
  -20.5936  -28.3750   23.1195 C   0  0  2  0  0  0
  -20.6784  -26.9443   22.5398 C   0  0  0  0  0  0
  -19.5768  -26.6397   21.5207 C   0  0  0  0  0  0
  -18.1934  -26.7972   22.1602 C   0  0  0  0  0  0
  -19.1588  -28.8916   23.2801 C   0  0  0  0  0  0
  -18.9520  -30.1505   23.8828 C   0  0  0  0  0  0
  -17.6521  -30.6621   24.0573 C   0  0  0  0  0  0
  -25.9086  -34.9395   23.5015 C   0  0  0  0  0  0
  -16.5398  -29.9126   23.6374 C   0  0  0  0  0  0
  -16.7304  -28.6555   23.0340 C   0  0  0  0  0  0
  -26.4521  -31.6588   25.0695 C   0  0  0  0  0  0
  -25.3655  -31.3816   26.1350 C   0  0  0  0  0  0
  -27.0438  -30.2988   24.6324 C   0  0  0  0  0  0
  -27.6035  -32.4398   25.7479 C   0  0  0  0  0  0
  -27.5545  -37.1756   24.8483 C   0  0  0  0  0  0
  -21.4286  -29.3032   22.3534 N   0  0  0  0  0  0
  -26.4261  -37.3730   23.9420 N   0  0  0  0  0  0
  -24.7244  -31.0203   22.0816 N   0  0  0  0  0  0
  -23.4210  -28.8065   23.2989 O   0  0  0  0  0  0
  -28.3014  -26.1366   20.2959 O   0  0  0  0  0  0
  -26.5704  -34.8904   22.4619 O   0  0  0  0  0  0
  -23.5579  -32.1305   23.6936 O   0  0  0  0  0  0
  -27.7292  -21.8645   22.3438 C   0  0  0  0  0  0
  -28.2292  -20.6508   21.8135 C   0  0  0  0  0  0
  -27.8263  -23.1034   21.6674 C   0  0  0  0  0  0
  -28.9097  -20.5768   20.5793 C   0  0  0  0  0  0
  -28.4794  -23.2202   20.4261 C   0  0  0  0  0  0
  -29.0550  -21.9227   19.9240 C   0  0  0  0  0  0
  -33.6536  -21.6718   22.6560 C   0  0  0  0  0  0
  -32.6049  -20.9917   21.7762 C   0  0  0  0  0  0
  -34.1757  -22.8226   21.7846 C   0  0  0  0  0  0
  -33.1774  -21.1746   20.3639 C   0  0  1  0  0  0
  -29.2320  -19.0304   20.0164 C   0  0  0  0  0  0
  -29.9584  -22.0143   18.7072 C   0  0  0  0  0  0
  -28.4185  -24.7047   19.6679 C   0  0  0  0  0  0
  -32.1482  -21.1178   19.2176 C   0  0  0  0  0  0
  -29.9720  -17.7210   20.8149 C   0  0  0  0  0  0
  -29.7186  -16.1615   20.5605 N   0  0  0  0  0  0
  -31.3088  -22.3199   19.1747 N   0  0  0  0  0  0
  -33.9330  -22.4367   20.3777 N   0  3  0  0  0  0
  -31.4710  -12.7705   19.1999 H   0  0  0  0  0  0
  -30.4235  -11.6628   20.0449 H   0  0  0  0  0  0
  -29.8490  -11.7473   17.5832 H   0  0  0  0  0  0
  -29.5939  -13.4706   17.6993 H   0  0  0  0  0  0
  -27.9569  -11.2699   18.9900 H   0  0  0  0  0  0
  -27.3906  -12.4273   17.8196 H   0  0  0  0  0  0
  -27.5812  -14.2440   19.3884 H   0  0  0  0  0  0
  -28.7590  -12.3181   21.4534 H   0  0  0  0  0  0
  -28.3556  -13.9956   21.7410 H   0  0  0  0  0  0
  -25.2770   -9.5680   22.4756 H   0  0  0  0  0  0
  -23.9999   -7.4638   22.7481 H   0  0  0  0  0  0
  -21.0854   -8.8748   19.8946 H   0  0  0  0  0  0
  -22.3704  -10.9645   19.6157 H   0  0  0  0  0  0
  -21.1998   -7.6150   23.9715 H   0  0  0  0  0  0
  -21.1487   -6.0531   25.9079 H   0  0  0  0  0  0
  -22.0599   -2.7612   23.2842 H   0  0  0  0  0  0
  -22.4061  -11.9796   22.4753 H   0  0  0  0  0  0
  -21.1090  -13.1206   22.2733 H   0  0  0  0  0  0
  -24.6500  -15.8524   20.5033 H   0  0  0  0  0  0
  -26.2678  -15.6256   20.0748 H   0  0  0  0  0  0
  -26.7295  -32.5261   23.0947 H   0  0  0  0  0  0
  -25.0083  -33.9619   25.0259 H   0  0  0  0  0  0
  -22.7600  -31.2782   21.3574 H   0  0  0  0  0  0
  -23.3736  -35.9536   23.3336 H   0  0  0  0  0  0
  -24.3535  -36.8865   22.2067 H   0  0  0  0  0  0
  -23.7202  -37.6398   23.6712 H   0  0  0  0  0  0
  -26.1777  -31.4558   20.6065 H   0  0  0  0  0  0
  -26.8777  -30.7515   22.0282 H   0  0  0  0  0  0
  -28.1298  -28.7736   21.2523 H   0  0  0  0  0  0
  -25.9284  -25.7921   19.0467 H   0  0  0  0  0  0
  -23.9908  -27.2481   19.0138 H   0  0  0  0  0  0
  -23.8264  -30.5432   19.3888 H   0  0  0  0  0  0
  -22.7968  -29.2158   19.8321 H   0  0  0  0  0  0
  -25.1299  -36.1803   25.0789 H   0  0  0  0  0  0
  -21.0035  -28.3365   24.1321 H   0  0  0  0  0  0
  -20.5692  -26.2362   23.3618 H   0  0  0  0  0  0
  -21.6645  -26.7444   22.1188 H   0  0  0  0  0  0
  -19.6940  -25.6302   21.1271 H   0  0  0  0  0  0
  -19.6735  -27.3169   20.6709 H   0  0  0  0  0  0
  -17.4210  -26.6723   21.3994 H   0  0  0  0  0  0
  -18.0310  -26.0146   22.9029 H   0  0  0  0  0  0
  -19.8005  -30.7331   24.2136 H   0  0  0  0  0  0
  -17.5094  -31.6287   24.5204 H   0  0  0  0  0  0
  -15.5397  -30.3016   23.7747 H   0  0  0  0  0  0
  -15.8686  -28.0885   22.7061 H   0  0  0  0  0  0
  -24.5852  -30.7159   25.7646 H   0  0  0  0  0  0
  -24.8800  -32.3009   26.4654 H   0  0  0  0  0  0
  -25.7871  -30.9072   27.0211 H   0  0  0  0  0  0
  -26.3085  -29.6647   24.1357 H   0  0  0  0  0  0
  -27.4105  -29.7374   25.4921 H   0  0  0  0  0  0
  -27.8937  -30.4258   23.9622 H   0  0  0  0  0  0
  -27.2638  -33.3773   26.1901 H   0  0  0  0  0  0
  -28.3896  -32.6880   25.0335 H   0  0  0  0  0  0
  -28.0625  -31.8638   26.5522 H   0  0  0  0  0  0
  -28.2570  -38.0044   24.7525 H   0  0  0  0  0  0
  -28.1035  -36.2578   24.6316 H   0  0  0  0  0  0
  -27.2277  -37.1411   25.8894 H   0  0  0  0  0  0
  -20.9501  -29.8741   21.6696 H   0  0  0  0  0  0
  -26.0111  -38.2783   24.1490 H   0  0  0  0  0  0
  -27.2073  -21.8366   23.2909 H   0  0  0  0  0  0
  -28.0397  -19.7406   22.3656 H   0  0  0  0  0  0
  -27.3681  -23.9804   22.1044 H   0  0  0  0  0  0
  -34.4700  -20.9788   22.8724 H   0  0  0  0  0  0
  -33.2506  -22.0114   23.6106 H   0  0  0  0  0  0
  -31.6402  -21.4897   21.8833 H   0  0  0  0  0  0
  -32.4607  -19.9411   22.0323 H   0  0  0  0  0  0
  -35.2355  -23.0120   21.9615 H   0  0  0  0  0  0
  -33.6319  -23.7423   22.0007 H   0  0  0  0  0  0
  -33.9050  -20.3758   20.2100 H   0  0  0  0  0  0
  -29.7304  -19.1254   19.0537 H   0  0  0  0  0  0
  -28.2453  -18.6589   19.7415 H   0  0  0  0  0  0
  -29.6084  -22.8293   18.0713 H   0  0  0  0  0  0
  -29.9142  -21.1224   18.0785 H   0  0  0  0  0  0
  -27.7068  -24.6108   18.8507 H   0  0  0  0  0  0
  -29.3790  -24.7698   19.1586 H   0  0  0  0  0  0
  -31.5600  -20.2165   19.3711 H   0  0  0  0  0  0
  -32.6477  -20.9989   18.2537 H   0  0  0  0  0  0
  -29.7197  -17.8501   21.8673 H   0  0  0  0  0  0
  -31.0504  -17.8855   20.7814 H   0  0  0  0  0  0
  -28.7433  -15.9195   20.6450 H   0  0  0  0  0  0
  -31.1470  -22.6256   20.1296 H   0  0  0  0  0  0
  -34.7985  -22.3332   19.8729 H   0  0  0  0  0  0
  -33.3712  -23.1323   19.9105 H   0  0  0  0  0  0
  1 25  1  0  0  0
  1 30  2  0  0  0
  1 86  1  0  0  0
  2  3  1  0  0  0
  2 25  1  0  0  0
  2 89  1  0  0  0
  2 90  1  0  0  0
  3  4  1  0  0  0
  3 91  1  0  0  0
  3 92  1  0  0  0
  4  5  1  0  0  0
  4 93  1  0  0  0
  4 94  1  0  0  0
  5  6  1  0  0  0
  5 26  1  0  0  0
  5 95  1  0  0  0
  6 25  1  0  0  0
  6 96  1  0  0  0
  6 97  1  0  0  0
  7  8  2  0  0  0
  7 26  1  0  0  0
  7 29  1  0  0  0
  8  9  1  0  0  0
  8 22  1  0  0  0
  9 10  1  0  0  0
  9 27  2  0  0  0
 10 11  2  0  0  0
 10 15  1  0  0  0
 11 12  1  0  0  0
 11 98  1  0  0  0
 12 13  2  0  0  0
 12 99  1  0  0  0
 13 14  1  0  0  0
 13 31  1  0  0  0
 14 15  2  0  0  0
 14100  1  0  0  0
 15101  1  0  0  0
 16 17  2  0  0  0
 16 21  1  0  0  0
 16 31  1  0  0  0
 17 18  1  0  0  0
 17102  1  0  0  0
 18 19  2  0  0  0
 18103  1  0  0  0
 19 20  1  0  0  0
 19 24  1  0  0  0
 20 21  2  0  0  0
 20104  1  0  0  0
 21 23  1  0  0  0
 22 28  1  0  0  0
 22 32  2  0  0  0
 26 27  1  0  0  0
 28105  1  0  0  0
 28106  1  0  0  0
 29107  1  0  0  0
 29108  1  0  0  0
 33 34  1  0  0  0
 33 66  1  0  0  0
 33 70  2  0  0  0
 34 36  1  0  0  0
 34 59  1  0  0  0
 34109  1  0  0  0
 35 44  2  0  0  0
 35 45  1  0  0  0
 35 68  1  0  0  0
 36 56  1  0  0  0
 36110  1  0  0  0
 37 39  1  0  0  0
 37 47  1  0  0  0
 37 66  1  0  0  0
 37111  1  0  0  0
 38 43  2  0  0  0
 38 46  1  0  0  0
 38 47  1  0  0  0
 39 64  1  0  0  0
 39 67  2  0  0  0
 40 52  1  0  0  0
 40 53  2  0  0  0
 40 58  1  0  0  0
 41112  1  0  0  0
 41113  1  0  0  0
 41114  1  0  0  0
 41 48  1  0  0  0
 42 43  1  0  0  0
 42 66  1  0  0  0
 42115  1  0  0  0
 42116  1  0  0  0
 43 44  1  0  0  0
 44117  1  0  0  0
 45 46  2  0  0  0
 45118  1  0  0  0
 46119  1  0  0  0
 47120  1  0  0  0
 47121  1  0  0  0
 48 56  1  0  0  0
 48 65  1  0  0  0
 48122  1  0  0  0
 49 50  1  0  0  0
 49 53  1  0  0  0
 49 64  1  0  0  0
 49123  1  0  0  0
 50 51  1  0  0  0
 50124  1  0  0  0
 50125  1  0  0  0
 51 52  1  0  0  0
 51126  1  0  0  0
 51127  1  0  0  0
 52128  1  0  0  0
 52129  1  0  0  0
 53 54  1  0  0  0
 54 55  2  0  0  0
 54130  1  0  0  0
 55 57  1  0  0  0
 55131  1  0  0  0
 56 69  2  0  0  0
 57 58  2  0  0  0
 57132  1  0  0  0
 58133  1  0  0  0
 59 60  1  0  0  0
 59 61  1  0  0  0
 59 62  1  0  0  0
 60134  1  0  0  0
 60135  1  0  0  0
 60136  1  0  0  0
 61137  1  0  0  0
 61138  1  0  0  0
 61139  1  0  0  0
 62140  1  0  0  0
 62141  1  0  0  0
 62142  1  0  0  0
 63 65  1  0  0  0
 63143  1  0  0  0
 63144  1  0  0  0
 63145  1  0  0  0
 64146  1  0  0  0
 65147  1  0  0  0
 68 83  1  0  0  0
 71 72  2  0  0  0
 71 73  1  0  0  0
 71148  1  0  0  0
 72 74  1  0  0  0
 72149  1  0  0  0
 73 75  2  0  0  0
 73150  1  0  0  0
 74 76  2  0  0  0
 74 81  1  0  0  0
 75 76  1  0  0  0
 75 83  1  0  0  0
 76 82  1  0  0  0
 77 78  1  0  0  0
 77 79  1  0  0  0
 77151  1  0  0  0
 77152  1  0  0  0
 78 80  1  0  0  0
 78153  1  0  0  0
 78154  1  0  0  0
 79 88  1  0  0  0
 79155  1  0  0  0
 79156  1  0  0  0
 80 84  1  0  0  0
 80 88  1  0  0  0
 80157  1  0  0  0
 81 85  1  0  0  0
 81158  1  0  0  0
 81159  1  0  0  0
 82 87  1  0  0  0
 82160  1  0  0  0
 82161  1  0  0  0
 83162  1  0  0  0
 83163  1  0  0  0
 84 87  1  0  0  0
 84164  1  0  0  0
 84165  1  0  0  0
 85 86  1  0  0  0
 85166  1  0  0  0
 85167  1  0  0  0
 86168  1  0  0  0
 87169  1  0  0  0
 88170  1  0  0  0
 88171  1  0  0  0
M  CHG  1  88   1
M  ISO  4   1 100  68 101  83 101  86 100
M  END
> <chiral flag>
0

> <version>
0

> <s_m_source_file>
/data/baiqing/PycharmProjects/Reinvent-master-3.2/result/LINK_invent/BTK/process_docking_weight1_custom_sum_contain_oxygen_bond_distance_aromatic_linkinvent_7_9_3/rearranged_h_0133.sdf

> <i_m_source_file_index>
76

> <r_mmod_Potential_Energy-OPLS-2005>
506.486938476562

> <r_mmod_Stretch_Energy-OPLS-2005>
300.151397705078

> <r_mmod_Bend_Energy-OPLS-2005>
320.226623535156

> <r_mmod_Torsional_Energy-OPLS-2005>
320.215637207031

> <r_mmod_Improper_Torsional_Energy-OPLS-2005>
5.76243257522583

> <r_mmod_Van_der_Waal_Energy-OPLS-2005>
116.977691650391

> <r_mmod_Electrostatic_Energy-OPLS-2005>
-322.886444091797

> <r_mmod_Solvation_Energy-OPLS-2005>
-454.899597167969

> <b_mmod_Minimization_Converged-OPLS-2005>
0

> <r_mmod_RMS_Derivative-OPLS-2005>
3.62814378738403

$$$$
77
                    3D
 Structure written by MMmdl.
155163  0  0  1  0            999 V2000
  -30.6164  -14.7263   20.4631 C   0  0  0  0  0  0
  -30.4411  -12.4463   19.4549 C   0  0  0  0  0  0
  -29.5011  -12.4750   18.2286 C   0  0  0  0  0  0
  -28.0368  -12.2847   18.6679 C   0  0  0  0  0  0
  -27.6420  -13.2149   19.8443 C   0  0  2  0  0  0
  -28.6917  -13.1546   20.9748 C   0  0  0  0  0  0
  -25.2546  -13.8170   20.5712 C   0  0  0  0  0  0
  -24.1808  -13.0431   20.9219 C   0  0  0  0  0  0
  -24.6372  -11.6908   20.8769 C   0  0  0  0  0  0
  -23.9052  -10.4292   21.0431 C   0  0  0  0  0  0
  -24.3595   -9.4206   21.9210 C   0  0  0  0  0  0
  -23.6277   -8.2238   22.0776 C   0  0  0  0  0  0
  -22.4267   -8.0280   21.3550 C   0  0  0  0  0  0
  -21.9912   -9.0251   20.4652 C   0  0  0  0  0  0
  -22.7237  -10.2128   20.3069 C   0  0  0  0  0  0
  -21.6838   -6.0733   22.5282 C   0  0  0  0  0  0
  -21.4005   -6.5640   23.8211 C   0  0  0  0  0  0
  -21.3654   -5.6798   24.9183 C   0  0  0  0  0  0
  -21.6035   -4.3060   24.7236 C   0  0  0  0  0  0
  -21.8819   -3.8149   23.4358 C   0  0  0  0  0  0
  -21.9192   -4.6961   22.3411 C   0  0  0  0  0  0
  -22.7837  -13.5237   21.1861 C   0  0  0  0  0  0
  -22.1659   -4.2146   21.0986 F   0  0  0  0  0  0
  -21.5629   -3.4540   25.7752 F   0  0  0  0  0  0
  -29.9902  -13.5049   20.3845 N   0  0  0  0  0  0
  -26.2943  -12.9332   20.3289 N   0  0  0  0  0  0
  -25.9296  -11.6496   20.5785 N   0  0  0  0  0  0
  -22.0445  -12.8223   22.0381 N   0  0  0  0  0  0
  -25.4286  -15.1887   20.4111 N   0  0  0  0  0  0
  -31.8133  -14.8310   20.1841 O   0  0  0  0  0  0
  -21.6626   -6.8873   21.4243 O   0  0  0  0  0  0
  -22.3549  -14.5558   20.6726 O   0  0  0  0  0  0
  -24.6294  -31.8518   23.1971 C   0  0  0  0  0  0
  -25.9102  -32.4746   23.8340 C   0  0  1  0  0  0
  -27.2366  -27.2737   20.1325 C   0  0  0  0  0  0
  -25.5894  -33.8549   24.2245 N   0  0  0  0  0  0
  -23.4292  -30.4710   21.5405 C   0  0  2  0  0  0
  -24.8814  -28.9129   20.1188 C   0  0  0  0  0  0
  -22.7501  -29.4558   22.4911 C   0  0  0  0  0  0
  -18.0299  -28.1372   22.8488 C   0  0  0  0  0  0
  -24.1471  -36.7262   23.2632 C   0  0  0  0  0  0
  -25.9731  -30.7695   21.3740 C   0  0  0  0  0  0
  -26.0521  -29.3915   20.7213 C   0  0  0  0  0  0
  -27.2362  -28.5863   20.7095 C   0  0  0  0  0  0
  -26.0420  -26.8527   19.5114 C   0  0  0  0  0  0
  -24.8794  -27.6502   19.5055 C   0  0  0  0  0  0
  -23.6507  -29.7976   20.1616 C   0  0  0  0  0  0
  -25.4095  -36.3060   24.0315 C   0  0  1  0  0  0
  -20.5900  -28.3666   23.1259 C   0  0  2  0  0  0
  -20.6762  -26.9384   22.5387 C   0  0  0  0  0  0
  -19.5745  -26.6389   21.5174 C   0  0  0  0  0  0
  -18.1927  -26.7930   22.1605 C   0  0  0  0  0  0
  -19.1555  -28.8840   23.2864 C   0  0  0  0  0  0
  -18.9482  -30.1448   23.8873 C   0  0  0  0  0  0
  -17.6480  -30.6572   24.0567 C   0  0  0  0  0  0
  -25.9051  -34.9427   23.5088 C   0  0  0  0  0  0
  -16.5368  -29.9067   23.6341 C   0  0  0  0  0  0
  -16.7289  -28.6493   23.0348 C   0  0  0  0  0  0
  -26.4506  -31.6583   25.0721 C   0  0  0  0  0  0
  -25.3747  -31.3623   26.1437 C   0  0  0  0  0  0
  -27.0412  -30.3042   24.6165 C   0  0  0  0  0  0
  -27.6058  -32.4348   25.7498 C   0  0  0  0  0  0
  -27.5581  -37.1743   24.8432 C   0  0  0  0  0  0
  -21.4209  -29.3008   22.3647 N   0  0  0  0  0  0
  -26.4248  -37.3783   23.9454 N   0  0  0  0  0  0
  -24.6964  -31.0475   22.0959 N   0  0  0  0  0  0
  -23.4194  -28.8081   23.2997 O   0  0  0  0  0  0
  -28.3473  -26.4019   20.1281 O   0  0  0  0  0  0
  -26.5652  -34.8890   22.4676 O   0  0  0  0  0  0
  -23.5435  -32.1368   23.7243 O   0  0  0  0  0  0
  -28.3017  -22.2560   20.6538 C   0  0  0  0  0  0
  -30.4151  -22.0163   19.5519 C   0  0  0  0  0  0
  -29.1991  -21.1354   19.9742 C   0  0  1  0  0  0
  -28.6940  -23.6549   20.0131 C   0  0  1  0  0  0
  -28.2018  -25.0315   20.7259 C   0  0  0  0  0  0
  -30.2233  -17.3001   20.9203 C   0  0  0  0  0  0
  -29.4446  -18.5153   20.1889 C   0  0  0  0  0  0
  -29.8330  -15.8476   20.6651 N   0  0  0  0  0  0
  -29.6006  -19.9063   20.7701 N   0  0  0  0  0  0
  -30.1570  -23.4424   19.9304 N   0  3  0  0  0  0
  -31.4745  -12.5894   19.1325 H   0  0  0  0  0  0
  -30.4138  -11.4715   19.9457 H   0  0  0  0  0  0
  -29.7797  -11.6887   17.5249 H   0  0  0  0  0  0
  -29.6081  -13.4211   17.6964 H   0  0  0  0  0  0
  -27.9321  -11.2451   18.9837 H   0  0  0  0  0  0
  -27.3587  -12.4169   17.8244 H   0  0  0  0  0  0
  -27.6380  -14.2276   19.4421 H   0  0  0  0  0  0
  -28.7287  -12.1576   21.4161 H   0  0  0  0  0  0
  -28.4309  -13.8363   21.7859 H   0  0  0  0  0  0
  -25.2721   -9.5675   22.4818 H   0  0  0  0  0  0
  -23.9968   -7.4633   22.7509 H   0  0  0  0  0  0
  -21.0851   -8.8771   19.8958 H   0  0  0  0  0  0
  -22.3705  -10.9667   19.6190 H   0  0  0  0  0  0
  -21.1990   -7.6148   23.9718 H   0  0  0  0  0  0
  -21.1473   -6.0529   25.9083 H   0  0  0  0  0  0
  -22.0601   -2.7611   23.2867 H   0  0  0  0  0  0
  -22.4011  -11.9825   22.4711 H   0  0  0  0  0  0
  -21.1074  -13.1270   22.2590 H   0  0  0  0  0  0
  -24.6647  -15.8467   20.5286 H   0  0  0  0  0  0
  -26.2751  -15.6221   20.0655 H   0  0  0  0  0  0
  -26.7156  -32.5397   23.1069 H   0  0  0  0  0  0
  -24.9980  -33.9696   25.0351 H   0  0  0  0  0  0
  -22.7259  -31.2913   21.3858 H   0  0  0  0  0  0
  -23.3777  -35.9543   23.3207 H   0  0  0  0  0  0
  -24.3583  -36.9025   22.2071 H   0  0  0  0  0  0
  -23.7168  -37.6391   23.6752 H   0  0  0  0  0  0
  -26.0965  -31.5272   20.5990 H   0  0  0  0  0  0
  -26.8558  -30.8313   21.9998 H   0  0  0  0  0  0
  -28.1400  -28.9556   21.1722 H   0  0  0  0  0  0
  -26.0005  -25.8842   19.0316 H   0  0  0  0  0  0
  -23.9795  -27.2814   19.0329 H   0  0  0  0  0  0
  -23.7753  -30.5684   19.4013 H   0  0  0  0  0  0
  -22.7735  -29.2249   19.8570 H   0  0  0  0  0  0
  -25.1257  -36.1884   25.0794 H   0  0  0  0  0  0
  -20.9989  -28.3248   24.1379 H   0  0  0  0  0  0
  -20.5645  -26.2256   23.3575 H   0  0  0  0  0  0
  -21.6623  -26.7387   22.1187 H   0  0  0  0  0  0
  -19.6890  -25.6314   21.1182 H   0  0  0  0  0  0
  -19.6691  -27.3213   20.6714 H   0  0  0  0  0  0
  -17.4186  -26.6690   21.4011 H   0  0  0  0  0  0
  -18.0338  -26.0050   22.8981 H   0  0  0  0  0  0
  -19.7949  -30.7270   24.2233 H   0  0  0  0  0  0
  -17.5029  -31.6253   24.5166 H   0  0  0  0  0  0
  -15.5368  -30.2951   23.7690 H   0  0  0  0  0  0
  -15.8690  -28.0820   22.7049 H   0  0  0  0  0  0
  -24.5928  -30.6999   25.7705 H   0  0  0  0  0  0
  -24.8906  -32.2729   26.4965 H   0  0  0  0  0  0
  -25.8081  -30.8706   27.0161 H   0  0  0  0  0  0
  -26.3012  -29.6726   24.1237 H   0  0  0  0  0  0
  -27.4236  -29.7340   25.4644 H   0  0  0  0  0  0
  -27.8804  -30.4404   23.9337 H   0  0  0  0  0  0
  -27.2708  -33.3702   26.1991 H   0  0  0  0  0  0
  -28.3905  -32.6843   25.0338 H   0  0  0  0  0  0
  -28.0683  -31.8525   26.5480 H   0  0  0  0  0  0
  -28.2439  -38.0186   24.7715 H   0  0  0  0  0  0
  -28.1253  -36.2745   24.6002 H   0  0  0  0  0  0
  -27.2331  -37.1065   25.8825 H   0  0  0  0  0  0
  -20.9390  -29.8775   21.6893 H   0  0  0  0  0  0
  -26.0108  -38.2811   24.1641 H   0  0  0  0  0  0
  -28.5112  -22.2945   21.7265 H   0  0  0  0  0  0
  -27.2364  -22.0480   20.5491 H   0  0  0  0  0  0
  -30.5541  -21.9563   18.4714 H   0  0  0  0  0  0
  -31.3448  -21.6774   20.0107 H   0  0  0  0  0  0
  -28.6895  -20.8033   19.0659 H   0  0  0  0  0  0
  -28.3143  -23.6699   18.9896 H   0  0  0  0  0  0
  -28.6796  -25.0873   21.7039 H   0  0  0  0  0  0
  -27.1484  -24.8806   20.9592 H   0  0  0  0  0  0
  -30.1059  -17.4382   21.9956 H   0  0  0  0  0  0
  -31.2925  -17.4143   20.7363 H   0  0  0  0  0  0
  -28.3775  -18.2888   20.1669 H   0  0  0  0  0  0
  -29.7635  -18.5378   19.1449 H   0  0  0  0  0  0
  -28.8494  -15.6481   20.7692 H   0  0  0  0  0  0
  -29.1907  -19.9332   21.7011 H   0  0  0  0  0  0
  -30.6097  -24.0756   19.2893 H   0  0  0  0  0  0
  -30.5607  -23.5808   20.8439 H   0  0  0  0  0  0
  1 25  1  0  0  0
  1 30  2  0  0  0
  1 78  1  0  0  0
  2  3  1  0  0  0
  2 25  1  0  0  0
  2 81  1  0  0  0
  2 82  1  0  0  0
  3  4  1  0  0  0
  3 83  1  0  0  0
  3 84  1  0  0  0
  4  5  1  0  0  0
  4 85  1  0  0  0
  4 86  1  0  0  0
  5  6  1  0  0  0
  5 26  1  0  0  0
  5 87  1  0  0  0
  6 25  1  0  0  0
  6 88  1  0  0  0
  6 89  1  0  0  0
  7  8  2  0  0  0
  7 26  1  0  0  0
  7 29  1  0  0  0
  8  9  1  0  0  0
  8 22  1  0  0  0
  9 10  1  0  0  0
  9 27  2  0  0  0
 10 11  2  0  0  0
 10 15  1  0  0  0
 11 12  1  0  0  0
 11 90  1  0  0  0
 12 13  2  0  0  0
 12 91  1  0  0  0
 13 14  1  0  0  0
 13 31  1  0  0  0
 14 15  2  0  0  0
 14 92  1  0  0  0
 15 93  1  0  0  0
 16 17  2  0  0  0
 16 21  1  0  0  0
 16 31  1  0  0  0
 17 18  1  0  0  0
 17 94  1  0  0  0
 18 19  2  0  0  0
 18 95  1  0  0  0
 19 20  1  0  0  0
 19 24  1  0  0  0
 20 21  2  0  0  0
 20 96  1  0  0  0
 21 23  1  0  0  0
 22 28  1  0  0  0
 22 32  2  0  0  0
 26 27  1  0  0  0
 28 97  1  0  0  0
 28 98  1  0  0  0
 29 99  1  0  0  0
 29100  1  0  0  0
 33 34  1  0  0  0
 33 66  1  0  0  0
 33 70  2  0  0  0
 34 36  1  0  0  0
 34 59  1  0  0  0
 34101  1  0  0  0
 35 44  2  0  0  0
 35 45  1  0  0  0
 35 68  1  0  0  0
 36 56  1  0  0  0
 36102  1  0  0  0
 37 39  1  0  0  0
 37 47  1  0  0  0
 37 66  1  0  0  0
 37103  1  0  0  0
 38 43  2  0  0  0
 38 46  1  0  0  0
 38 47  1  0  0  0
 39 64  1  0  0  0
 39 67  2  0  0  0
 40 52  1  0  0  0
 40 53  2  0  0  0
 40 58  1  0  0  0
 41104  1  0  0  0
 41105  1  0  0  0
 41106  1  0  0  0
 41 48  1  0  0  0
 42 43  1  0  0  0
 42 66  1  0  0  0
 42107  1  0  0  0
 42108  1  0  0  0
 43 44  1  0  0  0
 44109  1  0  0  0
 45 46  2  0  0  0
 45110  1  0  0  0
 46111  1  0  0  0
 47112  1  0  0  0
 47113  1  0  0  0
 48 56  1  0  0  0
 48 65  1  0  0  0
 48114  1  0  0  0
 49 50  1  0  0  0
 49 53  1  0  0  0
 49 64  1  0  0  0
 49115  1  0  0  0
 50 51  1  0  0  0
 50116  1  0  0  0
 50117  1  0  0  0
 51 52  1  0  0  0
 51118  1  0  0  0
 51119  1  0  0  0
 52120  1  0  0  0
 52121  1  0  0  0
 53 54  1  0  0  0
 54 55  2  0  0  0
 54122  1  0  0  0
 55 57  1  0  0  0
 55123  1  0  0  0
 56 69  2  0  0  0
 57 58  2  0  0  0
 57124  1  0  0  0
 58125  1  0  0  0
 59 60  1  0  0  0
 59 61  1  0  0  0
 59 62  1  0  0  0
 60126  1  0  0  0
 60127  1  0  0  0
 60128  1  0  0  0
 61129  1  0  0  0
 61130  1  0  0  0
 61131  1  0  0  0
 62132  1  0  0  0
 62133  1  0  0  0
 62134  1  0  0  0
 63 65  1  0  0  0
 63135  1  0  0  0
 63136  1  0  0  0
 63137  1  0  0  0
 64138  1  0  0  0
 65139  1  0  0  0
 68 75  1  0  0  0
 71 73  1  0  0  0
 71 74  1  0  0  0
 71140  1  0  0  0
 71141  1  0  0  0
 72 73  1  0  0  0
 72 80  1  0  0  0
 72142  1  0  0  0
 72143  1  0  0  0
 73 79  1  0  0  0
 73144  1  0  0  0
 74 75  1  0  0  0
 74 80  1  0  0  0
 74145  1  0  0  0
 75146  1  0  0  0
 75147  1  0  0  0
 76 77  1  0  0  0
 76 78  1  0  0  0
 76148  1  0  0  0
 76149  1  0  0  0
 77 79  1  0  0  0
 77150  1  0  0  0
 77151  1  0  0  0
 78152  1  0  0  0
 79153  1  0  0  0
 80154  1  0  0  0
 80155  1  0  0  0
M  CHG  1  80   1
M  ISO  4   1 100  68 101  75 101  78 100
M  END
> <chiral flag>
0

> <version>
0

> <s_m_source_file>
/data/baiqing/PycharmProjects/Reinvent-master-3.2/result/LINK_invent/BTK/process_docking_weight1_custom_sum_contain_oxygen_bond_distance_aromatic_linkinvent_7_9_3/rearranged_h_0133.sdf

> <i_m_source_file_index>
77

> <r_mmod_Potential_Energy-OPLS-2005>
34.837574005127

> <r_mmod_Stretch_Energy-OPLS-2005>
110.302040100098

> <r_mmod_Bend_Energy-OPLS-2005>
200.179504394531

> <r_mmod_Torsional_Energy-OPLS-2005>
287.640228271484

> <r_mmod_Improper_Torsional_Energy-OPLS-2005>
4.2253623008728

> <r_mmod_Van_der_Waal_Energy-OPLS-2005>
115.168182373047

> <r_mmod_Electrostatic_Energy-OPLS-2005>
-303.889831542969

> <r_mmod_Solvation_Energy-OPLS-2005>
-457.15771484375

> <b_mmod_Minimization_Converged-OPLS-2005>
0

> <r_mmod_RMS_Derivative-OPLS-2005>
2.81109619140625

$$$$
78
                    3D
 Structure written by MMmdl.
162171  0  0  1  0            999 V2000
  -30.6666  -14.7863   20.4718 C   0  0  0  0  0  0
  -30.4158  -12.4912   19.4835 C   0  0  0  0  0  0
  -29.5015  -12.5006   18.2417 C   0  0  0  0  0  0
  -28.0336  -12.3196   18.6624 C   0  0  0  0  0  0
  -27.6327  -13.2447   19.8430 C   0  0  2  0  0  0
  -28.6797  -13.2420   20.9797 C   0  0  0  0  0  0
  -25.2476  -13.8237   20.5723 C   0  0  0  0  0  0
  -24.1786  -13.0460   20.9238 C   0  0  0  0  0  0
  -24.6401  -11.6942   20.8790 C   0  0  0  0  0  0
  -23.9091  -10.4305   21.0427 C   0  0  0  0  0  0
  -24.3637   -9.4212   21.9200 C   0  0  0  0  0  0
  -23.6303   -8.2250   22.0763 C   0  0  0  0  0  0
  -22.4283   -8.0300   21.3550 C   0  0  0  0  0  0
  -21.9929   -9.0277   20.4652 C   0  0  0  0  0  0
  -22.7268  -10.2153   20.3066 C   0  0  0  0  0  0
  -21.6852   -6.0752   22.5280 C   0  0  0  0  0  0
  -21.4011   -6.5651   23.8217 C   0  0  0  0  0  0
  -21.3654   -5.6797   24.9180 C   0  0  0  0  0  0
  -21.6037   -4.3058   24.7226 C   0  0  0  0  0  0
  -21.8818   -3.8158   23.4344 C   0  0  0  0  0  0
  -21.9195   -4.6978   22.3403 C   0  0  0  0  0  0
  -22.7805  -13.5232   21.1880 C   0  0  0  0  0  0
  -22.1661   -4.2166   21.0975 F   0  0  0  0  0  0
  -21.5629   -3.4537   25.7742 F   0  0  0  0  0  0
  -29.9715  -13.5919   20.3791 N   0  0  0  0  0  0
  -26.2900  -12.9459   20.3286 N   0  0  0  0  0  0
  -25.9332  -11.6592   20.5789 N   0  0  0  0  0  0
  -22.0445  -12.8221   22.0432 N   0  0  0  0  0  0
  -25.4144  -15.1965   20.4114 N   0  0  0  0  0  0
  -31.8465  -14.7754   20.1023 O   0  0  0  0  0  0
  -21.6642   -6.8902   21.4241 O   0  0  0  0  0  0
  -22.3489  -14.5540   20.6733 O   0  0  0  0  0  0
  -24.6328  -31.8522   23.1971 C   0  0  0  0  0  0
  -25.9142  -32.4743   23.8329 C   0  0  1  0  0  0
  -27.2053  -27.2294   20.1403 C   0  0  0  0  0  0
  -25.5938  -33.8538   24.2244 N   0  0  0  0  0  0
  -23.4326  -30.4753   21.5405 C   0  0  2  0  0  0
  -24.8793  -28.9193   20.1070 C   0  0  0  0  0  0
  -22.7515  -29.4586   22.4896 C   0  0  0  0  0  0
  -18.0300  -28.1369   22.8495 C   0  0  0  0  0  0
  -24.1496  -36.7292   23.2646 C   0  0  0  0  0  0
  -25.9796  -30.7555   21.3824 C   0  0  0  0  0  0
  -26.0518  -29.3745   20.7247 C   0  0  0  0  0  0
  -27.2213  -28.5423   20.7303 C   0  0  0  0  0  0
  -26.0190  -26.8579   19.4749 C   0  0  0  0  0  0
  -24.8690  -27.6707   19.4667 C   0  0  0  0  0  0
  -23.6529  -29.8106   20.1551 C   0  0  0  0  0  0
  -25.4122  -36.3048   24.0326 C   0  0  1  0  0  0
  -20.5908  -28.3683   23.1257 C   0  0  2  0  0  0
  -20.6785  -26.9397   22.5404 C   0  0  0  0  0  0
  -19.5756  -26.6365   21.5212 C   0  0  0  0  0  0
  -18.1935  -26.7913   22.1624 C   0  0  0  0  0  0
  -19.1562  -28.8845   23.2862 C   0  0  0  0  0  0
  -18.9481  -30.1441   23.8877 C   0  0  0  0  0  0
  -17.6476  -30.6565   24.0556 C   0  0  0  0  0  0
  -25.9067  -34.9425   23.5086 C   0  0  0  0  0  0
  -16.5366  -29.9059   23.6330 C   0  0  0  0  0  0
  -16.7294  -28.6480   23.0353 C   0  0  0  0  0  0
  -26.4488  -31.6587   25.0741 C   0  0  0  0  0  0
  -25.3680  -31.3746   26.1454 C   0  0  0  0  0  0
  -27.0364  -30.3009   24.6240 C   0  0  0  0  0  0
  -27.6031  -32.4348   25.7498 C   0  0  0  0  0  0
  -27.5577  -37.1788   24.8461 C   0  0  0  0  0  0
  -21.4224  -29.3038   22.3650 N   0  0  0  0  0  0
  -26.4294  -37.3746   23.9404 N   0  0  0  0  0  0
  -24.7013  -31.0463   22.0966 N   0  0  0  0  0  0
  -23.4198  -28.8121   23.3014 O   0  0  0  0  0  0
  -28.2723  -26.2940   20.1778 O   0  0  0  0  0  0
  -26.5633  -34.8907   22.4655 O   0  0  0  0  0  0
  -23.5464  -32.1356   23.7250 O   0  0  0  0  0  0
  -31.0763  -19.5904   21.9854 C   0  0  0  0  0  0
  -32.2164  -19.1811   22.6750 C   0  0  0  0  0  0
  -30.2761  -18.6958   21.2253 C   0  0  0  0  0  0
  -32.5425  -17.8351   22.6408 C   0  0  0  0  0  0
  -30.6672  -17.2498   21.2794 C   0  0  0  0  0  0
  -28.6876  -22.9931   18.7643 C   0  0  0  0  0  0
  -29.0167  -21.4580   18.7669 C   0  0  0  0  0  0
  -28.6920  -22.1481   20.9809 C   0  0  0  0  0  0
  -28.8611  -23.5425   20.1971 C   0  0  2  0  0  0
  -33.7937  -17.3162   23.3178 C   0  0  0  0  0  0
  -29.1129  -19.4989   20.4741 C   0  0  0  0  0  0
  -27.9719  -24.8627   20.5916 C   0  0  0  0  0  0
  -31.7769  -16.9379   22.0040 N   0  0  0  0  0  0
  -30.0290  -16.0155   20.7293 N   0  0  0  0  0  0
  -29.3156  -21.0237   20.1571 N   0  3  1  0  0  0
  -31.4560  -12.5872   19.1713 H   0  0  0  0  0  0
  -30.3565  -11.5327   20.0013 H   0  0  0  0  0  0
  -29.7921  -11.7049   17.5536 H   0  0  0  0  0  0
  -29.6199  -13.4386   17.6963 H   0  0  0  0  0  0
  -27.9057  -11.2769   18.9533 H   0  0  0  0  0  0
  -27.3706  -12.4784   17.8114 H   0  0  0  0  0  0
  -27.6091  -14.2536   19.4301 H   0  0  0  0  0  0
  -28.7299  -12.2657   21.4633 H   0  0  0  0  0  0
  -28.4068  -13.9596   21.7547 H   0  0  0  0  0  0
  -25.2776   -9.5686   22.4786 H   0  0  0  0  0  0
  -24.0009   -7.4638   22.7479 H   0  0  0  0  0  0
  -21.0865   -8.8808   19.8953 H   0  0  0  0  0  0
  -22.3733  -10.9704   19.6184 H   0  0  0  0  0  0
  -21.1996   -7.6160   23.9730 H   0  0  0  0  0  0
  -21.1471   -6.0526   25.9086 H   0  0  0  0  0  0
  -22.0601   -2.7621   23.2839 H   0  0  0  0  0  0
  -22.4049  -11.9873   22.4807 H   0  0  0  0  0  0
  -21.1061  -13.1247   22.2638 H   0  0  0  0  0  0
  -24.6415  -15.8457   20.5133 H   0  0  0  0  0  0
  -26.2537  -15.6335   20.0535 H   0  0  0  0  0  0
  -26.7211  -32.5371   23.1062 H   0  0  0  0  0  0
  -25.0069  -33.9659   25.0381 H   0  0  0  0  0  0
  -22.7325  -31.3000   21.3933 H   0  0  0  0  0  0
  -23.3742  -35.9635   23.3297 H   0  0  0  0  0  0
  -24.3580  -36.8945   22.2063 H   0  0  0  0  0  0
  -23.7270  -37.6494   23.6695 H   0  0  0  0  0  0
  -26.1201  -31.5143   20.6108 H   0  0  0  0  0  0
  -26.8559  -30.8063   22.0171 H   0  0  0  0  0  0
  -28.1196  -28.8788   21.2293 H   0  0  0  0  0  0
  -25.9624  -25.9117   18.9556 H   0  0  0  0  0  0
  -23.9786  -27.3249   18.9593 H   0  0  0  0  0  0
  -23.7802  -30.5875   19.4005 H   0  0  0  0  0  0
  -22.7687  -29.2482   19.8506 H   0  0  0  0  0  0
  -25.1284  -36.1898   25.0817 H   0  0  0  0  0  0
  -21.0006  -28.3283   24.1377 H   0  0  0  0  0  0
  -20.5693  -26.2292   23.3617 H   0  0  0  0  0  0
  -21.6648  -26.7415   22.1189 H   0  0  0  0  0  0
  -19.6913  -25.6274   21.1250 H   0  0  0  0  0  0
  -19.6692  -27.3181   20.6744 H   0  0  0  0  0  0
  -17.4207  -26.6688   21.4014 H   0  0  0  0  0  0
  -18.0300  -26.0039   22.9009 H   0  0  0  0  0  0
  -19.7961  -30.7252   24.2239 H   0  0  0  0  0  0
  -17.5035  -31.6247   24.5152 H   0  0  0  0  0  0
  -15.5367  -30.2937   23.7655 H   0  0  0  0  0  0
  -15.8704  -28.0779   22.7055 H   0  0  0  0  0  0
  -24.5894  -30.7051   25.7776 H   0  0  0  0  0  0
  -24.8826  -32.2910   26.4833 H   0  0  0  0  0  0
  -25.7975  -30.8968   27.0272 H   0  0  0  0  0  0
  -26.2964  -29.6722   24.1272 H   0  0  0  0  0  0
  -27.4054  -29.7295   25.4766 H   0  0  0  0  0  0
  -27.8834  -30.4290   23.9483 H   0  0  0  0  0  0
  -27.2661  -33.3715   26.1953 H   0  0  0  0  0  0
  -28.3879  -32.6809   25.0330 H   0  0  0  0  0  0
  -28.0638  -31.8548   26.5507 H   0  0  0  0  0  0
  -28.2552  -38.0115   24.7505 H   0  0  0  0  0  0
  -28.1094  -36.2629   24.6274 H   0  0  0  0  0  0
  -27.2278  -37.1436   25.8856 H   0  0  0  0  0  0
  -20.9407  -29.8828   21.6913 H   0  0  0  0  0  0
  -26.0171  -38.2817   24.1409 H   0  0  0  0  0  0
  -30.8532  -20.6435   22.0446 H   0  0  0  0  0  0
  -32.8288  -19.8971   23.2075 H   0  0  0  0  0  0
  -27.6579  -23.1359   18.4340 H   0  0  0  0  0  0
  -29.3145  -23.5343   18.0550 H   0  0  0  0  0  0
  -29.8665  -21.2276   18.1229 H   0  0  0  0  0  0
  -28.1583  -20.9077   18.3799 H   0  0  0  0  0  0
  -27.6300  -21.9333   21.1111 H   0  0  0  0  0  0
  -29.1258  -22.1987   21.9800 H   0  0  0  0  0  0
  -29.9061  -23.8310   20.3139 H   0  0  0  0  0  0
  -33.9874  -17.8634   24.2405 H   0  0  0  0  0  0
  -34.6556  -17.4470   22.6630 H   0  0  0  0  0  0
  -33.7086  -16.2574   23.5612 H   0  0  0  0  0  0
  -28.1852  -19.3772   21.0359 H   0  0  0  0  0  0
  -28.9515  -18.9747   19.5307 H   0  0  0  0  0  0
  -27.9826  -24.9074   21.6815 H   0  0  0  0  0  0
  -26.9385  -24.6063   20.3657 H   0  0  0  0  0  0
  -29.0221  -16.0108   20.7186 H   0  0  0  0  0  0
  -30.3123  -21.1662   20.2242 H   0  0  0  0  0  0
  1 25  1  0  0  0
  1 30  2  0  0  0
  1 84  1  0  0  0
  2  3  1  0  0  0
  2 25  1  0  0  0
  2 86  1  0  0  0
  2 87  1  0  0  0
  3  4  1  0  0  0
  3 88  1  0  0  0
  3 89  1  0  0  0
  4  5  1  0  0  0
  4 90  1  0  0  0
  4 91  1  0  0  0
  5  6  1  0  0  0
  5 26  1  0  0  0
  5 92  1  0  0  0
  6 25  1  0  0  0
  6 93  1  0  0  0
  6 94  1  0  0  0
  7  8  2  0  0  0
  7 26  1  0  0  0
  7 29  1  0  0  0
  8  9  1  0  0  0
  8 22  1  0  0  0
  9 10  1  0  0  0
  9 27  2  0  0  0
 10 11  2  0  0  0
 10 15  1  0  0  0
 11 12  1  0  0  0
 11 95  1  0  0  0
 12 13  2  0  0  0
 12 96  1  0  0  0
 13 14  1  0  0  0
 13 31  1  0  0  0
 14 15  2  0  0  0
 14 97  1  0  0  0
 15 98  1  0  0  0
 16 17  2  0  0  0
 16 21  1  0  0  0
 16 31  1  0  0  0
 17 18  1  0  0  0
 17 99  1  0  0  0
 18 19  2  0  0  0
 18100  1  0  0  0
 19 20  1  0  0  0
 19 24  1  0  0  0
 20 21  2  0  0  0
 20101  1  0  0  0
 21 23  1  0  0  0
 22 28  1  0  0  0
 22 32  2  0  0  0
 26 27  1  0  0  0
 28102  1  0  0  0
 28103  1  0  0  0
 29104  1  0  0  0
 29105  1  0  0  0
 33 34  1  0  0  0
 33 66  1  0  0  0
 33 70  2  0  0  0
 34 36  1  0  0  0
 34 59  1  0  0  0
 34106  1  0  0  0
 35 44  2  0  0  0
 35 45  1  0  0  0
 35 68  1  0  0  0
 36 56  1  0  0  0
 36107  1  0  0  0
 37 39  1  0  0  0
 37 47  1  0  0  0
 37 66  1  0  0  0
 37108  1  0  0  0
 38 43  2  0  0  0
 38 46  1  0  0  0
 38 47  1  0  0  0
 39 64  1  0  0  0
 39 67  2  0  0  0
 40 52  1  0  0  0
 40 53  2  0  0  0
 40 58  1  0  0  0
 41109  1  0  0  0
 41110  1  0  0  0
 41111  1  0  0  0
 41 48  1  0  0  0
 42 43  1  0  0  0
 42 66  1  0  0  0
 42112  1  0  0  0
 42113  1  0  0  0
 43 44  1  0  0  0
 44114  1  0  0  0
 45 46  2  0  0  0
 45115  1  0  0  0
 46116  1  0  0  0
 47117  1  0  0  0
 47118  1  0  0  0
 48 56  1  0  0  0
 48 65  1  0  0  0
 48119  1  0  0  0
 49 50  1  0  0  0
 49 53  1  0  0  0
 49 64  1  0  0  0
 49120  1  0  0  0
 50 51  1  0  0  0
 50121  1  0  0  0
 50122  1  0  0  0
 51 52  1  0  0  0
 51123  1  0  0  0
 51124  1  0  0  0
 52125  1  0  0  0
 52126  1  0  0  0
 53 54  1  0  0  0
 54 55  2  0  0  0
 54127  1  0  0  0
 55 57  1  0  0  0
 55128  1  0  0  0
 56 69  2  0  0  0
 57 58  2  0  0  0
 57129  1  0  0  0
 58130  1  0  0  0
 59 60  1  0  0  0
 59 61  1  0  0  0
 59 62  1  0  0  0
 60131  1  0  0  0
 60132  1  0  0  0
 60133  1  0  0  0
 61134  1  0  0  0
 61135  1  0  0  0
 61136  1  0  0  0
 62137  1  0  0  0
 62138  1  0  0  0
 62139  1  0  0  0
 63 65  1  0  0  0
 63140  1  0  0  0
 63141  1  0  0  0
 63142  1  0  0  0
 64143  1  0  0  0
 65144  1  0  0  0
 68 82  1  0  0  0
 71 72  2  0  0  0
 71 73  1  0  0  0
 71145  1  0  0  0
 72 74  1  0  0  0
 72146  1  0  0  0
 73 75  2  0  0  0
 73 81  1  0  0  0
 74 80  1  0  0  0
 74 83  2  0  0  0
 75 83  1  0  0  0
 75 84  1  0  0  0
 76 77  1  0  0  0
 76 79  1  0  0  0
 76147  1  0  0  0
 76148  1  0  0  0
 77 85  1  0  0  0
 77149  1  0  0  0
 77150  1  0  0  0
 78 79  1  0  0  0
 78 85  1  0  0  0
 78151  1  0  0  0
 78152  1  0  0  0
 79 82  1  0  0  0
 79153  1  0  0  0
 80154  1  0  0  0
 80155  1  0  0  0
 80156  1  0  0  0
 81157  1  0  0  0
 81158  1  0  0  0
 81 85  1  0  0  0
 82159  1  0  0  0
 82160  1  0  0  0
 84161  1  0  0  0
 85162  1  0  0  0
M  CHG  1  85   1
M  ISO  4   1 100  68 101  82 101  84 100
M  END
> <chiral flag>
0

> <version>
0

> <s_m_source_file>
/data/baiqing/PycharmProjects/Reinvent-master-3.2/result/LINK_invent/BTK/process_docking_weight1_custom_sum_contain_oxygen_bond_distance_aromatic_linkinvent_7_9_3/rearranged_h_0133.sdf

> <i_m_source_file_index>
78

> <r_mmod_Potential_Energy-OPLS-2005>
146.066497802734

> <r_mmod_Stretch_Energy-OPLS-2005>
162.132690429688

> <r_mmod_Bend_Energy-OPLS-2005>
265.244995117188

> <r_mmod_Torsional_Energy-OPLS-2005>
293.602600097656

> <r_mmod_Improper_Torsional_Energy-OPLS-2005>
5.81562900543213

> <r_mmod_Van_der_Waal_Energy-OPLS-2005>
149.010818481445

> <r_mmod_Electrostatic_Energy-OPLS-2005>
-352.199310302734

> <r_mmod_Solvation_Energy-OPLS-2005>
-485.743499755859

> <b_mmod_Minimization_Converged-OPLS-2005>
0

> <r_mmod_RMS_Derivative-OPLS-2005>
2.2390022277832

$$$$
79
                    3D
 Structure written by MMmdl.
159168  0  0  1  0            999 V2000
  -30.5964  -14.6609   20.4530 C   0  0  0  0  0  0
  -30.4382  -12.3953   19.4570 C   0  0  0  0  0  0
  -29.5079  -12.4915   18.2252 C   0  0  0  0  0  0
  -28.0287  -12.3379   18.6385 C   0  0  0  0  0  0
  -27.6505  -13.2120   19.8628 C   0  0  2  0  0  0
  -28.6965  -13.0822   20.9946 C   0  0  0  0  0  0
  -25.2552  -13.8173   20.5736 C   0  0  0  0  0  0
  -24.1773  -13.0431   20.9173 C   0  0  0  0  0  0
  -24.6338  -11.6900   20.8697 C   0  0  0  0  0  0
  -23.9013  -10.4270   21.0372 C   0  0  0  0  0  0
  -24.3550   -9.4205   21.9167 C   0  0  0  0  0  0
  -23.6242   -8.2231   22.0726 C   0  0  0  0  0  0
  -22.4234   -8.0251   21.3518 C   0  0  0  0  0  0
  -21.9867   -9.0242   20.4642 C   0  0  0  0  0  0
  -22.7176  -10.2127   20.3060 C   0  0  0  0  0  0
  -21.6863   -6.0706   22.5278 C   0  0  0  0  0  0
  -21.4025   -6.5621   23.8210 C   0  0  0  0  0  0
  -21.3646   -5.6763   24.9168 C   0  0  0  0  0  0
  -21.6025   -4.3033   24.7219 C   0  0  0  0  0  0
  -21.8810   -3.8125   23.4348 C   0  0  0  0  0  0
  -21.9188   -4.6937   22.3391 C   0  0  0  0  0  0
  -22.7794  -13.5268   21.1815 C   0  0  0  0  0  0
  -22.1651   -4.2116   21.0969 F   0  0  0  0  0  0
  -21.5627   -3.4508   25.7732 F   0  0  0  0  0  0
  -30.0063  -13.4246   20.4243 N   0  0  0  0  0  0
  -26.2965  -12.9328   20.3336 N   0  0  0  0  0  0
  -25.9259  -11.6485   20.5703 N   0  0  0  0  0  0
  -22.0419  -12.8271   22.0391 N   0  0  0  0  0  0
  -25.4260  -15.1901   20.4178 N   0  0  0  0  0  0
  -31.7553  -14.8256   20.0738 O   0  0  0  0  0  0
  -21.6619   -6.8839   21.4228 O   0  0  0  0  0  0
  -22.3473  -14.5561   20.6647 O   0  0  0  0  0  0
  -24.6357  -31.8510   23.1993 C   0  0  0  0  0  0
  -25.9186  -32.4741   23.8325 C   0  0  1  0  0  0
  -27.2193  -27.2642   20.1165 C   0  0  0  0  0  0
  -25.5954  -33.8536   24.2227 N   0  0  0  0  0  0
  -23.4285  -30.4754   21.5422 C   0  0  2  0  0  0
  -24.8763  -28.9200   20.1103 C   0  0  0  0  0  0
  -22.7522  -29.4565   22.4928 C   0  0  0  0  0  0
  -18.0295  -28.1399   22.8445 C   0  0  0  0  0  0
  -24.1471  -36.7281   23.2624 C   0  0  0  0  0  0
  -25.9753  -30.7652   21.3774 C   0  0  0  0  0  0
  -26.0482  -29.3877   20.7187 C   0  0  0  0  0  0
  -27.2275  -28.5759   20.6989 C   0  0  0  0  0  0
  -26.0215  -26.8508   19.4998 C   0  0  0  0  0  0
  -24.8680  -27.6627   19.4876 C   0  0  0  0  0  0
  -23.6458  -29.8036   20.1612 C   0  0  0  0  0  0
  -25.4108  -36.3050   24.0302 C   0  0  1  0  0  0
  -20.5898  -28.3710   23.1279 C   0  0  2  0  0  0
  -20.6795  -26.9443   22.5375 C   0  0  0  0  0  0
  -19.5785  -26.6384   21.5183 C   0  0  0  0  0  0
  -18.1941  -26.7938   22.1580 C   0  0  0  0  0  0
  -19.1554  -28.8854   23.2859 C   0  0  0  0  0  0
  -18.9477  -30.1446   23.8871 C   0  0  0  0  0  0
  -17.6483  -30.6582   24.0573 C   0  0  0  0  0  0
  -25.9048  -34.9419   23.5061 C   0  0  0  0  0  0
  -16.5363  -29.9076   23.6366 C   0  0  0  0  0  0
  -16.7283  -28.6522   23.0333 C   0  0  0  0  0  0
  -26.4529  -31.6614   25.0738 C   0  0  0  0  0  0
  -25.3717  -31.3828   26.1450 C   0  0  0  0  0  0
  -27.0374  -30.2990   24.6295 C   0  0  0  0  0  0
  -27.6071  -32.4371   25.7523 C   0  0  0  0  0  0
  -27.5571  -37.1805   24.8452 C   0  0  0  0  0  0
  -21.4227  -29.3057   22.3688 N   0  0  0  0  0  0
  -26.4279  -37.3770   23.9389 N   0  0  0  0  0  0
  -24.6984  -31.0475   22.0955 N   0  0  0  0  0  0
  -23.4239  -28.8088   23.3018 O   0  0  0  0  0  0
  -28.3289  -26.3938   20.1064 O   0  0  0  0  0  0
  -26.5627  -34.8902   22.4630 O   0  0  0  0  0  0
  -23.5509  -32.1377   23.7267 O   0  0  0  0  0  0
  -28.4100  -17.8617   20.1383 C   0  0  0  0  0  0
  -30.7454  -18.1555   20.8375 C   0  0  0  0  0  0
  -29.4217  -24.1485   20.9536 C   0  0  0  0  0  0
  -28.4252  -19.3417   19.5888 C   0  0  0  0  0  0
  -30.6743  -19.6118   20.2375 C   0  0  0  0  0  0
  -29.7991  -17.1435   20.1277 C   0  0  0  0  0  0
  -28.6679  -22.9034   20.4058 C   0  0  2  0  0  0
  -28.1580  -24.9830   20.5994 C   0  0  2  0  0  0
  -29.3875  -21.6636   19.6860 C   0  0  0  0  0  0
  -29.3401  -20.2738   20.2987 N   0  0  0  0  0  0
  -29.7605  -15.7279   20.6798 N   0  0  0  0  0  0
  -28.0097  -23.9436   19.5397 N   0  3  0  0  0  0
  -31.4795  -12.5219   19.1549 H   0  0  0  0  0  0
  -30.3818  -11.4032   19.9080 H   0  0  0  0  0  0
  -29.7564  -11.7198   17.4928 H   0  0  0  0  0  0
  -29.6546  -13.4458   17.7158 H   0  0  0  0  0  0
  -27.8596  -11.2856   18.8728 H   0  0  0  0  0  0
  -27.3698  -12.5663   17.7960 H   0  0  0  0  0  0
  -27.6669  -14.2415   19.5080 H   0  0  0  0  0  0
  -28.7100  -12.0697   21.4010 H   0  0  0  0  0  0
  -28.4411  -13.7319   21.8321 H   0  0  0  0  0  0
  -25.2681   -9.5706   22.4783 H   0  0  0  0  0  0
  -23.9927   -7.4648   22.7491 H   0  0  0  0  0  0
  -21.0770   -8.8758   19.9001 H   0  0  0  0  0  0
  -22.3584  -10.9660   19.6193 H   0  0  0  0  0  0
  -21.2027   -7.6140   23.9696 H   0  0  0  0  0  0
  -21.1488   -6.0494   25.9064 H   0  0  0  0  0  0
  -22.0607   -2.7601   23.2853 H   0  0  0  0  0  0
  -22.3994  -11.9981   22.4903 H   0  0  0  0  0  0
  -21.1063  -13.1389   22.2578 H   0  0  0  0  0  0
  -24.6475  -15.8332   20.5223 H   0  0  0  0  0  0
  -26.2620  -15.6336   20.0604 H   0  0  0  0  0  0
  -26.7246  -32.5399   23.1071 H   0  0  0  0  0  0
  -25.0148  -33.9635   25.0408 H   0  0  0  0  0  0
  -22.7269  -31.3008   21.3965 H   0  0  0  0  0  0
  -23.3722  -35.9633   23.3306 H   0  0  0  0  0  0
  -24.3535  -36.8895   22.2032 H   0  0  0  0  0  0
  -23.7231  -37.6483   23.6654 H   0  0  0  0  0  0
  -26.1153  -31.5246   20.6088 H   0  0  0  0  0  0
  -26.8508  -30.8086   22.0131 H   0  0  0  0  0  0
  -28.1355  -28.9317   21.1616 H   0  0  0  0  0  0
  -25.9662  -25.8919   19.0066 H   0  0  0  0  0  0
  -23.9724  -27.3016   19.0008 H   0  0  0  0  0  0
  -23.7655  -30.5722   19.3978 H   0  0  0  0  0  0
  -22.7631  -29.2325   19.8635 H   0  0  0  0  0  0
  -25.1287  -36.1914   25.0803 H   0  0  0  0  0  0
  -20.9954  -28.3262   24.1408 H   0  0  0  0  0  0
  -20.5773  -26.2263   23.3543 H   0  0  0  0  0  0
  -21.6681  -26.7532   22.1138 H   0  0  0  0  0  0
  -19.6930  -25.6279   21.1229 H   0  0  0  0  0  0
  -19.6747  -27.3160   20.6706 H   0  0  0  0  0  0
  -17.4230  -26.6717   21.3962 H   0  0  0  0  0  0
  -18.0336  -26.0055   22.8951 H   0  0  0  0  0  0
  -19.7957  -30.7276   24.2218 H   0  0  0  0  0  0
  -17.5047  -31.6258   24.5205 H   0  0  0  0  0  0
  -15.5359  -30.2979   23.7723 H   0  0  0  0  0  0
  -15.8674  -28.0858   22.7048 H   0  0  0  0  0  0
  -24.5868  -30.7182   25.7791 H   0  0  0  0  0  0
  -24.8924  -32.3019   26.4819 H   0  0  0  0  0  0
  -25.7979  -30.9049   27.0277 H   0  0  0  0  0  0
  -26.2983  -29.6734   24.1237 H   0  0  0  0  0  0
  -27.3899  -29.7270   25.4903 H   0  0  0  0  0  0
  -27.8937  -30.4187   23.9646 H   0  0  0  0  0  0
  -27.2648  -33.3654   26.2110 H   0  0  0  0  0  0
  -28.3874  -32.6971   25.0359 H   0  0  0  0  0  0
  -28.0750  -31.8505   26.5439 H   0  0  0  0  0  0
  -28.2603  -38.0094   24.7495 H   0  0  0  0  0  0
  -28.1055  -36.2621   24.6298 H   0  0  0  0  0  0
  -27.2272  -37.1471   25.8851 H   0  0  0  0  0  0
  -20.9441  -29.8800   21.6900 H   0  0  0  0  0  0
  -26.0157  -38.2843   24.1422 H   0  0  0  0  0  0
  -27.7102  -17.2802   19.5355 H   0  0  0  0  0  0
  -27.9961  -17.8619   21.1484 H   0  0  0  0  0  0
  -30.5341  -18.1997   21.9071 H   0  0  0  0  0  0
  -31.7718  -17.7910   20.7456 H   0  0  0  0  0  0
  -30.3057  -24.4081   20.3642 H   0  0  0  0  0  0
  -29.6719  -24.0848   22.0138 H   0  0  0  0  0  0
  -27.4097  -19.7412   19.6248 H   0  0  0  0  0  0
  -28.6858  -19.3021   18.5275 H   0  0  0  0  0  0
  -31.0086  -19.5775   19.1982 H   0  0  0  0  0  0
  -31.4042  -20.2344   20.7623 H   0  0  0  0  0  0
  -30.1132  -17.0437   19.0842 H   0  0  0  0  0  0
  -27.9409  -22.5532   21.1428 H   0  0  0  0  0  0
  -27.3833  -24.8937   21.3662 H   0  0  0  0  0  0
  -30.4348  -21.9386   19.5565 H   0  0  0  0  0  0
  -29.0244  -21.5738   18.6608 H   0  0  0  0  0  0
  -28.8712  -15.4463   21.0599 H   0  0  0  0  0  0
  -27.0564  -23.7272   19.3075 H   0  0  0  0  0  0
  -28.5613  -24.1666   18.7279 H   0  0  0  0  0  0
  1 25  1  0  0  0
  1 30  2  0  0  0
  1 81  1  0  0  0
  2  3  1  0  0  0
  2 25  1  0  0  0
  2 83  1  0  0  0
  2 84  1  0  0  0
  3  4  1  0  0  0
  3 85  1  0  0  0
  3 86  1  0  0  0
  4  5  1  0  0  0
  4 87  1  0  0  0
  4 88  1  0  0  0
  5  6  1  0  0  0
  5 26  1  0  0  0
  5 89  1  0  0  0
  6 25  1  0  0  0
  6 90  1  0  0  0
  6 91  1  0  0  0
  7  8  2  0  0  0
  7 26  1  0  0  0
  7 29  1  0  0  0
  8  9  1  0  0  0
  8 22  1  0  0  0
  9 10  1  0  0  0
  9 27  2  0  0  0
 10 11  2  0  0  0
 10 15  1  0  0  0
 11 12  1  0  0  0
 11 92  1  0  0  0
 12 13  2  0  0  0
 12 93  1  0  0  0
 13 14  1  0  0  0
 13 31  1  0  0  0
 14 15  2  0  0  0
 14 94  1  0  0  0
 15 95  1  0  0  0
 16 17  2  0  0  0
 16 21  1  0  0  0
 16 31  1  0  0  0
 17 18  1  0  0  0
 17 96  1  0  0  0
 18 19  2  0  0  0
 18 97  1  0  0  0
 19 20  1  0  0  0
 19 24  1  0  0  0
 20 21  2  0  0  0
 20 98  1  0  0  0
 21 23  1  0  0  0
 22 28  1  0  0  0
 22 32  2  0  0  0
 26 27  1  0  0  0
 28 99  1  0  0  0
 28100  1  0  0  0
 29101  1  0  0  0
 29102  1  0  0  0
 33 34  1  0  0  0
 33 66  1  0  0  0
 33 70  2  0  0  0
 34 36  1  0  0  0
 34 59  1  0  0  0
 34103  1  0  0  0
 35 44  2  0  0  0
 35 45  1  0  0  0
 35 68  1  0  0  0
 36 56  1  0  0  0
 36104  1  0  0  0
 37 39  1  0  0  0
 37 47  1  0  0  0
 37 66  1  0  0  0
 37105  1  0  0  0
 38 43  2  0  0  0
 38 46  1  0  0  0
 38 47  1  0  0  0
 39 64  1  0  0  0
 39 67  2  0  0  0
 40 52  1  0  0  0
 40 53  2  0  0  0
 40 58  1  0  0  0
 41106  1  0  0  0
 41107  1  0  0  0
 41108  1  0  0  0
 41 48  1  0  0  0
 42 43  1  0  0  0
 42 66  1  0  0  0
 42109  1  0  0  0
 42110  1  0  0  0
 43 44  1  0  0  0
 44111  1  0  0  0
 45 46  2  0  0  0
 45112  1  0  0  0
 46113  1  0  0  0
 47114  1  0  0  0
 47115  1  0  0  0
 48 56  1  0  0  0
 48 65  1  0  0  0
 48116  1  0  0  0
 49 50  1  0  0  0
 49 53  1  0  0  0
 49 64  1  0  0  0
 49117  1  0  0  0
 50 51  1  0  0  0
 50118  1  0  0  0
 50119  1  0  0  0
 51 52  1  0  0  0
 51120  1  0  0  0
 51121  1  0  0  0
 52122  1  0  0  0
 52123  1  0  0  0
 53 54  1  0  0  0
 54 55  2  0  0  0
 54124  1  0  0  0
 55 57  1  0  0  0
 55125  1  0  0  0
 56 69  2  0  0  0
 57 58  2  0  0  0
 57126  1  0  0  0
 58127  1  0  0  0
 59 60  1  0  0  0
 59 61  1  0  0  0
 59 62  1  0  0  0
 60128  1  0  0  0
 60129  1  0  0  0
 60130  1  0  0  0
 61131  1  0  0  0
 61132  1  0  0  0
 61133  1  0  0  0
 62134  1  0  0  0
 62135  1  0  0  0
 62136  1  0  0  0
 63 65  1  0  0  0
 63137  1  0  0  0
 63138  1  0  0  0
 63139  1  0  0  0
 64140  1  0  0  0
 65141  1  0  0  0
 68 78  1  0  0  0
 71 74  1  0  0  0
 71 76  1  0  0  0
 71142  1  0  0  0
 71143  1  0  0  0
 72 75  1  0  0  0
 72 76  1  0  0  0
 72144  1  0  0  0
 72145  1  0  0  0
 73 77  1  0  0  0
 73 78  1  0  0  0
 73146  1  0  0  0
 73147  1  0  0  0
 74 80  1  0  0  0
 74148  1  0  0  0
 74149  1  0  0  0
 75 80  1  0  0  0
 75150  1  0  0  0
 75151  1  0  0  0
 76 81  1  0  0  0
 76152  1  0  0  0
 77 79  1  0  0  0
 77 82  1  0  0  0
 77153  1  0  0  0
 78 82  1  0  0  0
 78154  1  0  0  0
 79 80  1  0  0  0
 79155  1  0  0  0
 79156  1  0  0  0
 81157  1  0  0  0
 82158  1  0  0  0
 82159  1  0  0  0
M  CHG  1  82   1
M  ISO  4   1 100  68 101  78 101  81 100
M  END
> <chiral flag>
0

> <version>
0

> <s_m_source_file>
/data/baiqing/PycharmProjects/Reinvent-master-3.2/result/LINK_invent/BTK/process_docking_weight1_custom_sum_contain_oxygen_bond_distance_aromatic_linkinvent_7_9_3/rearranged_h_0133.sdf

> <i_m_source_file_index>
79

> <r_mmod_Potential_Energy-OPLS-2005>
-39.4203605651855

> <r_mmod_Stretch_Energy-OPLS-2005>
100.230323791504

> <r_mmod_Bend_Energy-OPLS-2005>
178.734924316406

> <r_mmod_Torsional_Energy-OPLS-2005>
279.070648193359

> <r_mmod_Improper_Torsional_Energy-OPLS-2005>
6.83553791046143

> <r_mmod_Van_der_Waal_Energy-OPLS-2005>
123.756248474121

> <r_mmod_Electrostatic_Energy-OPLS-2005>
-301.621368408203

> <r_mmod_Solvation_Energy-OPLS-2005>
-491.422180175781

> <b_mmod_Minimization_Converged-OPLS-2005>
0

> <r_mmod_RMS_Derivative-OPLS-2005>
6.40344381332397

$$$$
80
                    3D
 Structure written by MMmdl.
163171  0  0  1  0            999 V2000
  -30.6945  -14.5006   20.5437 C   0  0  0  0  0  0
  -30.4343  -12.3210   19.4123 C   0  0  0  0  0  0
  -29.4958  -12.4962   18.1992 C   0  0  0  0  0  0
  -28.0169  -12.3671   18.6225 C   0  0  0  0  0  0
  -27.6637  -13.2130   19.8736 C   0  0  2  0  0  0
  -28.7135  -13.0062   20.9884 C   0  0  0  0  0  0
  -25.2622  -13.8186   20.5716 C   0  0  0  0  0  0
  -24.1869  -13.0440   20.9189 C   0  0  0  0  0  0
  -24.6438  -11.6932   20.8766 C   0  0  0  0  0  0
  -23.9091  -10.4316   21.0423 C   0  0  0  0  0  0
  -24.3642   -9.4206   21.9182 C   0  0  0  0  0  0
  -23.6312   -8.2232   22.0743 C   0  0  0  0  0  0
  -22.4288   -8.0295   21.3521 C   0  0  0  0  0  0
  -21.9942   -9.0290   20.4628 C   0  0  0  0  0  0
  -22.7277  -10.2172   20.3045 C   0  0  0  0  0  0
  -21.6846   -6.0751   22.5268 C   0  0  0  0  0  0
  -21.4021   -6.5634   23.8217 C   0  0  0  0  0  0
  -21.3678   -5.6774   24.9165 C   0  0  0  0  0  0
  -21.6038   -4.3034   24.7195 C   0  0  0  0  0  0
  -21.8839   -3.8144   23.4306 C   0  0  0  0  0  0
  -21.9214   -4.6980   22.3385 C   0  0  0  0  0  0
  -22.7895  -13.5242   21.1835 C   0  0  0  0  0  0
  -22.1672   -4.2182   21.0948 F   0  0  0  0  0  0
  -21.5642   -3.4505   25.7697 F   0  0  0  0  0  0
  -30.0384  -13.3160   20.4238 N   0  0  0  0  0  0
  -26.3064  -12.9363   20.3406 N   0  0  0  0  0  0
  -25.9362  -11.6508   20.5781 N   0  0  0  0  0  0
  -22.0508  -12.8238   22.0399 N   0  0  0  0  0  0
  -25.4314  -15.1903   20.4172 N   0  0  0  0  0  0
  -31.8377  -14.6790   20.1144 O   0  0  0  0  0  0
  -21.6609   -6.8908   21.4241 O   0  0  0  0  0  0
  -22.3607  -14.5544   20.6674 O   0  0  0  0  0  0
  -24.6149  -31.8694   23.2063 C   0  0  0  0  0  0
  -25.9045  -32.4826   23.8387 C   0  0  1  0  0  0
  -27.2419  -27.4385   20.0799 C   0  0  0  0  0  0
  -25.5898  -33.8618   24.2317 N   0  0  0  0  0  0
  -23.4020  -30.4918   21.5455 C   0  0  2  0  0  0
  -24.8448  -28.9487   20.1154 C   0  0  0  0  0  0
  -22.7430  -29.4682   22.4974 C   0  0  0  0  0  0
  -18.0288  -28.1413   22.8505 C   0  0  0  0  0  0
  -24.1473  -36.7315   23.2634 C   0  0  0  0  0  0
  -25.9271  -30.8376   21.3525 C   0  0  0  0  0  0
  -26.0026  -29.4652   20.7079 C   0  0  0  0  0  0
  -27.1976  -28.7141   20.6924 C   0  0  0  0  0  0
  -26.0535  -26.9148   19.5239 C   0  0  0  0  0  0
  -24.8642  -27.6705   19.5258 C   0  0  0  0  0  0
  -23.6114  -29.8210   20.1602 C   0  0  0  0  0  0
  -25.4098  -36.3110   24.0339 C   0  0  1  0  0  0
  -20.5871  -28.3707   23.1331 C   0  0  2  0  0  0
  -20.6767  -26.9447   22.5440 C   0  0  0  0  0  0
  -19.5742  -26.6424   21.5229 C   0  0  0  0  0  0
  -18.1933  -26.7965   22.1626 C   0  0  0  0  0  0
  -19.1522  -28.8873   23.2939 C   0  0  0  0  0  0
  -18.9452  -30.1473   23.8971 C   0  0  0  0  0  0
  -17.6447  -30.6614   24.0605 C   0  0  0  0  0  0
  -25.9038  -34.9473   23.5132 C   0  0  0  0  0  0
  -16.5353  -29.9122   23.6314 C   0  0  0  0  0  0
  -16.7280  -28.6541   23.0337 C   0  0  0  0  0  0
  -26.4467  -31.6600   25.0713 C   0  0  0  0  0  0
  -25.3742  -31.3696   26.1463 C   0  0  0  0  0  0
  -27.0269  -30.3053   24.6041 C   0  0  0  0  0  0
  -27.6067  -32.4308   25.7461 C   0  0  0  0  0  0
  -27.5578  -37.1804   24.8474 C   0  0  0  0  0  0
  -21.4157  -29.3064   22.3734 N   0  0  0  0  0  0
  -26.4276  -37.3796   23.9424 N   0  0  0  0  0  0
  -24.6665  -31.0824   22.0938 N   0  0  0  0  0  0
  -23.4209  -28.8239   23.3021 O   0  0  0  0  0  0
  -28.4512  -26.7703   20.0634 O   0  0  0  0  0  0
  -26.5609  -34.8932   22.4691 O   0  0  0  0  0  0
  -23.5347  -32.1454   23.7461 O   0  0  0  0  0  0
  -28.8154  -23.9890   20.9291 C   0  0  0  0  0  0
  -28.7430  -22.6676   21.4180 C   0  0  0  0  0  0
  -28.4834  -24.2844   19.5879 C   0  0  0  0  0  0
  -28.0704  -23.1699   18.7953 C   0  0  0  0  0  0
  -28.3935  -21.6305   20.5392 C   0  0  0  0  0  0
  -27.5650  -23.2800   17.3676 C   0  0  0  0  0  0
  -28.4848  -26.1723   17.6489 C   0  0  0  0  0  0
  -29.9982  -19.7402   22.6306 C   0  0  0  0  0  0
  -29.1655  -17.9447   20.9875 C   0  0  0  0  0  0
  -30.3672  -16.9453   21.0924 C   0  0  0  0  0  0
  -28.7598  -25.7377   19.1069 C   0  0  1  0  0  0
  -29.4727  -19.4714   21.2020 C   0  0  1  0  0  0
  -28.0595  -21.8904   19.2612 N   0  0  0  0  0  0
  -28.2700  -20.2918   20.9600 N   0  0  0  0  0  0
  -29.9569  -15.5279   21.0099 N   0  0  0  0  0  0
  -31.4749  -12.4320   19.0977 H   0  0  0  0  0  0
  -30.3551  -11.3145   19.8248 H   0  0  0  0  0  0
  -29.7305  -11.7509   17.4371 H   0  0  0  0  0  0
  -29.6637  -13.4671   17.7316 H   0  0  0  0  0  0
  -27.8284  -11.3148   18.8333 H   0  0  0  0  0  0
  -27.3616  -12.6379   17.7937 H   0  0  0  0  0  0
  -27.6983  -14.2594   19.5675 H   0  0  0  0  0  0
  -28.6978  -11.9722   21.3324 H   0  0  0  0  0  0
  -28.4858  -13.6148   21.8683 H   0  0  0  0  0  0
  -25.2814   -9.5648   22.4728 H   0  0  0  0  0  0
  -24.0040   -7.4606   22.7444 H   0  0  0  0  0  0
  -21.0885   -8.8817   19.8919 H   0  0  0  0  0  0
  -22.3772  -10.9712   19.6132 H   0  0  0  0  0  0
  -21.1980   -7.6139   23.9745 H   0  0  0  0  0  0
  -21.1489   -6.0458   25.9075 H   0  0  0  0  0  0
  -22.0608   -2.7609   23.2756 H   0  0  0  0  0  0
  -22.4102  -11.9936   22.4869 H   0  0  0  0  0  0
  -21.1118  -13.1277   22.2544 H   0  0  0  0  0  0
  -24.6629  -15.8426   20.5228 H   0  0  0  0  0  0
  -26.2819  -15.6301   20.0896 H   0  0  0  0  0  0
  -26.7129  -32.5544   23.1171 H   0  0  0  0  0  0
  -25.0051  -33.9780   25.0463 H   0  0  0  0  0  0
  -22.6874  -31.3055   21.4066 H   0  0  0  0  0  0
  -23.3732  -35.9653   23.3282 H   0  0  0  0  0  0
  -24.3575  -36.8942   22.2054 H   0  0  0  0  0  0
  -23.7224  -37.6516   23.6654 H   0  0  0  0  0  0
  -26.0310  -31.5978   20.5763 H   0  0  0  0  0  0
  -26.8192  -30.8990   21.9661 H   0  0  0  0  0  0
  -28.0967  -29.1214   21.1348 H   0  0  0  0  0  0
  -26.0397  -25.9270   19.0865 H   0  0  0  0  0  0
  -23.9685  -27.2602   19.0773 H   0  0  0  0  0  0
  -23.7268  -30.5962   19.4005 H   0  0  0  0  0  0
  -22.7319  -29.2489   19.8610 H   0  0  0  0  0  0
  -25.1252  -36.1962   25.0835 H   0  0  0  0  0  0
  -20.9953  -28.3228   24.1458 H   0  0  0  0  0  0
  -20.5708  -26.2328   23.3648 H   0  0  0  0  0  0
  -21.6624  -26.7498   22.1192 H   0  0  0  0  0  0
  -19.6925  -25.6358   21.1238 H   0  0  0  0  0  0
  -19.6654  -27.3249   20.6787 H   0  0  0  0  0  0
  -17.4190  -26.6774   21.4032 H   0  0  0  0  0  0
  -18.0292  -26.0107   22.9005 H   0  0  0  0  0  0
  -19.7926  -30.7300   24.2355 H   0  0  0  0  0  0
  -17.5001  -31.6286   24.5223 H   0  0  0  0  0  0
  -15.5349  -30.3029   23.7600 H   0  0  0  0  0  0
  -15.8712  -28.0859   22.6981 H   0  0  0  0  0  0
  -24.5962  -30.6973   25.7819 H   0  0  0  0  0  0
  -24.8864  -32.2829   26.4887 H   0  0  0  0  0  0
  -25.8114  -30.8927   27.0243 H   0  0  0  0  0  0
  -26.2779  -29.6846   24.1108 H   0  0  0  0  0  0
  -27.4068  -29.7254   25.4458 H   0  0  0  0  0  0
  -27.8599  -30.4378   23.9135 H   0  0  0  0  0  0
  -27.2729  -33.3629   26.2040 H   0  0  0  0  0  0
  -28.3875  -32.6840   25.0272 H   0  0  0  0  0  0
  -28.0743  -31.8428   26.5376 H   0  0  0  0  0  0
  -28.2601  -38.0100   24.7528 H   0  0  0  0  0  0
  -28.1060  -36.2631   24.6256 H   0  0  0  0  0  0
  -27.2311  -37.1411   25.8883 H   0  0  0  0  0  0
  -20.9311  -29.8818   21.6972 H   0  0  0  0  0  0
  -26.0158  -38.2871   24.1426 H   0  0  0  0  0  0
  -29.1502  -24.7762   21.5906 H   0  0  0  0  0  0
  -28.9684  -22.4757   22.4575 H   0  0  0  0  0  0
  -28.3850  -23.4669   16.6765 H   0  0  0  0  0  0
  -26.8116  -24.0614   17.2751 H   0  0  0  0  0  0
  -27.0837  -22.3546   17.0473 H   0  0  0  0  0  0
  -29.0346  -25.5682   16.9280 H   0  0  0  0  0  0
  -28.8260  -27.1964   17.5004 H   0  0  0  0  0  0
  -27.4331  -26.1593   17.3775 H   0  0  0  0  0  0
  -30.7957  -19.0572   22.9134 H   0  0  0  0  0  0
  -29.2119  -19.6316   23.3809 H   0  0  0  0  0  0
  -30.4206  -20.7418   22.7307 H   0  0  0  0  0  0
  -28.3912  -17.6431   21.6924 H   0  0  0  0  0  0
  -28.7180  -17.8161   19.9999 H   0  0  0  0  0  0
  -30.8908  -17.0632   22.0409 H   0  0  0  0  0  0
  -31.0974  -17.1706   20.3136 H   0  0  0  0  0  0
  -29.8497  -25.7531   19.1408 H   0  0  0  0  0  0
  -30.2413  -19.7693   20.4851 H   0  0  0  0  0  0
  -27.6668  -20.2345   21.7737 H   0  0  0  0  0  0
  -29.0194  -15.3023   21.3037 H   0  0  0  0  0  0
  1 25  1  0  0  0
  1 30  2  0  0  0
  1 85  1  0  0  0
  2  3  1  0  0  0
  2 25  1  0  0  0
  2 86  1  0  0  0
  2 87  1  0  0  0
  3  4  1  0  0  0
  3 88  1  0  0  0
  3 89  1  0  0  0
  4  5  1  0  0  0
  4 90  1  0  0  0
  4 91  1  0  0  0
  5  6  1  0  0  0
  5 26  1  0  0  0
  5 92  1  0  0  0
  6 25  1  0  0  0
  6 93  1  0  0  0
  6 94  1  0  0  0
  7  8  2  0  0  0
  7 26  1  0  0  0
  7 29  1  0  0  0
  8  9  1  0  0  0
  8 22  1  0  0  0
  9 10  1  0  0  0
  9 27  2  0  0  0
 10 11  2  0  0  0
 10 15  1  0  0  0
 11 12  1  0  0  0
 11 95  1  0  0  0
 12 13  2  0  0  0
 12 96  1  0  0  0
 13 14  1  0  0  0
 13 31  1  0  0  0
 14 15  2  0  0  0
 14 97  1  0  0  0
 15 98  1  0  0  0
 16 17  2  0  0  0
 16 21  1  0  0  0
 16 31  1  0  0  0
 17 18  1  0  0  0
 17 99  1  0  0  0
 18 19  2  0  0  0
 18100  1  0  0  0
 19 20  1  0  0  0
 19 24  1  0  0  0
 20 21  2  0  0  0
 20101  1  0  0  0
 21 23  1  0  0  0
 22 28  1  0  0  0
 22 32  2  0  0  0
 26 27  1  0  0  0
 28102  1  0  0  0
 28103  1  0  0  0
 29104  1  0  0  0
 29105  1  0  0  0
 33 34  1  0  0  0
 33 66  1  0  0  0
 33 70  2  0  0  0
 34 36  1  0  0  0
 34 59  1  0  0  0
 34106  1  0  0  0
 35 44  2  0  0  0
 35 45  1  0  0  0
 35 68  1  0  0  0
 36 56  1  0  0  0
 36107  1  0  0  0
 37 39  1  0  0  0
 37 47  1  0  0  0
 37 66  1  0  0  0
 37108  1  0  0  0
 38 43  2  0  0  0
 38 46  1  0  0  0
 38 47  1  0  0  0
 39 64  1  0  0  0
 39 67  2  0  0  0
 40 52  1  0  0  0
 40 53  2  0  0  0
 40 58  1  0  0  0
 41109  1  0  0  0
 41110  1  0  0  0
 41111  1  0  0  0
 41 48  1  0  0  0
 42 43  1  0  0  0
 42 66  1  0  0  0
 42112  1  0  0  0
 42113  1  0  0  0
 43 44  1  0  0  0
 44114  1  0  0  0
 45 46  2  0  0  0
 45115  1  0  0  0
 46116  1  0  0  0
 47117  1  0  0  0
 47118  1  0  0  0
 48 56  1  0  0  0
 48 65  1  0  0  0
 48119  1  0  0  0
 49 50  1  0  0  0
 49 53  1  0  0  0
 49 64  1  0  0  0
 49120  1  0  0  0
 50 51  1  0  0  0
 50121  1  0  0  0
 50122  1  0  0  0
 51 52  1  0  0  0
 51123  1  0  0  0
 51124  1  0  0  0
 52125  1  0  0  0
 52126  1  0  0  0
 53 54  1  0  0  0
 54 55  2  0  0  0
 54127  1  0  0  0
 55 57  1  0  0  0
 55128  1  0  0  0
 56 69  2  0  0  0
 57 58  2  0  0  0
 57129  1  0  0  0
 58130  1  0  0  0
 59 60  1  0  0  0
 59 61  1  0  0  0
 59 62  1  0  0  0
 60131  1  0  0  0
 60132  1  0  0  0
 60133  1  0  0  0
 61134  1  0  0  0
 61135  1  0  0  0
 61136  1  0  0  0
 62137  1  0  0  0
 62138  1  0  0  0
 62139  1  0  0  0
 63 65  1  0  0  0
 63140  1  0  0  0
 63141  1  0  0  0
 63142  1  0  0  0
 64143  1  0  0  0
 65144  1  0  0  0
 68 81  1  0  0  0
 71 72  2  0  0  0
 71 73  1  0  0  0
 71145  1  0  0  0
 72 75  1  0  0  0
 72146  1  0  0  0
 73 74  2  0  0  0
 73 81  1  0  0  0
 74 76  1  0  0  0
 74 83  1  0  0  0
 75 83  2  0  0  0
 75 84  1  0  0  0
 76147  1  0  0  0
 76148  1  0  0  0
 76149  1  0  0  0
 77150  1  0  0  0
 77151  1  0  0  0
 77152  1  0  0  0
 77 81  1  0  0  0
 78153  1  0  0  0
 78154  1  0  0  0
 78155  1  0  0  0
 78 82  1  0  0  0
 79 80  1  0  0  0
 79 82  1  0  0  0
 79156  1  0  0  0
 79157  1  0  0  0
 80 85  1  0  0  0
 80158  1  0  0  0
 80159  1  0  0  0
 81160  1  0  0  0
 82 84  1  0  0  0
 82161  1  0  0  0
 84162  1  0  0  0
 85163  1  0  0  0
M  ISO  4   1 100  68 101  81 101  85 100
M  END
> <chiral flag>
0

> <version>
0

> <s_m_source_file>
/data/baiqing/PycharmProjects/Reinvent-master-3.2/result/LINK_invent/BTK/process_docking_weight1_custom_sum_contain_oxygen_bond_distance_aromatic_linkinvent_7_9_3/rearranged_h_0133.sdf

> <i_m_source_file_index>
80

> <r_mmod_Potential_Energy-OPLS-2005>
-196.496353149414

> <r_mmod_Stretch_Energy-OPLS-2005>
45.4561576843262

> <r_mmod_Bend_Energy-OPLS-2005>
142.636672973633

> <r_mmod_Torsional_Energy-OPLS-2005>
231.219711303711

> <r_mmod_Improper_Torsional_Energy-OPLS-2005>
9.66628456115723

> <r_mmod_Van_der_Waal_Energy-OPLS-2005>
154.551681518555

> <r_mmod_Electrostatic_Energy-OPLS-2005>
-561.938659667969

> <r_mmod_Solvation_Energy-OPLS-2005>
-233.155731201172

> <b_mmod_Minimization_Converged-OPLS-2005>
0

> <r_mmod_RMS_Derivative-OPLS-2005>
4.09281396865845

$$$$
81
                    3D
 Structure written by MMmdl.
157166  0  0  1  0            999 V2000
  -30.5408  -14.9465   20.4156 C   0  0  0  0  0  0
  -30.4382  -12.5886   19.4896 C   0  0  0  0  0  0
  -29.5184  -12.5246   18.2491 C   0  0  0  0  0  0
  -28.0516  -12.3107   18.6691 C   0  0  0  0  0  0
  -27.6263  -13.2464   19.8319 C   0  0  2  0  0  0
  -28.6689  -13.2798   20.9682 C   0  0  0  0  0  0
  -25.2456  -13.8209   20.5693 C   0  0  0  0  0  0
  -24.1777  -13.0435   20.9228 C   0  0  0  0  0  0
  -24.6387  -11.6921   20.8736 C   0  0  0  0  0  0
  -23.9069  -10.4292   21.0398 C   0  0  0  0  0  0
  -24.3620   -9.4207   21.9177 C   0  0  0  0  0  0
  -23.6300   -8.2237   22.0741 C   0  0  0  0  0  0
  -22.4277   -8.0273   21.3536 C   0  0  0  0  0  0
  -21.9916   -9.0242   20.4633 C   0  0  0  0  0  0
  -22.7240  -10.2128   20.3047 C   0  0  0  0  0  0
  -21.6856   -6.0732   22.5283 C   0  0  0  0  0  0
  -21.4017   -6.5638   23.8214 C   0  0  0  0  0  0
  -21.3659   -5.6792   24.9179 C   0  0  0  0  0  0
  -21.6044   -4.3051   24.7232 C   0  0  0  0  0  0
  -21.8818   -3.8142   23.4354 C   0  0  0  0  0  0
  -21.9197   -4.6959   22.3410 C   0  0  0  0  0  0
  -22.7794  -13.5201   21.1902 C   0  0  0  0  0  0
  -22.1663   -4.2144   21.0987 F   0  0  0  0  0  0
  -21.5630   -3.4539   25.7746 F   0  0  0  0  0  0
  -29.9415  -13.6904   20.3620 N   0  0  0  0  0  0
  -26.2865  -12.9437   20.3209 N   0  0  0  0  0  0
  -25.9319  -11.6569   20.5713 N   0  0  0  0  0  0
  -22.0449  -12.8172   22.0449 N   0  0  0  0  0  0
  -25.4124  -15.1935   20.4099 N   0  0  0  0  0  0
  -31.7535  -15.0007   20.1868 O   0  0  0  0  0  0
  -21.6639   -6.8871   21.4238 O   0  0  0  0  0  0
  -22.3479  -14.5510   20.6757 O   0  0  0  0  0  0
  -24.6442  -31.8440   23.1853 C   0  0  0  0  0  0
  -25.9229  -32.4688   23.8230 C   0  0  1  0  0  0
  -27.2157  -27.1320   20.1518 C   0  0  0  0  0  0
  -25.5992  -33.8486   24.2183 N   0  0  0  0  0  0
  -23.4442  -30.4603   21.5326 C   0  0  2  0  0  0
  -24.8920  -28.8766   20.1153 C   0  0  0  0  0  0
  -22.7555  -29.4540   22.4867 C   0  0  0  0  0  0
  -18.0309  -28.1394   22.8476 C   0  0  0  0  0  0
  -24.1491  -36.7233   23.2632 C   0  0  0  0  0  0
  -25.9982  -30.7142   21.3831 C   0  0  0  0  0  0
  -26.0679  -29.3209   20.7328 C   0  0  0  0  0  0
  -27.2296  -28.4630   20.7340 C   0  0  0  0  0  0
  -26.0152  -26.7808   19.5028 C   0  0  0  0  0  0
  -24.8779  -27.6200   19.4871 C   0  0  0  0  0  0
  -23.6687  -29.7819   20.1549 C   0  0  0  0  0  0
  -25.4125  -36.3015   24.0314 C   0  0  1  0  0  0
  -20.5908  -28.3715   23.1239 C   0  0  2  0  0  0
  -20.6777  -26.9416   22.5403 C   0  0  0  0  0  0
  -19.5758  -26.6376   21.5197 C   0  0  0  0  0  0
  -18.1945  -26.7942   22.1610 C   0  0  0  0  0  0
  -19.1558  -28.8879   23.2853 C   0  0  0  0  0  0
  -18.9478  -30.1477   23.8872 C   0  0  0  0  0  0
  -17.6469  -30.6596   24.0556 C   0  0  0  0  0  0
  -25.9083  -34.9398   23.5047 C   0  0  0  0  0  0
  -16.5361  -29.9076   23.6341 C   0  0  0  0  0  0
  -16.7291  -28.6499   23.0365 C   0  0  0  0  0  0
  -26.4549  -31.6559   25.0678 C   0  0  0  0  0  0
  -25.3739  -31.3766   26.1386 C   0  0  0  0  0  0
  -27.0418  -30.2953   24.6257 C   0  0  0  0  0  0
  -27.6077  -32.4327   25.7482 C   0  0  0  0  0  0
  -27.5578  -37.1769   24.8464 C   0  0  0  0  0  0
  -21.4250  -29.3045   22.3613 N   0  0  0  0  0  0
  -26.4286  -37.3734   23.9414 N   0  0  0  0  0  0
  -24.7155  -31.0276   22.0888 N   0  0  0  0  0  0
  -23.4208  -28.8097   23.3028 O   0  0  0  0  0  0
  -28.3077  -26.1972   20.1310 O   0  0  0  0  0  0
  -26.5633  -34.8902   22.4610 O   0  0  0  0  0  0
  -23.5566  -32.1337   23.7072 O   0  0  0  0  0  0
  -27.7120  -22.6070   21.5497 C   0  0  0  0  0  0
  -27.6014  -24.0332   21.3208 C   0  0  0  0  0  0
  -29.0423  -23.7979   19.4560 C   0  0  0  0  0  0
  -28.4979  -21.7069   20.7554 C   0  0  0  0  0  0
  -29.1482  -22.3478   19.6755 C   0  0  0  0  0  0
  -28.2707  -24.7298   20.2675 C   0  0  0  0  0  0
  -28.6527  -20.1231   21.0777 C   0  0  0  0  0  0
  -29.9410  -21.4002   18.7533 C   0  0  0  0  0  0
  -30.4176  -20.0115   19.3567 C   0  0  0  0  0  0
  -29.3831  -19.0549   20.0664 C   0  0  2  0  0  0
  -28.3477  -18.5689   19.0390 C   0  0  0  0  0  0
  -30.1782  -17.6639   20.6483 C   0  0  0  0  0  0
  -29.7687  -16.1395   20.5223 N   0  0  0  0  0  0
  -31.4709  -12.7501   19.1752 H   0  0  0  0  0  0
  -30.4334  -11.6388   20.0277 H   0  0  0  0  0  0
  -29.8375  -11.7232   17.5813 H   0  0  0  0  0  0
  -29.6056  -13.4517   17.6807 H   0  0  0  0  0  0
  -27.9472  -11.2696   18.9767 H   0  0  0  0  0  0
  -27.3889  -12.4401   17.8125 H   0  0  0  0  0  0
  -27.5876  -14.2473   19.4019 H   0  0  0  0  0  0
  -28.7571  -12.3060   21.4524 H   0  0  0  0  0  0
  -28.3682  -13.9862   21.7441 H   0  0  0  0  0  0
  -25.2765   -9.5691   22.4754 H   0  0  0  0  0  0
  -24.0019   -7.4626   22.7454 H   0  0  0  0  0  0
  -21.0852   -8.8755   19.8931 H   0  0  0  0  0  0
  -22.3693  -10.9663   19.6153 H   0  0  0  0  0  0
  -21.2000   -7.6145   23.9720 H   0  0  0  0  0  0
  -21.1483   -6.0519   25.9083 H   0  0  0  0  0  0
  -22.0597   -2.7602   23.2860 H   0  0  0  0  0  0
  -22.4091  -11.9848   22.4843 H   0  0  0  0  0  0
  -21.1045  -13.1158   22.2632 H   0  0  0  0  0  0
  -24.6399  -15.8423   20.5174 H   0  0  0  0  0  0
  -26.2488  -15.6310   20.0459 H   0  0  0  0  0  0
  -26.7288  -32.5301   23.0950 H   0  0  0  0  0  0
  -25.0202  -33.9596   25.0368 H   0  0  0  0  0  0
  -22.7479  -31.2868   21.3766 H   0  0  0  0  0  0
  -23.3763  -35.9552   23.3290 H   0  0  0  0  0  0
  -24.3561  -36.8866   22.2043 H   0  0  0  0  0  0
  -23.7241  -37.6425   23.6672 H   0  0  0  0  0  0
  -26.1527  -31.4656   20.6065 H   0  0  0  0  0  0
  -26.8670  -30.7654   22.0268 H   0  0  0  0  0  0
  -28.1346  -28.8029   21.2157 H   0  0  0  0  0  0
  -25.9477  -25.8172   19.0186 H   0  0  0  0  0  0
  -23.9786  -27.2778   18.9934 H   0  0  0  0  0  0
  -23.8053  -30.5514   19.3951 H   0  0  0  0  0  0
  -22.7824  -29.2231   19.8479 H   0  0  0  0  0  0
  -25.1302  -36.1827   25.0799 H   0  0  0  0  0  0
  -21.0015  -28.3316   24.1348 H   0  0  0  0  0  0
  -20.5654  -26.2315   23.3611 H   0  0  0  0  0  0
  -21.6645  -26.7419   22.1197 H   0  0  0  0  0  0
  -19.6906  -25.6277   21.1244 H   0  0  0  0  0  0
  -19.6702  -27.3166   20.6711 H   0  0  0  0  0  0
  -17.4202  -26.6694   21.4024 H   0  0  0  0  0  0
  -18.0356  -26.0085   22.9007 H   0  0  0  0  0  0
  -19.7956  -30.7312   24.2208 H   0  0  0  0  0  0
  -17.5023  -31.6279   24.5160 H   0  0  0  0  0  0
  -15.5361  -30.2963   23.7685 H   0  0  0  0  0  0
  -15.8692  -28.0808   22.7085 H   0  0  0  0  0  0
  -24.5934  -30.7090   25.7722 H   0  0  0  0  0  0
  -24.8932  -32.2956   26.4747 H   0  0  0  0  0  0
  -25.8038  -30.9003   27.0207 H   0  0  0  0  0  0
  -26.3040  -29.6672   24.1258 H   0  0  0  0  0  0
  -27.4025  -29.7257   25.4833 H   0  0  0  0  0  0
  -27.8933  -30.4181   23.9560 H   0  0  0  0  0  0
  -27.2664  -33.3636   26.2019 H   0  0  0  0  0  0
  -28.3916  -32.6879   25.0339 H   0  0  0  0  0  0
  -28.0704  -31.8487   26.5449 H   0  0  0  0  0  0
  -28.2571  -38.0092   24.7533 H   0  0  0  0  0  0
  -28.1100  -36.2621   24.6259 H   0  0  0  0  0  0
  -27.2294  -37.1371   25.8866 H   0  0  0  0  0  0
  -20.9458  -29.8736   21.6768 H   0  0  0  0  0  0
  -26.0147  -38.2787   24.1460 H   0  0  0  0  0  0
  -27.1738  -22.1955   22.3917 H   0  0  0  0  0  0
  -27.0034  -24.6124   22.0096 H   0  0  0  0  0  0
  -29.5994  -24.2170   18.6297 H   0  0  0  0  0  0
  -27.6647  -19.7441   21.3424 H   0  0  0  0  0  0
  -29.2144  -20.0930   22.0116 H   0  0  0  0  0  0
  -30.8128  -21.9405   18.3823 H   0  0  0  0  0  0
  -29.3202  -21.2070   17.8781 H   0  0  0  0  0  0
  -31.1995  -20.2372   20.0844 H   0  0  0  0  0  0
  -30.9238  -19.4581   18.5641 H   0  0  0  0  0  0
  -27.8309  -19.4018   18.5621 H   0  0  0  0  0  0
  -27.5881  -17.9455   19.5120 H   0  0  0  0  0  0
  -28.8183  -17.9760   18.2534 H   0  0  0  0  0  0
  -30.3754  -17.8325   21.7075 H   0  0  0  0  0  0
  -31.1752  -17.6851   20.2043 H   0  0  0  0  0  0
  -28.7789  -15.9695   20.6146 H   0  0  0  0  0  0
  1 25  1  0  0  0
  1 30  2  0  0  0
  1 83  1  0  0  0
  2  3  1  0  0  0
  2 25  1  0  0  0
  2 84  1  0  0  0
  2 85  1  0  0  0
  3  4  1  0  0  0
  3 86  1  0  0  0
  3 87  1  0  0  0
  4  5  1  0  0  0
  4 88  1  0  0  0
  4 89  1  0  0  0
  5  6  1  0  0  0
  5 26  1  0  0  0
  5 90  1  0  0  0
  6 25  1  0  0  0
  6 91  1  0  0  0
  6 92  1  0  0  0
  7  8  2  0  0  0
  7 26  1  0  0  0
  7 29  1  0  0  0
  8  9  1  0  0  0
  8 22  1  0  0  0
  9 10  1  0  0  0
  9 27  2  0  0  0
 10 11  2  0  0  0
 10 15  1  0  0  0
 11 12  1  0  0  0
 11 93  1  0  0  0
 12 13  2  0  0  0
 12 94  1  0  0  0
 13 14  1  0  0  0
 13 31  1  0  0  0
 14 15  2  0  0  0
 14 95  1  0  0  0
 15 96  1  0  0  0
 16 17  2  0  0  0
 16 21  1  0  0  0
 16 31  1  0  0  0
 17 18  1  0  0  0
 17 97  1  0  0  0
 18 19  2  0  0  0
 18 98  1  0  0  0
 19 20  1  0  0  0
 19 24  1  0  0  0
 20 21  2  0  0  0
 20 99  1  0  0  0
 21 23  1  0  0  0
 22 28  1  0  0  0
 22 32  2  0  0  0
 26 27  1  0  0  0
 28100  1  0  0  0
 28101  1  0  0  0
 29102  1  0  0  0
 29103  1  0  0  0
 33 34  1  0  0  0
 33 66  1  0  0  0
 33 70  2  0  0  0
 34 36  1  0  0  0
 34 59  1  0  0  0
 34104  1  0  0  0
 35 44  2  0  0  0
 35 45  1  0  0  0
 35 68  1  0  0  0
 36 56  1  0  0  0
 36105  1  0  0  0
 37 39  1  0  0  0
 37 47  1  0  0  0
 37 66  1  0  0  0
 37106  1  0  0  0
 38 43  2  0  0  0
 38 46  1  0  0  0
 38 47  1  0  0  0
 39 64  1  0  0  0
 39 67  2  0  0  0
 40 52  1  0  0  0
 40 53  2  0  0  0
 40 58  1  0  0  0
 41107  1  0  0  0
 41108  1  0  0  0
 41109  1  0  0  0
 41 48  1  0  0  0
 42 43  1  0  0  0
 42 66  1  0  0  0
 42110  1  0  0  0
 42111  1  0  0  0
 43 44  1  0  0  0
 44112  1  0  0  0
 45 46  2  0  0  0
 45113  1  0  0  0
 46114  1  0  0  0
 47115  1  0  0  0
 47116  1  0  0  0
 48 56  1  0  0  0
 48 65  1  0  0  0
 48117  1  0  0  0
 49 50  1  0  0  0
 49 53  1  0  0  0
 49 64  1  0  0  0
 49118  1  0  0  0
 50 51  1  0  0  0
 50119  1  0  0  0
 50120  1  0  0  0
 51 52  1  0  0  0
 51121  1  0  0  0
 51122  1  0  0  0
 52123  1  0  0  0
 52124  1  0  0  0
 53 54  1  0  0  0
 54 55  2  0  0  0
 54125  1  0  0  0
 55 57  1  0  0  0
 55126  1  0  0  0
 56 69  2  0  0  0
 57 58  2  0  0  0
 57127  1  0  0  0
 58128  1  0  0  0
 59 60  1  0  0  0
 59 61  1  0  0  0
 59 62  1  0  0  0
 60129  1  0  0  0
 60130  1  0  0  0
 60131  1  0  0  0
 61132  1  0  0  0
 61133  1  0  0  0
 61134  1  0  0  0
 62135  1  0  0  0
 62136  1  0  0  0
 62137  1  0  0  0
 63 65  1  0  0  0
 63138  1  0  0  0
 63139  1  0  0  0
 63140  1  0  0  0
 64141  1  0  0  0
 65142  1  0  0  0
 68 76  1  0  0  0
 71 72  2  0  0  0
 71 74  1  0  0  0
 71143  1  0  0  0
 72 76  1  0  0  0
 72144  1  0  0  0
 73 75  1  0  0  0
 73 76  2  0  0  0
 73145  1  0  0  0
 74 75  2  0  0  0
 74 77  1  0  0  0
 75 78  1  0  0  0
 77 80  1  0  0  0
 77146  1  0  0  0
 77147  1  0  0  0
 78 79  1  0  0  0
 78148  1  0  0  0
 78149  1  0  0  0
 79 80  1  0  0  0
 79150  1  0  0  0
 79151  1  0  0  0
 80 81  1  0  0  0
 80 82  1  0  0  0
 81152  1  0  0  0
 81153  1  0  0  0
 81154  1  0  0  0
 82 83  1  0  0  0
 82155  1  0  0  0
 82156  1  0  0  0
 83157  1  0  0  0
M  ISO  4   1 100  68 101  76 101  83 100
M  END
> <chiral flag>
0

> <version>
0

> <s_m_source_file>
/data/baiqing/PycharmProjects/Reinvent-master-3.2/result/LINK_invent/BTK/process_docking_weight1_custom_sum_contain_oxygen_bond_distance_aromatic_linkinvent_7_9_3/rearranged_h_0133.sdf

> <i_m_source_file_index>
81

> <r_mmod_Potential_Energy-OPLS-2005>
431.983337402344

> <r_mmod_Stretch_Energy-OPLS-2005>
223.493911743164

> <r_mmod_Bend_Energy-OPLS-2005>
249.157455444336

> <r_mmod_Torsional_Energy-OPLS-2005>
238.730346679688

> <r_mmod_Improper_Torsional_Energy-OPLS-2005>
4.86295700073242

> <r_mmod_Van_der_Waal_Energy-OPLS-2005>
126.748168945312

> <r_mmod_Electrostatic_Energy-OPLS-2005>
-393.379699707031

> <r_mmod_Solvation_Energy-OPLS-2005>
-203.892944335938

> <b_mmod_Minimization_Converged-OPLS-2005>
0

> <r_mmod_RMS_Derivative-OPLS-2005>
2.08808279037476

$$$$
82
                    3D
 Structure written by MMmdl.
166175  0  0  1  0            999 V2000
  -30.7853  -14.3470   20.7189 C   0  0  0  0  0  0
  -30.4146  -12.3048   19.3805 C   0  0  0  0  0  0
  -29.4723  -12.5228   18.1827 C   0  0  0  0  0  0
  -28.0025  -12.3706   18.6124 C   0  0  0  0  0  0
  -27.6634  -13.2033   19.8745 C   0  0  2  0  0  0
  -28.7018  -12.9535   20.9893 C   0  0  0  0  0  0
  -25.2611  -13.8165   20.5682 C   0  0  0  0  0  0
  -24.1848  -13.0445   20.9171 C   0  0  0  0  0  0
  -24.6388  -11.6909   20.8719 C   0  0  0  0  0  0
  -23.9046  -10.4295   21.0398 C   0  0  0  0  0  0
  -24.3604   -9.4217   21.9185 C   0  0  0  0  0  0
  -23.6280   -8.2248   22.0757 C   0  0  0  0  0  0
  -22.4265   -8.0278   21.3545 C   0  0  0  0  0  0
  -21.9901   -9.0253   20.4643 C   0  0  0  0  0  0
  -22.7222  -10.2129   20.3051 C   0  0  0  0  0  0
  -21.6843   -6.0727   22.5280 C   0  0  0  0  0  0
  -21.4017   -6.5631   23.8218 C   0  0  0  0  0  0
  -21.3651   -5.6783   24.9173 C   0  0  0  0  0  0
  -21.6040   -4.3046   24.7224 C   0  0  0  0  0  0
  -21.8819   -3.8142   23.4351 C   0  0  0  0  0  0
  -21.9198   -4.6962   22.3409 C   0  0  0  0  0  0
  -22.7874  -13.5261   21.1835 C   0  0  0  0  0  0
  -22.1660   -4.2145   21.0989 F   0  0  0  0  0  0
  -21.5624   -3.4535   25.7737 F   0  0  0  0  0  0
  -30.0443  -13.2437   20.4519 N   0  0  0  0  0  0
  -26.3029  -12.9318   20.3361 N   0  0  0  0  0  0
  -25.9317  -11.6476   20.5758 N   0  0  0  0  0  0
  -22.0504  -12.8241   22.0386 N   0  0  0  0  0  0
  -25.4411  -15.1871   20.4084 N   0  0  0  0  0  0
  -31.7805  -14.6737   20.0655 O   0  0  0  0  0  0
  -21.6627   -6.8873   21.4244 O   0  0  0  0  0  0
  -22.3553  -14.5566   20.6694 O   0  0  0  0  0  0
  -24.6205  -31.8669   23.2032 C   0  0  0  0  0  0
  -25.9094  -32.4813   23.8328 C   0  0  1  0  0  0
  -27.2532  -27.4275   20.0860 C   0  0  0  0  0  0
  -25.5953  -33.8594   24.2297 N   0  0  0  0  0  0
  -23.4088  -30.4897   21.5416 C   0  0  2  0  0  0
  -24.8577  -28.9467   20.1178 C   0  0  0  0  0  0
  -22.7438  -29.4695   22.4938 C   0  0  0  0  0  0
  -18.0308  -28.1441   22.8456 C   0  0  0  0  0  0
  -24.1536  -36.7289   23.2636 C   0  0  0  0  0  0
  -25.9390  -30.8290   21.3562 C   0  0  0  0  0  0
  -26.0157  -29.4575   20.7144 C   0  0  0  0  0  0
  -27.2086  -28.7021   20.7005 C   0  0  0  0  0  0
  -26.0656  -26.9222   19.5038 C   0  0  0  0  0  0
  -24.8771  -27.6784   19.5151 C   0  0  0  0  0  0
  -23.6207  -29.8134   20.1603 C   0  0  0  0  0  0
  -25.4152  -36.3078   24.0328 C   0  0  1  0  0  0
  -20.5903  -28.3720   23.1305 C   0  0  2  0  0  0
  -20.6821  -26.9446   22.5402 C   0  0  0  0  0  0
  -19.5794  -26.6433   21.5214 C   0  0  0  0  0  0
  -18.1961  -26.7994   22.1591 C   0  0  0  0  0  0
  -19.1551  -28.8900   23.2889 C   0  0  0  0  0  0
  -18.9462  -30.1514   23.8887 C   0  0  0  0  0  0
  -17.6456  -30.6609   24.0604 C   0  0  0  0  0  0
  -25.9070  -34.9459   23.5103 C   0  0  0  0  0  0
  -16.5357  -29.9105   23.6365 C   0  0  0  0  0  0
  -16.7295  -28.6575   23.0285 C   0  0  0  0  0  0
  -26.4518  -31.6557   25.0632 C   0  0  0  0  0  0
  -25.3771  -31.3544   26.1341 C   0  0  0  0  0  0
  -27.0334  -30.3033   24.5934 C   0  0  0  0  0  0
  -27.6183  -32.4192   25.7354 C   0  0  0  0  0  0
  -27.5596  -37.1796   24.8463 C   0  0  0  0  0  0
  -21.4172  -29.3069   22.3682 N   0  0  0  0  0  0
  -26.4333  -37.3759   23.9390 N   0  0  0  0  0  0
  -24.6746  -31.0764   22.0933 N   0  0  0  0  0  0
  -23.4203  -28.8247   23.3000 O   0  0  0  0  0  0
  -28.4569  -26.7470   20.0915 O   0  0  0  0  0  0
  -26.5591  -34.8915   22.4643 O   0  0  0  0  0  0
  -23.5404  -32.1413   23.7435 O   0  0  0  0  0  0
  -27.8067  -21.9857   20.3458 C   0  0  0  0  0  0
  -29.6843  -22.7594   21.6826 C   0  0  0  0  0  0
  -27.7533  -23.2356   19.6926 C   0  0  0  0  0  0
  -29.6236  -24.0126   21.0352 C   0  0  0  0  0  0
  -28.7740  -21.7305   21.3440 C   0  0  0  0  0  0
  -28.6574  -24.2632   20.0350 C   0  0  0  0  0  0
  -28.6237  -19.1641   24.2405 C   0  0  0  0  0  0
  -28.7145  -20.5445   23.5873 C   0  0  0  0  0  0
  -29.8663  -18.3294   23.8852 C   0  0  0  0  0  0
  -30.0286  -19.4915   21.7017 C   0  0  0  0  0  0
  -28.8015  -20.3751   22.0627 C   0  0  2  0  0  0
  -28.6531  -25.5857   19.2713 C   0  0  0  0  0  0
  -31.3227  -15.9275   22.5601 C   0  0  0  0  0  0
  -31.2789  -17.3969   22.0665 C   0  0  0  0  0  0
  -30.4406  -15.0106   21.8328 N   0  0  0  0  0  0
  -30.0492  -18.1709   22.4120 N   0  3  1  0  0  0
  -31.4534  -12.4173   19.0641 H   0  0  0  0  0  0
  -30.3265  -11.2808   19.7466 H   0  0  0  0  0  0
  -29.6998  -11.8062   17.3921 H   0  0  0  0  0  0
  -29.6319  -13.5137   17.7537 H   0  0  0  0  0  0
  -27.8252  -11.3123   18.8124 H   0  0  0  0  0  0
  -27.3366  -12.6387   17.7912 H   0  0  0  0  0  0
  -27.7203  -14.2559   19.5953 H   0  0  0  0  0  0
  -28.6653  -11.9107   21.3088 H   0  0  0  0  0  0
  -28.4446  -13.5368   21.8731 H   0  0  0  0  0  0
  -25.2755   -9.5676   22.4745 H   0  0  0  0  0  0
  -23.9980   -7.4639   22.7487 H   0  0  0  0  0  0
  -21.0824   -8.8769   19.8955 H   0  0  0  0  0  0
  -22.3698  -10.9659   19.6140 H   0  0  0  0  0  0
  -21.2011   -7.6134   23.9716 H   0  0  0  0  0  0
  -21.1462   -6.0513   25.9071 H   0  0  0  0  0  0
  -22.0608   -2.7604   23.2856 H   0  0  0  0  0  0
  -22.4093  -11.9876   22.4745 H   0  0  0  0  0  0
  -21.1144  -13.1281   22.2612 H   0  0  0  0  0  0
  -24.6882  -15.8583   20.5154 H   0  0  0  0  0  0
  -26.3026  -15.6082   20.0843 H   0  0  0  0  0  0
  -26.7163  -32.5541   23.1087 H   0  0  0  0  0  0
  -25.0180  -33.9772   25.0492 H   0  0  0  0  0  0
  -22.6992  -31.3070   21.3909 H   0  0  0  0  0  0
  -23.3802  -35.9616   23.3319 H   0  0  0  0  0  0
  -24.3626  -36.8883   22.2040 H   0  0  0  0  0  0
  -23.7314  -37.6514   23.6639 H   0  0  0  0  0  0
  -26.0429  -31.5864   20.5780 H   0  0  0  0  0  0
  -26.8341  -30.8967   21.9633 H   0  0  0  0  0  0
  -28.1080  -29.0945   21.1548 H   0  0  0  0  0  0
  -26.0314  -25.9439   19.0466 H   0  0  0  0  0  0
  -23.9831  -27.2804   19.0590 H   0  0  0  0  0  0
  -23.7329  -30.5827   19.3961 H   0  0  0  0  0  0
  -22.7479  -29.2301   19.8610 H   0  0  0  0  0  0
  -25.1346  -36.1916   25.0819 H   0  0  0  0  0  0
  -21.0019  -28.3313   24.1423 H   0  0  0  0  0  0
  -20.5823  -26.2291   23.3576 H   0  0  0  0  0  0
  -21.6680  -26.7536   22.1131 H   0  0  0  0  0  0
  -19.6971  -25.6354   21.1239 H   0  0  0  0  0  0
  -19.6798  -27.3267   20.6770 H   0  0  0  0  0  0
  -17.4241  -26.6770   21.3985 H   0  0  0  0  0  0
  -18.0341  -26.0145   22.8991 H   0  0  0  0  0  0
  -19.7920  -30.7374   24.2214 H   0  0  0  0  0  0
  -17.4983  -31.6278   24.5216 H   0  0  0  0  0  0
  -15.5357  -30.2971   23.7742 H   0  0  0  0  0  0
  -15.8703  -28.0963   22.6873 H   0  0  0  0  0  0
  -24.6098  -30.6757   25.7577 H   0  0  0  0  0  0
  -24.8769  -32.2607   26.4757 H   0  0  0  0  0  0
  -25.8136  -30.8717   27.0094 H   0  0  0  0  0  0
  -26.2789  -29.6724   24.1232 H   0  0  0  0  0  0
  -27.4419  -29.7338   25.4284 H   0  0  0  0  0  0
  -27.8471  -30.4388   23.8814 H   0  0  0  0  0  0
  -27.3001  -33.3587   26.1865 H   0  0  0  0  0  0
  -28.4024  -32.6557   25.0145 H   0  0  0  0  0  0
  -28.0794  -31.8277   26.5272 H   0  0  0  0  0  0
  -28.2615  -38.0088   24.7515 H   0  0  0  0  0  0
  -28.1107  -36.2630   24.6324 H   0  0  0  0  0  0
  -27.2281  -37.1443   25.8852 H   0  0  0  0  0  0
  -20.9348  -29.8701   21.6814 H   0  0  0  0  0  0
  -26.0228  -38.2844   24.1376 H   0  0  0  0  0  0
  -27.0927  -21.2232   20.0677 H   0  0  0  0  0  0
  -30.4366  -22.5975   22.4436 H   0  0  0  0  0  0
  -27.0201  -23.3977   18.9147 H   0  0  0  0  0  0
  -30.3344  -24.7843   21.2959 H   0  0  0  0  0  0
  -27.7155  -18.6527   23.9149 H   0  0  0  0  0  0
  -28.5438  -19.2651   25.3242 H   0  0  0  0  0  0
  -29.5954  -21.0635   23.9685 H   0  0  0  0  0  0
  -27.8544  -21.1550   23.8615 H   0  0  0  0  0  0
  -29.7731  -17.3613   24.3735 H   0  0  0  0  0  0
  -30.7515  -18.8088   24.3078 H   0  0  0  0  0  0
  -30.9450  -20.0320   21.9424 H   0  0  0  0  0  0
  -30.0543  -19.3199   20.6243 H   0  0  0  0  0  0
  -27.9045  -19.8378   21.7461 H   0  0  0  0  0  0
  -27.9876  -25.5397   18.4097 H   0  0  0  0  0  0
  -29.6450  -25.6843   18.8277 H   0  0  0  0  0  0
  -31.1192  -15.8439   23.6271 H   0  0  0  0  0  0
  -32.3500  -15.5689   22.4633 H   0  0  0  0  0  0
  -31.4193  -17.3994   20.9851 H   0  0  0  0  0  0
  -32.1403  -17.9271   22.4763 H   0  0  0  0  0  0
  -29.6218  -14.6696   22.3140 H   0  0  0  0  0  0
  -29.2649  -17.6368   22.0686 H   0  0  0  0  0  0
  1 25  1  0  0  0
  1 30  2  0  0  0
  1 85  1  0  0  0
  2  3  1  0  0  0
  2 25  1  0  0  0
  2 87  1  0  0  0
  2 88  1  0  0  0
  3  4  1  0  0  0
  3 89  1  0  0  0
  3 90  1  0  0  0
  4  5  1  0  0  0
  4 91  1  0  0  0
  4 92  1  0  0  0
  5  6  1  0  0  0
  5 26  1  0  0  0
  5 93  1  0  0  0
  6 25  1  0  0  0
  6 94  1  0  0  0
  6 95  1  0  0  0
  7  8  2  0  0  0
  7 26  1  0  0  0
  7 29  1  0  0  0
  8  9  1  0  0  0
  8 22  1  0  0  0
  9 10  1  0  0  0
  9 27  2  0  0  0
 10 11  2  0  0  0
 10 15  1  0  0  0
 11 12  1  0  0  0
 11 96  1  0  0  0
 12 13  2  0  0  0
 12 97  1  0  0  0
 13 14  1  0  0  0
 13 31  1  0  0  0
 14 15  2  0  0  0
 14 98  1  0  0  0
 15 99  1  0  0  0
 16 17  2  0  0  0
 16 21  1  0  0  0
 16 31  1  0  0  0
 17 18  1  0  0  0
 17100  1  0  0  0
 18 19  2  0  0  0
 18101  1  0  0  0
 19 20  1  0  0  0
 19 24  1  0  0  0
 20 21  2  0  0  0
 20102  1  0  0  0
 21 23  1  0  0  0
 22 28  1  0  0  0
 22 32  2  0  0  0
 26 27  1  0  0  0
 28103  1  0  0  0
 28104  1  0  0  0
 29105  1  0  0  0
 29106  1  0  0  0
 33 34  1  0  0  0
 33 66  1  0  0  0
 33 70  2  0  0  0
 34 36  1  0  0  0
 34 59  1  0  0  0
 34107  1  0  0  0
 35 44  2  0  0  0
 35 45  1  0  0  0
 35 68  1  0  0  0
 36 56  1  0  0  0
 36108  1  0  0  0
 37 39  1  0  0  0
 37 47  1  0  0  0
 37 66  1  0  0  0
 37109  1  0  0  0
 38 43  2  0  0  0
 38 46  1  0  0  0
 38 47  1  0  0  0
 39 64  1  0  0  0
 39 67  2  0  0  0
 40 52  1  0  0  0
 40 53  2  0  0  0
 40 58  1  0  0  0
 41110  1  0  0  0
 41111  1  0  0  0
 41112  1  0  0  0
 41 48  1  0  0  0
 42 43  1  0  0  0
 42 66  1  0  0  0
 42113  1  0  0  0
 42114  1  0  0  0
 43 44  1  0  0  0
 44115  1  0  0  0
 45 46  2  0  0  0
 45116  1  0  0  0
 46117  1  0  0  0
 47118  1  0  0  0
 47119  1  0  0  0
 48 56  1  0  0  0
 48 65  1  0  0  0
 48120  1  0  0  0
 49 50  1  0  0  0
 49 53  1  0  0  0
 49 64  1  0  0  0
 49121  1  0  0  0
 50 51  1  0  0  0
 50122  1  0  0  0
 50123  1  0  0  0
 51 52  1  0  0  0
 51124  1  0  0  0
 51125  1  0  0  0
 52126  1  0  0  0
 52127  1  0  0  0
 53 54  1  0  0  0
 54 55  2  0  0  0
 54128  1  0  0  0
 55 57  1  0  0  0
 55129  1  0  0  0
 56 69  2  0  0  0
 57 58  2  0  0  0
 57130  1  0  0  0
 58131  1  0  0  0
 59 60  1  0  0  0
 59 61  1  0  0  0
 59 62  1  0  0  0
 60132  1  0  0  0
 60133  1  0  0  0
 60134  1  0  0  0
 61135  1  0  0  0
 61136  1  0  0  0
 61137  1  0  0  0
 62138  1  0  0  0
 62139  1  0  0  0
 62140  1  0  0  0
 63 65  1  0  0  0
 63141  1  0  0  0
 63142  1  0  0  0
 63143  1  0  0  0
 64144  1  0  0  0
 65145  1  0  0  0
 68 82  1  0  0  0
 71 73  2  0  0  0
 71 75  1  0  0  0
 71146  1  0  0  0
 72 74  1  0  0  0
 72 75  2  0  0  0
 72147  1  0  0  0
 73 76  1  0  0  0
 73148  1  0  0  0
 74 76  2  0  0  0
 74149  1  0  0  0
 75 81  1  0  0  0
 76 82  1  0  0  0
 77 78  1  0  0  0
 77 79  1  0  0  0
 77150  1  0  0  0
 77151  1  0  0  0
 78 81  1  0  0  0
 78152  1  0  0  0
 78153  1  0  0  0
 79 86  1  0  0  0
 79154  1  0  0  0
 79155  1  0  0  0
 80 81  1  0  0  0
 80 86  1  0  0  0
 80156  1  0  0  0
 80157  1  0  0  0
 81158  1  0  0  0
 82159  1  0  0  0
 82160  1  0  0  0
 83 84  1  0  0  0
 83 85  1  0  0  0
 83161  1  0  0  0
 83162  1  0  0  0
 84163  1  0  0  0
 84164  1  0  0  0
 84 86  1  0  0  0
 85165  1  0  0  0
 86166  1  0  0  0
M  CHG  1  86   1
M  ISO  4   1 100  68 101  82 101  85 100
M  END
> <chiral flag>
0

> <version>
0

> <s_m_source_file>
/data/baiqing/PycharmProjects/Reinvent-master-3.2/result/LINK_invent/BTK/process_docking_weight1_custom_sum_contain_oxygen_bond_distance_aromatic_linkinvent_7_9_3/rearranged_h_0133.sdf

> <i_m_source_file_index>
82

> <r_mmod_Potential_Energy-OPLS-2005>
-138.872055053711

> <r_mmod_Stretch_Energy-OPLS-2005>
38.3093566894531

> <r_mmod_Bend_Energy-OPLS-2005>
105.139907836914

> <r_mmod_Torsional_Energy-OPLS-2005>
267.562835693359

> <r_mmod_Improper_Torsional_Energy-OPLS-2005>
3.24779891967773

> <r_mmod_Van_der_Waal_Energy-OPLS-2005>
159.344940185547

> <r_mmod_Electrostatic_Energy-OPLS-2005>
-271.451293945312

> <r_mmod_Solvation_Energy-OPLS-2005>
-450.525177001953

> <b_mmod_Minimization_Converged-OPLS-2005>
0

> <r_mmod_RMS_Derivative-OPLS-2005>
3.39242625236511

$$$$
83
                    3D
 Structure written by MMmdl.
170178  0  0  1  0            999 V2000
  -30.6948  -14.4661   20.6103 C   0  0  0  0  0  0
  -30.4214  -12.3169   19.4158 C   0  0  0  0  0  0
  -29.4909  -12.5233   18.2034 C   0  0  0  0  0  0
  -28.0124  -12.3778   18.6154 C   0  0  0  0  0  0
  -27.6615  -13.2061   19.8801 C   0  0  2  0  0  0
  -28.7018  -12.9698   20.9968 C   0  0  0  0  0  0
  -25.2582  -13.8151   20.5677 C   0  0  0  0  0  0
  -24.1831  -13.0424   20.9161 C   0  0  0  0  0  0
  -24.6386  -11.6895   20.8722 C   0  0  0  0  0  0
  -23.9050  -10.4279   21.0394 C   0  0  0  0  0  0
  -24.3604   -9.4200   21.9177 C   0  0  0  0  0  0
  -23.6278   -8.2239   22.0760 C   0  0  0  0  0  0
  -22.4263   -8.0274   21.3547 C   0  0  0  0  0  0
  -21.9894   -9.0244   20.4649 C   0  0  0  0  0  0
  -22.7221  -10.2124   20.3048 C   0  0  0  0  0  0
  -21.6850   -6.0726   22.5274 C   0  0  0  0  0  0
  -21.4018   -6.5635   23.8208 C   0  0  0  0  0  0
  -21.3661   -5.6792   24.9170 C   0  0  0  0  0  0
  -21.6045   -4.3053   24.7228 C   0  0  0  0  0  0
  -21.8819   -3.8143   23.4347 C   0  0  0  0  0  0
  -21.9194   -4.6955   22.3399 C   0  0  0  0  0  0
  -22.7856  -13.5226   21.1824 C   0  0  0  0  0  0
  -22.1659   -4.2138   21.0976 F   0  0  0  0  0  0
  -21.5629   -3.4540   25.7741 F   0  0  0  0  0  0
  -30.0311  -13.2888   20.4491 N   0  0  0  0  0  0
  -26.3022  -12.9322   20.3384 N   0  0  0  0  0  0
  -25.9313  -11.6477   20.5759 N   0  0  0  0  0  0
  -22.0510  -12.8222   22.0391 N   0  0  0  0  0  0
  -25.4301  -15.1867   20.4082 N   0  0  0  0  0  0
  -31.8021  -14.6844   20.1090 O   0  0  0  0  0  0
  -21.6638   -6.8869   21.4235 O   0  0  0  0  0  0
  -22.3544  -14.5538   20.6684 O   0  0  0  0  0  0
  -24.6132  -31.8660   23.2075 C   0  0  0  0  0  0
  -25.9022  -32.4817   23.8375 C   0  0  1  0  0  0
  -27.2411  -27.4259   20.0912 C   0  0  0  0  0  0
  -25.5886  -33.8612   24.2309 N   0  0  0  0  0  0
  -23.4005  -30.4856   21.5488 C   0  0  2  0  0  0
  -24.8467  -28.9445   20.1159 C   0  0  0  0  0  0
  -22.7394  -29.4632   22.5011 C   0  0  0  0  0  0
  -18.0255  -28.1370   22.8466 C   0  0  0  0  0  0
  -24.1489  -36.7304   23.2645 C   0  0  0  0  0  0
  -25.9287  -30.8297   21.3579 C   0  0  0  0  0  0
  -26.0071  -29.4639   20.7017 C   0  0  0  0  0  0
  -27.2049  -28.7145   20.6762 C   0  0  0  0  0  0
  -26.0585  -26.9156   19.5084 C   0  0  0  0  0  0
  -24.8685  -27.6718   19.5172 C   0  0  0  0  0  0
  -23.6063  -29.8093   20.1663 C   0  0  0  0  0  0
  -25.4113  -36.3105   24.0335 C   0  0  1  0  0  0
  -20.5842  -28.3632   23.1330 C   0  0  2  0  0  0
  -20.6745  -26.9374   22.5412 C   0  0  0  0  0  0
  -19.5735  -26.6376   21.5190 C   0  0  0  0  0  0
  -18.1910  -26.7910   22.1604 C   0  0  0  0  0  0
  -19.1507  -28.8821   23.2889 C   0  0  0  0  0  0
  -18.9444  -30.1428   23.8898 C   0  0  0  0  0  0
  -17.6456  -30.6583   24.0550 C   0  0  0  0  0  0
  -25.9037  -34.9473   23.5123 C   0  0  0  0  0  0
  -16.5339  -29.9081   23.6334 C   0  0  0  0  0  0
  -16.7250  -28.6501   23.0341 C   0  0  0  0  0  0
  -26.4454  -31.6611   25.0712 C   0  0  0  0  0  0
  -25.3723  -31.3693   26.1462 C   0  0  0  0  0  0
  -27.0285  -30.3069   24.6061 C   0  0  0  0  0  0
  -27.6033  -32.4328   25.7478 C   0  0  0  0  0  0
  -27.5577  -37.1805   24.8469 C   0  0  0  0  0  0
  -21.4122  -29.3009   22.3759 N   0  0  0  0  0  0
  -26.4296  -37.3789   23.9407 N   0  0  0  0  0  0
  -24.6655  -31.0753   22.0975 N   0  0  0  0  0  0
  -23.4176  -28.8179   23.3050 O   0  0  0  0  0  0
  -28.4408  -26.7396   20.1239 O   0  0  0  0  0  0
  -26.5609  -34.8931   22.4690 O   0  0  0  0  0  0
  -23.5331  -32.1411   23.7499 O   0  0  0  0  0  0
  -29.7929  -20.9278   20.8290 C   0  0  0  0  0  0
  -27.4574  -20.6325   21.3306 C   0  0  0  0  0  0
  -29.6282  -22.3367   20.8410 C   0  0  0  0  0  0
  -27.2622  -22.0345   21.3333 C   0  0  0  0  0  0
  -28.3511  -22.9281   21.1031 C   0  0  0  0  0  0
  -28.7174  -20.0526   21.0924 C   0  0  0  0  0  0
  -30.8860  -23.1628   20.6140 C   0  0  0  0  0  0
  -25.8555  -22.5371   21.6287 C   0  0  0  0  0  0
  -27.6240  -25.9824   23.2652 C   0  0  0  0  0  0
  -29.1586  -24.0592   23.6384 C   0  0  0  0  0  0
  -29.9270  -17.8583   20.5909 C   0  0  0  0  0  0
  -30.4811  -16.7910   21.5720 C   0  0  0  0  0  0
  -28.5111  -25.3105   19.9602 C   0  0  0  0  0  0
  -28.1393  -24.4750   21.2325 C   0  0  2  0  0  0
  -28.6735  -25.0793   22.5824 C   0  0  0  0  0  0
  -28.8308  -18.6448   21.1704 N   0  0  0  0  0  0
  -30.0236  -15.4241   21.2770 N   0  0  0  0  0  0
  -31.4648  -12.4238   19.1149 H   0  0  0  0  0  0
  -30.3255  -11.3007   19.8018 H   0  0  0  0  0  0
  -29.7309  -11.8101   17.4137 H   0  0  0  0  0  0
  -29.6557  -13.5150   17.7789 H   0  0  0  0  0  0
  -27.8189  -11.3205   18.7982 H   0  0  0  0  0  0
  -27.3623  -12.6655   17.7878 H   0  0  0  0  0  0
  -27.7099  -14.2573   19.5962 H   0  0  0  0  0  0
  -28.6811  -11.9269   21.3183 H   0  0  0  0  0  0
  -28.4567  -13.5472   21.8889 H   0  0  0  0  0  0
  -25.2748   -9.5685   22.4750 H   0  0  0  0  0  0
  -23.9986   -7.4643   22.7491 H   0  0  0  0  0  0
  -21.0825   -8.8757   19.8958 H   0  0  0  0  0  0
  -22.3672  -10.9659   19.6163 H   0  0  0  0  0  0
  -21.2013   -7.6146   23.9705 H   0  0  0  0  0  0
  -21.1484   -6.0526   25.9075 H   0  0  0  0  0  0
  -22.0598   -2.7602   23.2852 H   0  0  0  0  0  0
  -22.4134  -11.9873   22.4746 H   0  0  0  0  0  0
  -21.1142  -13.1265   22.2627 H   0  0  0  0  0  0
  -24.6613  -15.8405   20.5081 H   0  0  0  0  0  0
  -26.2828  -15.6240   20.0823 H   0  0  0  0  0  0
  -26.7077  -32.5523   23.1128 H   0  0  0  0  0  0
  -25.0011  -33.9767   25.0440 H   0  0  0  0  0  0
  -22.6878  -31.3013   21.4066 H   0  0  0  0  0  0
  -23.3763  -35.9630   23.3330 H   0  0  0  0  0  0
  -24.3569  -36.8908   22.2056 H   0  0  0  0  0  0
  -23.7238  -37.6511   23.6651 H   0  0  0  0  0  0
  -26.0371  -31.5951   20.5882 H   0  0  0  0  0  0
  -26.8178  -30.8850   21.9753 H   0  0  0  0  0  0
  -28.1046  -29.1098   21.1273 H   0  0  0  0  0  0
  -26.0318  -25.9423   19.0423 H   0  0  0  0  0  0
  -23.9717  -27.2632   19.0716 H   0  0  0  0  0  0
  -23.7125  -30.5792   19.4017 H   0  0  0  0  0  0
  -22.7308  -29.2254   19.8755 H   0  0  0  0  0  0
  -25.1294  -36.1969   25.0826 H   0  0  0  0  0  0
  -20.9912  -28.3188   24.1458 H   0  0  0  0  0  0
  -20.5639  -26.2227   23.3588 H   0  0  0  0  0  0
  -21.6613  -26.7410   22.1210 H   0  0  0  0  0  0
  -19.6904  -25.6290   21.1213 H   0  0  0  0  0  0
  -19.6702  -27.3188   20.6726 H   0  0  0  0  0  0
  -17.4169  -26.6631   21.4021 H   0  0  0  0  0  0
  -18.0327  -26.0059   22.9013 H   0  0  0  0  0  0
  -19.7935  -30.7212   24.2290 H   0  0  0  0  0  0
  -17.5030  -31.6272   24.5131 H   0  0  0  0  0  0
  -15.5347  -30.2989   23.7689 H   0  0  0  0  0  0
  -15.8634  -28.0844   22.7063 H   0  0  0  0  0  0
  -24.5894  -30.7051   25.7787 H   0  0  0  0  0  0
  -24.8908  -32.2835   26.4942 H   0  0  0  0  0  0
  -25.8077  -30.8834   27.0200 H   0  0  0  0  0  0
  -26.2812  -29.6845   24.1129 H   0  0  0  0  0  0
  -27.4095  -29.7294   25.4490 H   0  0  0  0  0  0
  -27.8625  -30.4431   23.9175 H   0  0  0  0  0  0
  -27.2654  -33.3621   26.2079 H   0  0  0  0  0  0
  -28.3827  -32.6902   25.0292 H   0  0  0  0  0  0
  -28.0713  -31.8432   26.5373 H   0  0  0  0  0  0
  -28.2596  -38.0103   24.7505 H   0  0  0  0  0  0
  -28.1068  -36.2627   24.6309 H   0  0  0  0  0  0
  -27.2279  -37.1459   25.8869 H   0  0  0  0  0  0
  -20.9299  -29.8755   21.6997 H   0  0  0  0  0  0
  -26.0201  -38.2871   24.1417 H   0  0  0  0  0  0
  -30.7823  -20.5369   20.6519 H   0  0  0  0  0  0
  -26.6149  -19.9873   21.5352 H   0  0  0  0  0  0
  -30.9810  -23.4308   19.5622 H   0  0  0  0  0  0
  -31.7790  -22.6002   20.8887 H   0  0  0  0  0  0
  -30.8957  -24.0735   21.2095 H   0  0  0  0  0  0
  -25.4670  -23.1084   20.7849 H   0  0  0  0  0  0
  -25.8477  -23.1700   22.5168 H   0  0  0  0  0  0
  -25.1604  -21.7166   21.8092 H   0  0  0  0  0  0
  -28.0210  -26.4423   24.1705 H   0  0  0  0  0  0
  -26.7378  -25.4140   23.5486 H   0  0  0  0  0  0
  -27.2950  -26.7975   22.6273 H   0  0  0  0  0  0
  -29.5075  -24.5681   24.5385 H   0  0  0  0  0  0
  -29.9979  -23.4612   23.2883 H   0  0  0  0  0  0
  -28.3618  -23.3757   23.9362 H   0  0  0  0  0  0
  -29.5842  -17.3860   19.6700 H   0  0  0  0  0  0
  -30.7499  -18.5028   20.2885 H   0  0  0  0  0  0
  -30.2327  -17.0390   22.6052 H   0  0  0  0  0  0
  -31.5722  -16.8145   21.5313 H   0  0  0  0  0  0
  -27.9422  -24.9753   19.0938 H   0  0  0  0  0  0
  -29.5445  -25.1368   19.6798 H   0  0  0  0  0  0
  -27.0671  -24.6379   21.2660 H   0  0  0  0  0  0
  -29.5367  -25.7029   22.3456 H   0  0  0  0  0  0
  -27.9766  -18.1302   21.3666 H   0  0  0  0  0  0
  -29.1144  -15.1664   21.6319 H   0  0  0  0  0  0
  1 25  1  0  0  0
  1 30  2  0  0  0
  1 87  1  0  0  0
  2  3  1  0  0  0
  2 25  1  0  0  0
  2 88  1  0  0  0
  2 89  1  0  0  0
  3  4  1  0  0  0
  3 90  1  0  0  0
  3 91  1  0  0  0
  4  5  1  0  0  0
  4 92  1  0  0  0
  4 93  1  0  0  0
  5  6  1  0  0  0
  5 26  1  0  0  0
  5 94  1  0  0  0
  6 25  1  0  0  0
  6 95  1  0  0  0
  6 96  1  0  0  0
  7  8  2  0  0  0
  7 26  1  0  0  0
  7 29  1  0  0  0
  8  9  1  0  0  0
  8 22  1  0  0  0
  9 10  1  0  0  0
  9 27  2  0  0  0
 10 11  2  0  0  0
 10 15  1  0  0  0
 11 12  1  0  0  0
 11 97  1  0  0  0
 12 13  2  0  0  0
 12 98  1  0  0  0
 13 14  1  0  0  0
 13 31  1  0  0  0
 14 15  2  0  0  0
 14 99  1  0  0  0
 15100  1  0  0  0
 16 17  2  0  0  0
 16 21  1  0  0  0
 16 31  1  0  0  0
 17 18  1  0  0  0
 17101  1  0  0  0
 18 19  2  0  0  0
 18102  1  0  0  0
 19 20  1  0  0  0
 19 24  1  0  0  0
 20 21  2  0  0  0
 20103  1  0  0  0
 21 23  1  0  0  0
 22 28  1  0  0  0
 22 32  2  0  0  0
 26 27  1  0  0  0
 28104  1  0  0  0
 28105  1  0  0  0
 29106  1  0  0  0
 29107  1  0  0  0
 33 34  1  0  0  0
 33 66  1  0  0  0
 33 70  2  0  0  0
 34 36  1  0  0  0
 34 59  1  0  0  0
 34108  1  0  0  0
 35 44  2  0  0  0
 35 45  1  0  0  0
 35 68  1  0  0  0
 36 56  1  0  0  0
 36109  1  0  0  0
 37 39  1  0  0  0
 37 47  1  0  0  0
 37 66  1  0  0  0
 37110  1  0  0  0
 38 43  2  0  0  0
 38 46  1  0  0  0
 38 47  1  0  0  0
 39 64  1  0  0  0
 39 67  2  0  0  0
 40 52  1  0  0  0
 40 53  2  0  0  0
 40 58  1  0  0  0
 41111  1  0  0  0
 41112  1  0  0  0
 41113  1  0  0  0
 41 48  1  0  0  0
 42 43  1  0  0  0
 42 66  1  0  0  0
 42114  1  0  0  0
 42115  1  0  0  0
 43 44  1  0  0  0
 44116  1  0  0  0
 45 46  2  0  0  0
 45117  1  0  0  0
 46118  1  0  0  0
 47119  1  0  0  0
 47120  1  0  0  0
 48 56  1  0  0  0
 48 65  1  0  0  0
 48121  1  0  0  0
 49 50  1  0  0  0
 49 53  1  0  0  0
 49 64  1  0  0  0
 49122  1  0  0  0
 50 51  1  0  0  0
 50123  1  0  0  0
 50124  1  0  0  0
 51 52  1  0  0  0
 51125  1  0  0  0
 51126  1  0  0  0
 52127  1  0  0  0
 52128  1  0  0  0
 53 54  1  0  0  0
 54 55  2  0  0  0
 54129  1  0  0  0
 55 57  1  0  0  0
 55130  1  0  0  0
 56 69  2  0  0  0
 57 58  2  0  0  0
 57131  1  0  0  0
 58132  1  0  0  0
 59 60  1  0  0  0
 59 61  1  0  0  0
 59 62  1  0  0  0
 60133  1  0  0  0
 60134  1  0  0  0
 60135  1  0  0  0
 61136  1  0  0  0
 61137  1  0  0  0
 61138  1  0  0  0
 62139  1  0  0  0
 62140  1  0  0  0
 62141  1  0  0  0
 63 65  1  0  0  0
 63142  1  0  0  0
 63143  1  0  0  0
 63144  1  0  0  0
 64145  1  0  0  0
 65146  1  0  0  0
 68 83  1  0  0  0
 71 73  2  0  0  0
 71 76  1  0  0  0
 71147  1  0  0  0
 72 74  1  0  0  0
 72 76  2  0  0  0
 72148  1  0  0  0
 73 75  1  0  0  0
 73 77  1  0  0  0
 74 75  2  0  0  0
 74 78  1  0  0  0
 75 84  1  0  0  0
 76 86  1  0  0  0
 77149  1  0  0  0
 77150  1  0  0  0
 77151  1  0  0  0
 78152  1  0  0  0
 78153  1  0  0  0
 78154  1  0  0  0
 79155  1  0  0  0
 79156  1  0  0  0
 79157  1  0  0  0
 79 85  1  0  0  0
 80 85  1  0  0  0
 80158  1  0  0  0
 80159  1  0  0  0
 80160  1  0  0  0
 81 82  1  0  0  0
 81 86  1  0  0  0
 81161  1  0  0  0
 81162  1  0  0  0
 82 87  1  0  0  0
 82163  1  0  0  0
 82164  1  0  0  0
 83165  1  0  0  0
 83166  1  0  0  0
 83 84  1  0  0  0
 84 85  1  0  0  0
 84167  1  0  0  0
 85168  1  0  0  0
 86169  1  0  0  0
 87170  1  0  0  0
M  ISO  4   1 100  68 101  83 101  87 100
M  END
> <chiral flag>
0

> <version>
0

> <s_m_source_file>
/data/baiqing/PycharmProjects/Reinvent-master-3.2/result/LINK_invent/BTK/process_docking_weight1_custom_sum_contain_oxygen_bond_distance_aromatic_linkinvent_7_9_3/rearranged_h_0133.sdf

> <i_m_source_file_index>
83

> <r_mmod_Potential_Energy-OPLS-2005>
-58.4371070861816

> <r_mmod_Stretch_Energy-OPLS-2005>
48.7652931213379

> <r_mmod_Bend_Energy-OPLS-2005>
138.105926513672

> <r_mmod_Torsional_Energy-OPLS-2005>
204.018646240234

> <r_mmod_Improper_Torsional_Energy-OPLS-2005>
3.7560703754425

> <r_mmod_Van_der_Waal_Energy-OPLS-2005>
158.975326538086

> <r_mmod_Electrostatic_Energy-OPLS-2005>
-417.732208251953

> <r_mmod_Solvation_Energy-OPLS-2005>
-206.822982788086

> <b_mmod_Minimization_Converged-OPLS-2005>
0

> <r_mmod_RMS_Derivative-OPLS-2005>
1.74460029602051

$$$$
84
                    3D
 Structure written by MMmdl.
156164  0  0  1  0            999 V2000
  -30.5826  -14.7204   20.5437 C   0  0  0  0  0  0
  -30.4525  -12.4539   19.4681 C   0  0  0  0  0  0
  -29.5184  -12.5347   18.2378 C   0  0  0  0  0  0
  -28.0427  -12.3528   18.6462 C   0  0  0  0  0  0
  -27.6560  -13.2216   19.8712 C   0  0  2  0  0  0
  -28.6980  -13.0766   21.0031 C   0  0  0  0  0  0
  -25.2516  -13.8117   20.5581 C   0  0  0  0  0  0
  -24.1813  -13.0395   20.9156 C   0  0  0  0  0  0
  -24.6409  -11.6879   20.8737 C   0  0  0  0  0  0
  -23.9072  -10.4272   21.0408 C   0  0  0  0  0  0
  -24.3619   -9.4192   21.9194 C   0  0  0  0  0  0
  -23.6290   -8.2228   22.0758 C   0  0  0  0  0  0
  -22.4272   -8.0272   21.3544 C   0  0  0  0  0  0
  -21.9910   -9.0246   20.4648 C   0  0  0  0  0  0
  -22.7239  -10.2122   20.3062 C   0  0  0  0  0  0
  -21.6851   -6.0733   22.5277 C   0  0  0  0  0  0
  -21.4009   -6.5638   23.8209 C   0  0  0  0  0  0
  -21.3659   -5.6791   24.9173 C   0  0  0  0  0  0
  -21.6042   -4.3053   24.7222 C   0  0  0  0  0  0
  -21.8821   -3.8147   23.4343 C   0  0  0  0  0  0
  -21.9194   -4.6964   22.3401 C   0  0  0  0  0  0
  -22.7841  -13.5208   21.1828 C   0  0  0  0  0  0
  -22.1666   -4.2153   21.0977 F   0  0  0  0  0  0
  -21.5630   -3.4534   25.7734 F   0  0  0  0  0  0
  -30.0124  -13.4655   20.4586 N   0  0  0  0  0  0
  -26.3000  -12.9341   20.3332 N   0  0  0  0  0  0
  -25.9353  -11.6491   20.5786 N   0  0  0  0  0  0
  -22.0488  -12.8216   22.0399 N   0  0  0  0  0  0
  -25.4101  -15.1805   20.3815 N   0  0  0  0  0  0
  -31.6833  -14.9409   20.0240 O   0  0  0  0  0  0
  -21.6633   -6.8872   21.4239 O   0  0  0  0  0  0
  -22.3525  -14.5522   20.6690 O   0  0  0  0  0  0
  -24.6306  -31.8556   23.1980 C   0  0  0  0  0  0
  -25.9133  -32.4757   23.8321 C   0  0  1  0  0  0
  -27.2248  -27.2675   20.1365 C   0  0  0  0  0  0
  -25.5930  -33.8558   24.2250 N   0  0  0  0  0  0
  -23.4272  -30.4784   21.5409 C   0  0  2  0  0  0
  -24.8767  -28.9251   20.1120 C   0  0  0  0  0  0
  -22.7491  -29.4612   22.4904 C   0  0  0  0  0  0
  -18.0296  -28.1391   22.8489 C   0  0  0  0  0  0
  -24.1489  -36.7282   23.2638 C   0  0  0  0  0  0
  -25.9725  -30.7715   21.3770 C   0  0  0  0  0  0
  -26.0475  -29.3931   20.7224 C   0  0  0  0  0  0
  -27.2253  -28.5782   20.7221 C   0  0  0  0  0  0
  -26.0347  -26.8726   19.4853 C   0  0  0  0  0  0
  -24.8754  -27.6720   19.4814 C   0  0  0  0  0  0
  -23.6468  -29.8112   20.1576 C   0  0  0  0  0  0
  -25.4113  -36.3072   24.0327 C   0  0  1  0  0  0
  -20.5896  -28.3703   23.1264 C   0  0  2  0  0  0
  -20.6785  -26.9419   22.5409 C   0  0  0  0  0  0
  -19.5760  -26.6391   21.5211 C   0  0  0  0  0  0
  -18.1939  -26.7937   22.1623 C   0  0  0  0  0  0
  -19.1549  -28.8862   23.2876 C   0  0  0  0  0  0
  -18.9473  -30.1462   23.8896 C   0  0  0  0  0  0
  -17.6473  -30.6594   24.0566 C   0  0  0  0  0  0
  -25.9054  -34.9441   23.5089 C   0  0  0  0  0  0
  -16.5365  -29.9092   23.6331 C   0  0  0  0  0  0
  -16.7283  -28.6507   23.0358 C   0  0  0  0  0  0
  -26.4500  -31.6583   25.0707 C   0  0  0  0  0  0
  -25.3727  -31.3740   26.1433 C   0  0  0  0  0  0
  -27.0344  -30.3001   24.6190 C   0  0  0  0  0  0
  -27.6044  -32.4328   25.7486 C   0  0  0  0  0  0
  -27.5575  -37.1794   24.8462 C   0  0  0  0  0  0
  -21.4197  -29.3050   22.3644 N   0  0  0  0  0  0
  -26.4286  -37.3771   23.9408 N   0  0  0  0  0  0
  -24.6958  -31.0532   22.0950 N   0  0  0  0  0  0
  -23.4190  -28.8154   23.3006 O   0  0  0  0  0  0
  -28.3215  -26.3741   20.1673 O   0  0  0  0  0  0
  -26.5626  -34.8917   22.4659 O   0  0  0  0  0  0
  -23.5458  -32.1372   23.7281 O   0  0  0  0  0  0
  -27.6991  -19.3275   21.2524 C   0  0  0  0  0  0
  -27.9661  -16.9517   21.5817 C   0  0  0  0  0  0
  -27.1675  -18.1014   21.6629 C   0  0  0  0  0  0
  -29.0254  -19.4131   20.7878 C   0  0  0  0  0  0
  -29.2882  -16.9929   21.0945 C   0  0  0  0  0  0
  -25.7583  -18.0384   22.2191 C   0  0  0  0  0  0
  -29.5665  -20.8736   20.4048 C   0  0  0  0  0  0
  -29.0702  -23.7089   20.2242 C   0  0  0  0  0  0
  -28.0671  -24.9414   20.5595 C   0  0  0  0  0  0
  -28.7132  -22.2240   20.7871 C   0  0  2  0  0  0
  -29.8027  -18.2406   20.7082 N   0  0  0  0  0  0
  -29.8918  -15.6554   21.2846 N   0  0  0  0  0  0
  -28.7351  -22.3649   22.2010 O   0  0  0  0  0  0
  -31.4893  -12.6071   19.1637 H   0  0  0  0  0  0
  -30.4184  -11.4564   19.9089 H   0  0  0  0  0  0
  -29.7976  -11.7788   17.5026 H   0  0  0  0  0  0
  -29.6448  -13.5002   17.7457 H   0  0  0  0  0  0
  -27.8923  -11.2984   18.8817 H   0  0  0  0  0  0
  -27.3862  -12.5721   17.8034 H   0  0  0  0  0  0
  -27.6732  -14.2594   19.5365 H   0  0  0  0  0  0
  -28.7281  -12.0458   21.3603 H   0  0  0  0  0  0
  -28.4097  -13.6708   21.8703 H   0  0  0  0  0  0
  -25.2764   -9.5670   22.4766 H   0  0  0  0  0  0
  -23.9999   -7.4620   22.7477 H   0  0  0  0  0  0
  -21.0842   -8.8766   19.8953 H   0  0  0  0  0  0
  -22.3702  -10.9663   19.6172 H   0  0  0  0  0  0
  -21.1997   -7.6144   23.9712 H   0  0  0  0  0  0
  -21.1482   -6.0519   25.9075 H   0  0  0  0  0  0
  -22.0602   -2.7610   23.2837 H   0  0  0  0  0  0
  -22.4105  -11.9882   22.4792 H   0  0  0  0  0  0
  -21.1115  -13.1259   22.2614 H   0  0  0  0  0  0
  -24.6277  -15.8188   20.4653 H   0  0  0  0  0  0
  -26.2581  -15.6319   20.0632 H   0  0  0  0  0  0
  -26.7197  -32.5421   23.1059 H   0  0  0  0  0  0
  -25.0076  -33.9684   25.0399 H   0  0  0  0  0  0
  -22.7249  -31.3016   21.3941 H   0  0  0  0  0  0
  -23.3751  -35.9616   23.3304 H   0  0  0  0  0  0
  -24.3584  -36.8905   22.2054 H   0  0  0  0  0  0
  -23.7247  -37.6483   23.6663 H   0  0  0  0  0  0
  -26.1095  -31.5305   20.6056 H   0  0  0  0  0  0
  -26.8501  -30.8225   22.0093 H   0  0  0  0  0  0
  -28.1214  -28.9332   21.2112 H   0  0  0  0  0  0
  -25.9833  -25.9253   18.9699 H   0  0  0  0  0  0
  -23.9829  -27.3123   18.9875 H   0  0  0  0  0  0
  -23.7710  -30.5866   19.4009 H   0  0  0  0  0  0
  -22.7654  -29.2442   19.8525 H   0  0  0  0  0  0
  -25.1301  -36.1909   25.0821 H   0  0  0  0  0  0
  -21.0001  -28.3293   24.1379 H   0  0  0  0  0  0
  -20.5689  -26.2309   23.3616 H   0  0  0  0  0  0
  -21.6654  -26.7448   22.1202 H   0  0  0  0  0  0
  -19.6919  -25.6302   21.1243 H   0  0  0  0  0  0
  -19.6700  -27.3199   20.6739 H   0  0  0  0  0  0
  -17.4210  -26.6686   21.4026 H   0  0  0  0  0  0
  -18.0340  -26.0082   22.9021 H   0  0  0  0  0  0
  -19.7950  -30.7277   24.2263 H   0  0  0  0  0  0
  -17.5031  -31.6272   24.5174 H   0  0  0  0  0  0
  -15.5366  -30.2997   23.7653 H   0  0  0  0  0  0
  -15.8683  -28.0823   22.7079 H   0  0  0  0  0  0
  -24.5902  -30.7086   25.7768 H   0  0  0  0  0  0
  -24.8920  -32.2916   26.4837 H   0  0  0  0  0  0
  -25.8055  -30.8937   27.0220 H   0  0  0  0  0  0
  -26.2923  -29.6748   24.1213 H   0  0  0  0  0  0
  -27.4025  -29.7268   25.4707 H   0  0  0  0  0  0
  -27.8805  -30.4271   23.9431 H   0  0  0  0  0  0
  -27.2637  -33.3630   26.2046 H   0  0  0  0  0  0
  -28.3866  -32.6889   25.0327 H   0  0  0  0  0  0
  -28.0698  -31.8469   26.5422 H   0  0  0  0  0  0
  -28.2591  -38.0090   24.7513 H   0  0  0  0  0  0
  -28.1077  -36.2625   24.6292 H   0  0  0  0  0  0
  -27.2297  -37.1452   25.8864 H   0  0  0  0  0  0
  -20.9375  -29.8764   21.6848 H   0  0  0  0  0  0
  -26.0164  -38.2844   24.1419 H   0  0  0  0  0  0
  -27.0646  -20.1975   21.3229 H   0  0  0  0  0  0
  -27.5421  -16.0209   21.9354 H   0  0  0  0  0  0
  -25.6690  -18.6781   23.0972 H   0  0  0  0  0  0
  -25.4870  -17.0258   22.5177 H   0  0  0  0  0  0
  -25.0379  -18.3773   21.4747 H   0  0  0  0  0  0
  -29.6914  -20.8637   19.3217 H   0  0  0  0  0  0
  -30.5761  -20.9682   20.8057 H   0  0  0  0  0  0
  -30.0692  -23.9778   20.5682 H   0  0  0  0  0  0
  -29.1491  -23.6404   19.1393 H   0  0  0  0  0  0
  -27.9570  -24.9704   21.6437 H   0  0  0  0  0  0
  -27.0905  -24.6203   20.2059 H   0  0  0  0  0  0
  -27.6845  -22.0543   20.4695 H   0  0  0  0  0  0
  -29.2857  -15.1197   21.8829 H   0  0  0  0  0  0
  -28.3662  -21.5733   22.5836 H   0  0  0  0  0  0
  1 25  1  0  0  0
  1 30  2  0  0  0
  1 82  1  0  0  0
  2  3  1  0  0  0
  2 25  1  0  0  0
  2 84  1  0  0  0
  2 85  1  0  0  0
  3  4  1  0  0  0
  3 86  1  0  0  0
  3 87  1  0  0  0
  4  5  1  0  0  0
  4 88  1  0  0  0
  4 89  1  0  0  0
  5  6  1  0  0  0
  5 26  1  0  0  0
  5 90  1  0  0  0
  6 25  1  0  0  0
  6 91  1  0  0  0
  6 92  1  0  0  0
  7  8  2  0  0  0
  7 26  1  0  0  0
  7 29  1  0  0  0
  8  9  1  0  0  0
  8 22  1  0  0  0
  9 10  1  0  0  0
  9 27  2  0  0  0
 10 11  2  0  0  0
 10 15  1  0  0  0
 11 12  1  0  0  0
 11 93  1  0  0  0
 12 13  2  0  0  0
 12 94  1  0  0  0
 13 14  1  0  0  0
 13 31  1  0  0  0
 14 15  2  0  0  0
 14 95  1  0  0  0
 15 96  1  0  0  0
 16 17  2  0  0  0
 16 21  1  0  0  0
 16 31  1  0  0  0
 17 18  1  0  0  0
 17 97  1  0  0  0
 18 19  2  0  0  0
 18 98  1  0  0  0
 19 20  1  0  0  0
 19 24  1  0  0  0
 20 21  2  0  0  0
 20 99  1  0  0  0
 21 23  1  0  0  0
 22 28  1  0  0  0
 22 32  2  0  0  0
 26 27  1  0  0  0
 28100  1  0  0  0
 28101  1  0  0  0
 29102  1  0  0  0
 29103  1  0  0  0
 33 34  1  0  0  0
 33 66  1  0  0  0
 33 70  2  0  0  0
 34 36  1  0  0  0
 34 59  1  0  0  0
 34104  1  0  0  0
 35 44  2  0  0  0
 35 45  1  0  0  0
 35 68  1  0  0  0
 36 56  1  0  0  0
 36105  1  0  0  0
 37 39  1  0  0  0
 37 47  1  0  0  0
 37 66  1  0  0  0
 37106  1  0  0  0
 38 43  2  0  0  0
 38 46  1  0  0  0
 38 47  1  0  0  0
 39 64  1  0  0  0
 39 67  2  0  0  0
 40 52  1  0  0  0
 40 53  2  0  0  0
 40 58  1  0  0  0
 41107  1  0  0  0
 41108  1  0  0  0
 41109  1  0  0  0
 41 48  1  0  0  0
 42 43  1  0  0  0
 42 66  1  0  0  0
 42110  1  0  0  0
 42111  1  0  0  0
 43 44  1  0  0  0
 44112  1  0  0  0
 45 46  2  0  0  0
 45113  1  0  0  0
 46114  1  0  0  0
 47115  1  0  0  0
 47116  1  0  0  0
 48 56  1  0  0  0
 48 65  1  0  0  0
 48117  1  0  0  0
 49 50  1  0  0  0
 49 53  1  0  0  0
 49 64  1  0  0  0
 49118  1  0  0  0
 50 51  1  0  0  0
 50119  1  0  0  0
 50120  1  0  0  0
 51 52  1  0  0  0
 51121  1  0  0  0
 51122  1  0  0  0
 52123  1  0  0  0
 52124  1  0  0  0
 53 54  1  0  0  0
 54 55  2  0  0  0
 54125  1  0  0  0
 55 57  1  0  0  0
 55126  1  0  0  0
 56 69  2  0  0  0
 57 58  2  0  0  0
 57127  1  0  0  0
 58128  1  0  0  0
 59 60  1  0  0  0
 59 61  1  0  0  0
 59 62  1  0  0  0
 60129  1  0  0  0
 60130  1  0  0  0
 60131  1  0  0  0
 61132  1  0  0  0
 61133  1  0  0  0
 61134  1  0  0  0
 62135  1  0  0  0
 62136  1  0  0  0
 62137  1  0  0  0
 63 65  1  0  0  0
 63138  1  0  0  0
 63139  1  0  0  0
 63140  1  0  0  0
 64141  1  0  0  0
 65142  1  0  0  0
 68 79  1  0  0  0
 71 73  2  0  0  0
 71 74  1  0  0  0
 71143  1  0  0  0
 72 73  1  0  0  0
 72 75  2  0  0  0
 72144  1  0  0  0
 73 76  1  0  0  0
 74 77  1  0  0  0
 74 81  2  0  0  0
 75 81  1  0  0  0
 75 82  1  0  0  0
 76145  1  0  0  0
 76146  1  0  0  0
 76147  1  0  0  0
 77 80  1  0  0  0
 77148  1  0  0  0
 77149  1  0  0  0
 78 79  1  0  0  0
 78 80  1  0  0  0
 78150  1  0  0  0
 78151  1  0  0  0
 79152  1  0  0  0
 79153  1  0  0  0
 80 83  1  0  0  0
 80154  1  0  0  0
 82155  1  0  0  0
 83156  1  0  0  0
M  ISO  4   1 100  68 101  79 101  82 100
M  END
> <chiral flag>
0

> <version>
0

> <s_m_source_file>
/data/baiqing/PycharmProjects/Reinvent-master-3.2/result/LINK_invent/BTK/process_docking_weight1_custom_sum_contain_oxygen_bond_distance_aromatic_linkinvent_7_9_3/rearranged_h_0133.sdf

> <i_m_source_file_index>
84

> <r_mmod_Potential_Energy-OPLS-2005>
129.5234375

> <r_mmod_Stretch_Energy-OPLS-2005>
135.230270385742

> <r_mmod_Bend_Energy-OPLS-2005>
208.388717651367

> <r_mmod_Torsional_Energy-OPLS-2005>
238.573059082031

> <r_mmod_Improper_Torsional_Energy-OPLS-2005>
6.44753980636597

> <r_mmod_Van_der_Waal_Energy-OPLS-2005>
135.45947265625

> <r_mmod_Electrostatic_Energy-OPLS-2005>
-424.738555908203

> <r_mmod_Solvation_Energy-OPLS-2005>
-247.27458190918

> <b_mmod_Minimization_Converged-OPLS-2005>
0

> <r_mmod_RMS_Derivative-OPLS-2005>
0.923464775085449

$$$$
85
                    3D
 Structure written by MMmdl.
152160  0  0  1  0            999 V2000
  -30.6317  -14.6375   20.4949 C   0  0  0  0  0  0
  -30.4313  -12.3928   19.4514 C   0  0  0  0  0  0
  -29.5027  -12.5010   18.2221 C   0  0  0  0  0  0
  -28.0260  -12.3406   18.6353 C   0  0  0  0  0  0
  -27.6489  -13.2179   19.8590 C   0  0  2  0  0  0
  -28.6934  -13.0891   20.9898 C   0  0  0  0  0  0
  -25.2540  -13.8173   20.5678 C   0  0  0  0  0  0
  -24.1818  -13.0437   20.9203 C   0  0  0  0  0  0
  -24.6388  -11.6910   20.8750 C   0  0  0  0  0  0
  -23.9061  -10.4294   21.0417 C   0  0  0  0  0  0
  -24.3616   -9.4207   21.9189 C   0  0  0  0  0  0
  -23.6292   -8.2243   22.0756 C   0  0  0  0  0  0
  -22.4274   -8.0280   21.3546 C   0  0  0  0  0  0
  -21.9911   -9.0255   20.4650 C   0  0  0  0  0  0
  -22.7238  -10.2134   20.3061 C   0  0  0  0  0  0
  -21.6852   -6.0736   22.5281 C   0  0  0  0  0  0
  -21.4014   -6.5642   23.8213 C   0  0  0  0  0  0
  -21.3657   -5.6794   24.9175 C   0  0  0  0  0  0
  -21.6043   -4.3057   24.7227 C   0  0  0  0  0  0
  -21.8819   -3.8148   23.4348 C   0  0  0  0  0  0
  -21.9194   -4.6964   22.3404 C   0  0  0  0  0  0
  -22.7838  -13.5228   21.1861 C   0  0  0  0  0  0
  -22.1660   -4.2148   21.0981 F   0  0  0  0  0  0
  -21.5627   -3.4542   25.7742 F   0  0  0  0  0  0
  -30.0051  -13.4229   20.4192 N   0  0  0  0  0  0
  -26.2964  -12.9356   20.3305 N   0  0  0  0  0  0
  -25.9315  -11.6511   20.5762 N   0  0  0  0  0  0
  -22.0481  -12.8218   22.0415 N   0  0  0  0  0  0
  -25.4248  -15.1891   20.4061 N   0  0  0  0  0  0
  -31.8046  -14.7775   20.1379 O   0  0  0  0  0  0
  -21.6636   -6.8878   21.4243 O   0  0  0  0  0  0
  -22.3533  -14.5538   20.6711 O   0  0  0  0  0  0
  -24.6232  -31.8604   23.2018 C   0  0  0  0  0  0
  -25.9090  -32.4783   23.8342 C   0  0  1  0  0  0
  -27.2272  -27.3288   20.1255 C   0  0  0  0  0  0
  -25.5919  -33.8586   24.2274 N   0  0  0  0  0  0
  -23.4167  -30.4818   21.5436 C   0  0  2  0  0  0
  -24.8631  -28.9288   20.1157 C   0  0  0  0  0  0
  -22.7454  -29.4627   22.4940 C   0  0  0  0  0  0
  -18.0285  -28.1385   22.8493 C   0  0  0  0  0  0
  -24.1487  -36.7291   23.2638 C   0  0  0  0  0  0
  -25.9536  -30.7934   21.3704 C   0  0  0  0  0  0
  -26.0275  -29.4172   20.7218 C   0  0  0  0  0  0
  -27.2105  -28.6262   20.7207 C   0  0  0  0  0  0
  -26.0437  -26.8839   19.4978 C   0  0  0  0  0  0
  -24.8709  -27.6663   19.4978 C   0  0  0  0  0  0
  -23.6313  -29.8101   20.1603 C   0  0  0  0  0  0
  -25.4114  -36.3086   24.0331 C   0  0  1  0  0  0
  -20.5880  -28.3688   23.1290 C   0  0  2  0  0  0
  -20.6773  -26.9411   22.5416 C   0  0  0  0  0  0
  -19.5750  -26.6386   21.5216 C   0  0  0  0  0  0
  -18.1930  -26.7932   22.1626 C   0  0  0  0  0  0
  -19.1535  -28.8851   23.2891 C   0  0  0  0  0  0
  -18.9461  -30.1455   23.8905 C   0  0  0  0  0  0
  -17.6461  -30.6591   24.0567 C   0  0  0  0  0  0
  -25.9050  -34.9458   23.5102 C   0  0  0  0  0  0
  -16.5353  -29.9093   23.6329 C   0  0  0  0  0  0
  -16.7272  -28.6509   23.0353 C   0  0  0  0  0  0
  -26.4486  -31.6594   25.0709 C   0  0  0  0  0  0
  -25.3730  -31.3731   26.1442 C   0  0  0  0  0  0
  -27.0319  -30.3022   24.6144 C   0  0  0  0  0  0
  -27.6042  -32.4329   25.7488 C   0  0  0  0  0  0
  -27.5579  -37.1798   24.8467 C   0  0  0  0  0  0
  -21.4170  -29.3043   22.3680 N   0  0  0  0  0  0
  -26.4291  -37.3780   23.9411 N   0  0  0  0  0  0
  -24.6832  -31.0625   22.0961 N   0  0  0  0  0  0
  -23.4182  -28.8172   23.3019 O   0  0  0  0  0  0
  -28.3794  -26.5365   20.1135 O   0  0  0  0  0  0
  -26.5615  -34.8926   22.4666 O   0  0  0  0  0  0
  -23.5402  -32.1391   23.7358 O   0  0  0  0  0  0
  -28.9492  -22.9390   19.1560 C   0  0  0  0  0  0
  -28.9089  -24.3595   19.0801 C   0  0  0  0  0  0
  -27.9537  -23.1245   21.3175 C   0  0  0  0  0  0
  -28.4597  -22.2663   20.3026 C   0  0  0  0  0  0
  -28.3646  -25.1245   20.1361 C   0  0  0  0  0  0
  -28.2655  -20.6976   20.3574 C   0  0  0  0  0  0
  -30.2344  -17.1878   20.7200 C   0  0  0  0  0  0
  -29.0546  -18.2531   20.5748 C   0  0  0  0  0  0
  -27.9082  -24.4923   21.2483 N   0  0  0  0  0  0
  -29.8510  -15.7280   20.7777 N   0  0  0  0  0  0
  -29.4224  -19.7327   20.5475 N   0  3  0  0  0  0
  -31.4725  -12.5153   19.1474 H   0  0  0  0  0  0
  -30.3656  -11.4008   19.9006 H   0  0  0  0  0  0
  -29.7672  -11.7459   17.4807 H   0  0  0  0  0  0
  -29.6439  -13.4681   17.7367 H   0  0  0  0  0  0
  -27.8624  -11.2884   18.8710 H   0  0  0  0  0  0
  -27.3706  -12.5677   17.7934 H   0  0  0  0  0  0
  -27.6628  -14.2500   19.5085 H   0  0  0  0  0  0
  -28.7053  -12.0741   21.3898 H   0  0  0  0  0  0
  -28.4439  -13.7407   21.8289 H   0  0  0  0  0  0
  -25.2763   -9.5678   22.4760 H   0  0  0  0  0  0
  -24.0003   -7.4633   22.7472 H   0  0  0  0  0  0
  -21.0843   -8.8774   19.8954 H   0  0  0  0  0  0
  -22.3701  -10.9673   19.6169 H   0  0  0  0  0  0
  -21.2002   -7.6150   23.9714 H   0  0  0  0  0  0
  -21.1480   -6.0526   25.9077 H   0  0  0  0  0  0
  -22.0599   -2.7611   23.2848 H   0  0  0  0  0  0
  -22.4100  -11.9873   22.4789 H   0  0  0  0  0  0
  -21.1100  -13.1242   22.2630 H   0  0  0  0  0  0
  -24.6512  -15.8381   20.5015 H   0  0  0  0  0  0
  -26.2584  -15.6203   20.0294 H   0  0  0  0  0  0
  -26.7157  -32.5461   23.1093 H   0  0  0  0  0  0
  -25.0089  -33.9741   25.0434 H   0  0  0  0  0  0
  -22.7104  -31.3017   21.3981 H   0  0  0  0  0  0
  -23.3754  -35.9619   23.3307 H   0  0  0  0  0  0
  -24.3575  -36.8899   22.2049 H   0  0  0  0  0  0
  -23.7239  -37.6495   23.6654 H   0  0  0  0  0  0
  -26.0798  -31.5527   20.5971 H   0  0  0  0  0  0
  -26.8362  -30.8474   21.9965 H   0  0  0  0  0  0
  -28.1091  -28.9995   21.1915 H   0  0  0  0  0  0
  -26.0180  -25.9190   19.0112 H   0  0  0  0  0  0
  -23.9776  -27.2867   19.0207 H   0  0  0  0  0  0
  -23.7521  -30.5836   19.4011 H   0  0  0  0  0  0
  -22.7515  -29.2384   19.8588 H   0  0  0  0  0  0
  -25.1298  -36.1933   25.0824 H   0  0  0  0  0  0
  -20.9984  -28.3259   24.1405 H   0  0  0  0  0  0
  -20.5675  -26.2295   23.3612 H   0  0  0  0  0  0
  -21.6644  -26.7449   22.1205 H   0  0  0  0  0  0
  -19.6919  -25.6299   21.1242 H   0  0  0  0  0  0
  -19.6690  -27.3199   20.6746 H   0  0  0  0  0  0
  -17.4202  -26.6684   21.4025 H   0  0  0  0  0  0
  -18.0332  -26.0070   22.9017 H   0  0  0  0  0  0
  -19.7939  -30.7271   24.2275 H   0  0  0  0  0  0
  -17.5020  -31.6272   24.5167 H   0  0  0  0  0  0
  -15.5356  -30.3001   23.7650 H   0  0  0  0  0  0
  -15.8671  -28.0834   22.7063 H   0  0  0  0  0  0
  -24.5911  -30.7073   25.7776 H   0  0  0  0  0  0
  -24.8921  -32.2897   26.4865 H   0  0  0  0  0  0
  -25.8064  -30.8919   27.0218 H   0  0  0  0  0  0
  -26.2878  -29.6786   24.1173 H   0  0  0  0  0  0
  -27.4031  -29.7264   25.4630 H   0  0  0  0  0  0
  -27.8746  -30.4317   23.9348 H   0  0  0  0  0  0
  -27.2650  -33.3630   26.2063 H   0  0  0  0  0  0
  -28.3857  -32.6885   25.0322 H   0  0  0  0  0  0
  -28.0707  -31.8457   26.5406 H   0  0  0  0  0  0
  -28.2598  -38.0091   24.7504 H   0  0  0  0  0  0
  -28.1069  -36.2621   24.6305 H   0  0  0  0  0  0
  -27.2293  -37.1460   25.8869 H   0  0  0  0  0  0
  -20.9338  -29.8760   21.6891 H   0  0  0  0  0  0
  -26.0171  -38.2857   24.1410 H   0  0  0  0  0  0
  -29.3260  -22.3729   18.3163 H   0  0  0  0  0  0
  -29.2903  -24.8620   18.2020 H   0  0  0  0  0  0
  -27.5207  -22.6984   22.2107 H   0  0  0  0  0  0
  -27.7599  -20.4173   19.4321 H   0  0  0  0  0  0
  -27.5406  -20.4904   21.1461 H   0  0  0  0  0  0
  -30.8004  -17.4088   21.6256 H   0  0  0  0  0  0
  -30.9319  -17.3256   19.8925 H   0  0  0  0  0  0
  -28.3472  -18.1034   21.3915 H   0  0  0  0  0  0
  -28.5040  -18.0313   19.6596 H   0  0  0  0  0  0
  -28.8964  -15.5197   21.0297 H   0  0  0  0  0  0
  -29.8856  -19.9571   21.4129 H   0  0  0  0  0  0
  -30.0844  -19.8783   19.8035 H   0  0  0  0  0  0
  1 25  1  0  0  0
  1 30  2  0  0  0
  1 80  1  0  0  0
  2  3  1  0  0  0
  2 25  1  0  0  0
  2 82  1  0  0  0
  2 83  1  0  0  0
  3  4  1  0  0  0
  3 84  1  0  0  0
  3 85  1  0  0  0
  4  5  1  0  0  0
  4 86  1  0  0  0
  4 87  1  0  0  0
  5  6  1  0  0  0
  5 26  1  0  0  0
  5 88  1  0  0  0
  6 25  1  0  0  0
  6 89  1  0  0  0
  6 90  1  0  0  0
  7  8  2  0  0  0
  7 26  1  0  0  0
  7 29  1  0  0  0
  8  9  1  0  0  0
  8 22  1  0  0  0
  9 10  1  0  0  0
  9 27  2  0  0  0
 10 11  2  0  0  0
 10 15  1  0  0  0
 11 12  1  0  0  0
 11 91  1  0  0  0
 12 13  2  0  0  0
 12 92  1  0  0  0
 13 14  1  0  0  0
 13 31  1  0  0  0
 14 15  2  0  0  0
 14 93  1  0  0  0
 15 94  1  0  0  0
 16 17  2  0  0  0
 16 21  1  0  0  0
 16 31  1  0  0  0
 17 18  1  0  0  0
 17 95  1  0  0  0
 18 19  2  0  0  0
 18 96  1  0  0  0
 19 20  1  0  0  0
 19 24  1  0  0  0
 20 21  2  0  0  0
 20 97  1  0  0  0
 21 23  1  0  0  0
 22 28  1  0  0  0
 22 32  2  0  0  0
 26 27  1  0  0  0
 28 98  1  0  0  0
 28 99  1  0  0  0
 29100  1  0  0  0
 29101  1  0  0  0
 33 34  1  0  0  0
 33 66  1  0  0  0
 33 70  2  0  0  0
 34 36  1  0  0  0
 34 59  1  0  0  0
 34102  1  0  0  0
 35 44  2  0  0  0
 35 45  1  0  0  0
 35 68  1  0  0  0
 36 56  1  0  0  0
 36103  1  0  0  0
 37 39  1  0  0  0
 37 47  1  0  0  0
 37 66  1  0  0  0
 37104  1  0  0  0
 38 43  2  0  0  0
 38 46  1  0  0  0
 38 47  1  0  0  0
 39 64  1  0  0  0
 39 67  2  0  0  0
 40 52  1  0  0  0
 40 53  2  0  0  0
 40 58  1  0  0  0
 41105  1  0  0  0
 41106  1  0  0  0
 41107  1  0  0  0
 41 48  1  0  0  0
 42 43  1  0  0  0
 42 66  1  0  0  0
 42108  1  0  0  0
 42109  1  0  0  0
 43 44  1  0  0  0
 44110  1  0  0  0
 45 46  2  0  0  0
 45111  1  0  0  0
 46112  1  0  0  0
 47113  1  0  0  0
 47114  1  0  0  0
 48 56  1  0  0  0
 48 65  1  0  0  0
 48115  1  0  0  0
 49 50  1  0  0  0
 49 53  1  0  0  0
 49 64  1  0  0  0
 49116  1  0  0  0
 50 51  1  0  0  0
 50117  1  0  0  0
 50118  1  0  0  0
 51 52  1  0  0  0
 51119  1  0  0  0
 51120  1  0  0  0
 52121  1  0  0  0
 52122  1  0  0  0
 53 54  1  0  0  0
 54 55  2  0  0  0
 54123  1  0  0  0
 55 57  1  0  0  0
 55124  1  0  0  0
 56 69  2  0  0  0
 57 58  2  0  0  0
 57125  1  0  0  0
 58126  1  0  0  0
 59 60  1  0  0  0
 59 61  1  0  0  0
 59 62  1  0  0  0
 60127  1  0  0  0
 60128  1  0  0  0
 60129  1  0  0  0
 61130  1  0  0  0
 61131  1  0  0  0
 61132  1  0  0  0
 62133  1  0  0  0
 62134  1  0  0  0
 62135  1  0  0  0
 63 65  1  0  0  0
 63136  1  0  0  0
 63137  1  0  0  0
 63138  1  0  0  0
 64139  1  0  0  0
 65140  1  0  0  0
 68 75  1  0  0  0
 71 72  2  0  0  0
 71 74  1  0  0  0
 71141  1  0  0  0
 72 75  1  0  0  0
 72142  1  0  0  0
 73 74  2  0  0  0
 73 79  1  0  0  0
 73143  1  0  0  0
 74 76  1  0  0  0
 75 79  2  0  0  0
 76 81  1  0  0  0
 76144  1  0  0  0
 76145  1  0  0  0
 77 78  1  0  0  0
 77 80  1  0  0  0
 77146  1  0  0  0
 77147  1  0  0  0
 78 81  1  0  0  0
 78148  1  0  0  0
 78149  1  0  0  0
 80150  1  0  0  0
 81151  1  0  0  0
 81152  1  0  0  0
M  CHG  1  81   1
M  ISO  4   1 100  68 101  75 101  80 100
M  END
> <chiral flag>
0

> <version>
0

> <s_m_source_file>
/data/baiqing/PycharmProjects/Reinvent-master-3.2/result/LINK_invent/BTK/process_docking_weight1_custom_sum_contain_oxygen_bond_distance_aromatic_linkinvent_7_9_3/rearranged_h_0133.sdf

> <i_m_source_file_index>
85

> <r_mmod_Potential_Energy-OPLS-2005>
-334.120910644531

> <r_mmod_Stretch_Energy-OPLS-2005>
73.027946472168

> <r_mmod_Bend_Energy-OPLS-2005>
127.322509765625

> <r_mmod_Torsional_Energy-OPLS-2005>
202.323913574219

> <r_mmod_Improper_Torsional_Energy-OPLS-2005>
6.20112276077271

> <r_mmod_Van_der_Waal_Energy-OPLS-2005>
138.64274597168

> <r_mmod_Electrostatic_Energy-OPLS-2005>
-408.13037109375

> <r_mmod_Solvation_Energy-OPLS-2005>
-516.995727539062

> <b_mmod_Minimization_Converged-OPLS-2005>
0

> <r_mmod_RMS_Derivative-OPLS-2005>
0.704595685005188

$$$$
86
                    3D
 Structure written by MMmdl.
155163  0  0  1  0            999 V2000
  -30.6820  -14.5998   20.5026 C   0  0  0  0  0  0
  -30.4198  -12.3714   19.4565 C   0  0  0  0  0  0
  -29.4992  -12.4948   18.2248 C   0  0  0  0  0  0
  -28.0232  -12.3413   18.6393 C   0  0  0  0  0  0
  -27.6479  -13.2235   19.8614 C   0  0  2  0  0  0
  -28.6923  -13.1066   20.9934 C   0  0  0  0  0  0
  -25.2524  -13.8195   20.5716 C   0  0  0  0  0  0
  -24.1799  -13.0443   20.9200 C   0  0  0  0  0  0
  -24.6382  -11.6917   20.8741 C   0  0  0  0  0  0
  -23.9056  -10.4289   21.0396 C   0  0  0  0  0  0
  -24.3609   -9.4207   21.9176 C   0  0  0  0  0  0
  -23.6281   -8.2244   22.0754 C   0  0  0  0  0  0
  -22.4261   -8.0282   21.3549 C   0  0  0  0  0  0
  -21.9900   -9.0247   20.4648 C   0  0  0  0  0  0
  -22.7227  -10.2126   20.3048 C   0  0  0  0  0  0
  -21.6856   -6.0732   22.5274 C   0  0  0  0  0  0
  -21.4018   -6.5637   23.8209 C   0  0  0  0  0  0
  -21.3657   -5.6790   24.9169 C   0  0  0  0  0  0
  -21.6042   -4.3051   24.7223 C   0  0  0  0  0  0
  -21.8821   -3.8145   23.4341 C   0  0  0  0  0  0
  -21.9191   -4.6959   22.3395 C   0  0  0  0  0  0
  -22.7819  -13.5221   21.1853 C   0  0  0  0  0  0
  -22.1661   -4.2145   21.0973 F   0  0  0  0  0  0
  -21.5623   -3.4537   25.7736 F   0  0  0  0  0  0
  -30.0089  -13.4125   20.4185 N   0  0  0  0  0  0
  -26.2954  -12.9390   20.3332 N   0  0  0  0  0  0
  -25.9313  -11.6537   20.5781 N   0  0  0  0  0  0
  -22.0453  -12.8222   22.0417 N   0  0  0  0  0  0
  -25.4233  -15.1923   20.4183 N   0  0  0  0  0  0
  -31.8565  -14.6961   20.1399 O   0  0  0  0  0  0
  -21.6633   -6.8873   21.4239 O   0  0  0  0  0  0
  -22.3507  -14.5520   20.6690 O   0  0  0  0  0  0
  -24.6238  -31.8636   23.2052 C   0  0  0  0  0  0
  -25.9100  -32.4801   23.8377 C   0  0  1  0  0  0
  -27.2200  -27.3538   20.1127 C   0  0  0  0  0  0
  -25.5935  -33.8603   24.2309 N   0  0  0  0  0  0
  -23.4166  -30.4875   21.5466 C   0  0  2  0  0  0
  -24.8635  -28.9502   20.1058 C   0  0  0  0  0  0
  -22.7463  -29.4640   22.4939 C   0  0  0  0  0  0
  -18.0293  -28.1378   22.8500 C   0  0  0  0  0  0
  -24.1483  -36.7302   23.2639 C   0  0  0  0  0  0
  -25.9541  -30.8049   21.3706 C   0  0  0  0  0  0
  -26.0305  -29.4349   20.7127 C   0  0  0  0  0  0
  -27.2169  -28.6468   20.7101 C   0  0  0  0  0  0
  -26.0423  -26.9201   19.4690 C   0  0  0  0  0  0
  -24.8692  -27.6965   19.4739 C   0  0  0  0  0  0
  -23.6287  -29.8252   20.1603 C   0  0  0  0  0  0
  -25.4109  -36.3098   24.0330 C   0  0  1  0  0  0
  -20.5890  -28.3682   23.1291 C   0  0  2  0  0  0
  -20.6776  -26.9406   22.5412 C   0  0  0  0  0  0
  -19.5748  -26.6382   21.5220 C   0  0  0  0  0  0
  -18.1930  -26.7923   22.1631 C   0  0  0  0  0  0
  -19.1546  -28.8846   23.2890 C   0  0  0  0  0  0
  -18.9463  -30.1449   23.8900 C   0  0  0  0  0  0
  -17.6463  -30.6579   24.0567 C   0  0  0  0  0  0
  -25.9050  -34.9466   23.5115 C   0  0  0  0  0  0
  -16.5356  -29.9079   23.6327 C   0  0  0  0  0  0
  -16.7279  -28.6495   23.0353 C   0  0  0  0  0  0
  -26.4489  -31.6597   25.0735 C   0  0  0  0  0  0
  -25.3729  -31.3730   26.1471 C   0  0  0  0  0  0
  -27.0331  -30.3029   24.6167 C   0  0  0  0  0  0
  -27.6055  -32.4329   25.7504 C   0  0  0  0  0  0
  -27.5577  -37.1808   24.8466 C   0  0  0  0  0  0
  -21.4181  -29.3046   22.3687 N   0  0  0  0  0  0
  -26.4287  -37.3789   23.9413 N   0  0  0  0  0  0
  -24.6838  -31.0677   22.0981 N   0  0  0  0  0  0
  -23.4198  -28.8178   23.3011 O   0  0  0  0  0  0
  -28.2944  -26.4669   20.1726 O   0  0  0  0  0  0
  -26.5605  -34.8924   22.4675 O   0  0  0  0  0  0
  -23.5410  -32.1420   23.7397 O   0  0  0  0  0  0
  -28.3980  -21.4348   20.2605 C   0  0  0  0  0  0
  -30.5192  -22.2954   21.0054 C   0  0  0  0  0  0
  -27.8779  -22.7650   20.2730 C   0  0  0  0  0  0
  -30.0016  -23.6203   21.0179 C   0  0  0  0  0  0
  -29.7301  -21.1590   20.6637 C   0  0  0  0  0  0
  -28.6572  -23.8858   20.6756 C   0  0  0  0  0  0
  -30.3797  -19.7655   20.7091 C   0  0  0  0  0  0
  -28.6083  -18.3493   21.9322 C   0  0  0  0  0  0
  -27.9921  -25.2696   20.9708 C   0  0  0  0  0  0
  -30.5403  -17.1205   20.7458 C   0  0  0  0  0  0
  -29.5808  -18.3976   20.7391 C   0  0  2  0  0  0
  -29.9708  -15.7278   20.7995 N   0  0  0  0  0  0
  -31.6115  -19.6845   20.7548 O   0  0  0  0  0  0
  -31.4648  -12.4667   19.1561 H   0  0  0  0  0  0
  -30.3301  -11.3830   19.9103 H   0  0  0  0  0  0
  -29.7604  -11.7403   17.4822 H   0  0  0  0  0  0
  -29.6494  -13.4624   17.7444 H   0  0  0  0  0  0
  -27.8591  -11.2898   18.8800 H   0  0  0  0  0  0
  -27.3679  -12.5645   17.7961 H   0  0  0  0  0  0
  -27.6604  -14.2547   19.5089 H   0  0  0  0  0  0
  -28.6926  -12.1006   21.4164 H   0  0  0  0  0  0
  -28.4498  -13.7816   21.8158 H   0  0  0  0  0  0
  -25.2758   -9.5688   22.4746 H   0  0  0  0  0  0
  -23.9992   -7.4641   22.7476 H   0  0  0  0  0  0
  -21.0834   -8.8752   19.8959 H   0  0  0  0  0  0
  -22.3674  -10.9654   19.6153 H   0  0  0  0  0  0
  -21.2021   -7.6148   23.9711 H   0  0  0  0  0  0
  -21.1478   -6.0523   25.9069 H   0  0  0  0  0  0
  -22.0606   -2.7606   23.2839 H   0  0  0  0  0  0
  -22.4063  -11.9883   22.4813 H   0  0  0  0  0  0
  -21.1062  -13.1242   22.2598 H   0  0  0  0  0  0
  -24.6617  -15.8494   20.5486 H   0  0  0  0  0  0
  -26.2808  -15.6366   20.1161 H   0  0  0  0  0  0
  -26.7173  -32.5481   23.1136 H   0  0  0  0  0  0
  -25.0104  -33.9755   25.0471 H   0  0  0  0  0  0
  -22.7098  -31.3078   21.4061 H   0  0  0  0  0  0
  -23.3744  -35.9636   23.3304 H   0  0  0  0  0  0
  -24.3578  -36.8920   22.2054 H   0  0  0  0  0  0
  -23.7232  -37.6506   23.6653 H   0  0  0  0  0  0
  -26.0810  -31.5687   20.6017 H   0  0  0  0  0  0
  -26.8363  -30.8543   21.9969 H   0  0  0  0  0  0
  -28.1091  -29.0067   21.2024 H   0  0  0  0  0  0
  -26.0214  -25.9526   18.9867 H   0  0  0  0  0  0
  -23.9756  -27.3218   18.9940 H   0  0  0  0  0  0
  -23.7430  -30.6044   19.4056 H   0  0  0  0  0  0
  -22.7490  -29.2525   19.8603 H   0  0  0  0  0  0
  -25.1284  -36.1959   25.0819 H   0  0  0  0  0  0
  -20.9991  -28.3254   24.1409 H   0  0  0  0  0  0
  -20.5687  -26.2293   23.3610 H   0  0  0  0  0  0
  -21.6641  -26.7439   22.1196 H   0  0  0  0  0  0
  -19.6905  -25.6297   21.1240 H   0  0  0  0  0  0
  -19.6676  -27.3197   20.6753 H   0  0  0  0  0  0
  -17.4201  -26.6693   21.4024 H   0  0  0  0  0  0
  -18.0308  -26.0060   22.9018 H   0  0  0  0  0  0
  -19.7941  -30.7277   24.2252 H   0  0  0  0  0  0
  -17.5017  -31.6258   24.5174 H   0  0  0  0  0  0
  -15.5354  -30.2983   23.7642 H   0  0  0  0  0  0
  -15.8682  -28.0815   22.7058 H   0  0  0  0  0  0
  -24.5899  -30.7079   25.7806 H   0  0  0  0  0  0
  -24.8917  -32.2893   26.4907 H   0  0  0  0  0  0
  -25.8061  -30.8908   27.0244 H   0  0  0  0  0  0
  -26.2899  -29.6790   24.1193 H   0  0  0  0  0  0
  -27.4045  -29.7279   25.4658 H   0  0  0  0  0  0
  -27.8754  -30.4329   23.9370 H   0  0  0  0  0  0
  -27.2670  -33.3634   26.2078 H   0  0  0  0  0  0
  -28.3865  -32.6894   25.0331 H   0  0  0  0  0  0
  -28.0719  -31.8460   26.5426 H   0  0  0  0  0  0
  -28.2598  -38.0101   24.7522 H   0  0  0  0  0  0
  -28.1064  -36.2639   24.6273 H   0  0  0  0  0  0
  -27.2300  -37.1442   25.8869 H   0  0  0  0  0  0
  -20.9345  -29.8788   21.6922 H   0  0  0  0  0  0
  -26.0173  -38.2864   24.1417 H   0  0  0  0  0  0
  -27.7516  -20.6221   19.9595 H   0  0  0  0  0  0
  -31.5481  -22.1516   21.3060 H   0  0  0  0  0  0
  -26.8379  -22.9126   20.0170 H   0  0  0  0  0  0
  -30.6319  -24.4320   21.3543 H   0  0  0  0  0  0
  -27.9269  -19.1996   21.9397 H   0  0  0  0  0  0
  -29.1461  -18.3507   22.8811 H   0  0  0  0  0  0
  -27.9933  -17.4496   21.9032 H   0  0  0  0  0  0
  -28.2638  -25.5208   21.9966 H   0  0  0  0  0  0
  -26.9190  -25.0839   21.0255 H   0  0  0  0  0  0
  -31.2191  -17.2046   21.5966 H   0  0  0  0  0  0
  -31.1770  -17.1857   19.8613 H   0  0  0  0  0  0
  -28.9933  -18.3714   19.8220 H   0  0  0  0  0  0
  -29.0004  -15.6137   21.0514 H   0  0  0  0  0  0
  1 25  1  0  0  0
  1 30  2  0  0  0
  1 82  1  0  0  0
  2  3  1  0  0  0
  2 25  1  0  0  0
  2 84  1  0  0  0
  2 85  1  0  0  0
  3  4  1  0  0  0
  3 86  1  0  0  0
  3 87  1  0  0  0
  4  5  1  0  0  0
  4 88  1  0  0  0
  4 89  1  0  0  0
  5  6  1  0  0  0
  5 26  1  0  0  0
  5 90  1  0  0  0
  6 25  1  0  0  0
  6 91  1  0  0  0
  6 92  1  0  0  0
  7  8  2  0  0  0
  7 26  1  0  0  0
  7 29  1  0  0  0
  8  9  1  0  0  0
  8 22  1  0  0  0
  9 10  1  0  0  0
  9 27  2  0  0  0
 10 11  2  0  0  0
 10 15  1  0  0  0
 11 12  1  0  0  0
 11 93  1  0  0  0
 12 13  2  0  0  0
 12 94  1  0  0  0
 13 14  1  0  0  0
 13 31  1  0  0  0
 14 15  2  0  0  0
 14 95  1  0  0  0
 15 96  1  0  0  0
 16 17  2  0  0  0
 16 21  1  0  0  0
 16 31  1  0  0  0
 17 18  1  0  0  0
 17 97  1  0  0  0
 18 19  2  0  0  0
 18 98  1  0  0  0
 19 20  1  0  0  0
 19 24  1  0  0  0
 20 21  2  0  0  0
 20 99  1  0  0  0
 21 23  1  0  0  0
 22 28  1  0  0  0
 22 32  2  0  0  0
 26 27  1  0  0  0
 28100  1  0  0  0
 28101  1  0  0  0
 29102  1  0  0  0
 29103  1  0  0  0
 33 34  1  0  0  0
 33 66  1  0  0  0
 33 70  2  0  0  0
 34 36  1  0  0  0
 34 59  1  0  0  0
 34104  1  0  0  0
 35 44  2  0  0  0
 35 45  1  0  0  0
 35 68  1  0  0  0
 36 56  1  0  0  0
 36105  1  0  0  0
 37 39  1  0  0  0
 37 47  1  0  0  0
 37 66  1  0  0  0
 37106  1  0  0  0
 38 43  2  0  0  0
 38 46  1  0  0  0
 38 47  1  0  0  0
 39 64  1  0  0  0
 39 67  2  0  0  0
 40 52  1  0  0  0
 40 53  2  0  0  0
 40 58  1  0  0  0
 41107  1  0  0  0
 41108  1  0  0  0
 41109  1  0  0  0
 41 48  1  0  0  0
 42 43  1  0  0  0
 42 66  1  0  0  0
 42110  1  0  0  0
 42111  1  0  0  0
 43 44  1  0  0  0
 44112  1  0  0  0
 45 46  2  0  0  0
 45113  1  0  0  0
 46114  1  0  0  0
 47115  1  0  0  0
 47116  1  0  0  0
 48 56  1  0  0  0
 48 65  1  0  0  0
 48117  1  0  0  0
 49 50  1  0  0  0
 49 53  1  0  0  0
 49 64  1  0  0  0
 49118  1  0  0  0
 50 51  1  0  0  0
 50119  1  0  0  0
 50120  1  0  0  0
 51 52  1  0  0  0
 51121  1  0  0  0
 51122  1  0  0  0
 52123  1  0  0  0
 52124  1  0  0  0
 53 54  1  0  0  0
 54 55  2  0  0  0
 54125  1  0  0  0
 55 57  1  0  0  0
 55126  1  0  0  0
 56 69  2  0  0  0
 57 58  2  0  0  0
 57127  1  0  0  0
 58128  1  0  0  0
 59 60  1  0  0  0
 59 61  1  0  0  0
 59 62  1  0  0  0
 60129  1  0  0  0
 60130  1  0  0  0
 60131  1  0  0  0
 61132  1  0  0  0
 61133  1  0  0  0
 61134  1  0  0  0
 62135  1  0  0  0
 62136  1  0  0  0
 62137  1  0  0  0
 63 65  1  0  0  0
 63138  1  0  0  0
 63139  1  0  0  0
 63140  1  0  0  0
 64141  1  0  0  0
 65142  1  0  0  0
 68 79  1  0  0  0
 71 73  2  0  0  0
 71 75  1  0  0  0
 71143  1  0  0  0
 72 74  1  0  0  0
 72 75  2  0  0  0
 72144  1  0  0  0
 73 76  1  0  0  0
 73145  1  0  0  0
 74 76  2  0  0  0
 74146  1  0  0  0
 75 77  1  0  0  0
 76 79  1  0  0  0
 77 81  1  0  0  0
 77 83  2  0  0  0
 78147  1  0  0  0
 78148  1  0  0  0
 78149  1  0  0  0
 78 81  1  0  0  0
 79150  1  0  0  0
 79151  1  0  0  0
 80 81  1  0  0  0
 80 82  1  0  0  0
 80152  1  0  0  0
 80153  1  0  0  0
 81154  1  0  0  0
 82155  1  0  0  0
M  ISO  4   1 100  68 101  79 101  82 100
M  END
> <chiral flag>
0

> <version>
0

> <s_m_source_file>
/data/baiqing/PycharmProjects/Reinvent-master-3.2/result/LINK_invent/BTK/process_docking_weight1_custom_sum_contain_oxygen_bond_distance_aromatic_linkinvent_7_9_3/rearranged_h_0133.sdf

> <i_m_source_file_index>
86

> <r_mmod_Potential_Energy-OPLS-2005>
128.691024780273

> <r_mmod_Stretch_Energy-OPLS-2005>
71.7019348144531

> <r_mmod_Bend_Energy-OPLS-2005>
129.663604736328

> <r_mmod_Torsional_Energy-OPLS-2005>
265.999267578125

> <r_mmod_Improper_Torsional_Energy-OPLS-2005>
5.86595344543457

> <r_mmod_Van_der_Waal_Energy-OPLS-2005>
148.080581665039

> <r_mmod_Electrostatic_Energy-OPLS-2005>
-316.822052001953

> <r_mmod_Solvation_Energy-OPLS-2005>
-218.915222167969

> <b_mmod_Minimization_Converged-OPLS-2005>
0

> <r_mmod_RMS_Derivative-OPLS-2005>
1.2907966375351

$$$$
87
                    3D
 Structure written by MMmdl.
173183  0  0  1  0            999 V2000
  -30.7544  -14.3949   20.6869 C   0  0  0  0  0  0
  -30.4210  -12.3118   19.3937 C   0  0  0  0  0  0
  -29.4822  -12.5248   18.1909 C   0  0  0  0  0  0
  -28.0081  -12.3639   18.6082 C   0  0  0  0  0  0
  -27.6625  -13.1882   19.8736 C   0  0  2  0  0  0
  -28.7040  -12.9278   20.9872 C   0  0  0  0  0  0
  -25.2612  -13.8124   20.5666 C   0  0  0  0  0  0
  -24.1849  -13.0429   20.9179 C   0  0  0  0  0  0
  -24.6376  -11.6887   20.8739 C   0  0  0  0  0  0
  -23.9039  -10.4285   21.0415 C   0  0  0  0  0  0
  -24.3600   -9.4202   21.9190 C   0  0  0  0  0  0
  -23.6281   -8.2236   22.0754 C   0  0  0  0  0  0
  -22.4264   -8.0276   21.3545 C   0  0  0  0  0  0
  -21.9896   -9.0248   20.4647 C   0  0  0  0  0  0
  -22.7218  -10.2130   20.3059 C   0  0  0  0  0  0
  -21.6847   -6.0734   22.5282 C   0  0  0  0  0  0
  -21.4009   -6.5639   23.8215 C   0  0  0  0  0  0
  -21.3657   -5.6792   24.9177 C   0  0  0  0  0  0
  -21.6044   -4.3055   24.7228 C   0  0  0  0  0  0
  -21.8820   -3.8148   23.4348 C   0  0  0  0  0  0
  -21.9191   -4.6964   22.3404 C   0  0  0  0  0  0
  -22.7875  -13.5244   21.1845 C   0  0  0  0  0  0
  -22.1661   -4.2151   21.0982 F   0  0  0  0  0  0
  -21.5629   -3.4537   25.7739 F   0  0  0  0  0  0
  -30.0389  -13.2572   20.4566 N   0  0  0  0  0  0
  -26.3021  -12.9253   20.3348 N   0  0  0  0  0  0
  -25.9290  -11.6433   20.5751 N   0  0  0  0  0  0
  -22.0504  -12.8244   22.0398 N   0  0  0  0  0  0
  -25.4353  -15.1840   20.4056 N   0  0  0  0  0  0
  -31.7985  -14.6502   20.0752 O   0  0  0  0  0  0
  -21.6630   -6.8874   21.4242 O   0  0  0  0  0  0
  -22.3570  -14.5556   20.6695 O   0  0  0  0  0  0
  -24.6085  -31.8713   23.2126 C   0  0  0  0  0  0
  -25.9001  -32.4845   23.8412 C   0  0  1  0  0  0
  -27.2597  -27.4795   20.0961 C   0  0  0  0  0  0
  -25.5884  -33.8645   24.2348 N   0  0  0  0  0  0
  -23.3950  -30.4911   21.5516 C   0  0  2  0  0  0
  -24.8466  -28.9580   20.1197 C   0  0  0  0  0  0
  -22.7374  -29.4663   22.5022 C   0  0  0  0  0  0
  -18.0263  -28.1364   22.8493 C   0  0  0  0  0  0
  -24.1485  -36.7330   23.2637 C   0  0  0  0  0  0
  -25.9156  -30.8523   21.3565 C   0  0  0  0  0  0
  -25.9990  -29.4864   20.7123 C   0  0  0  0  0  0
  -27.2036  -28.7569   20.7051 C   0  0  0  0  0  0
  -26.0870  -26.9541   19.5148 C   0  0  0  0  0  0
  -24.8823  -27.6857   19.5204 C   0  0  0  0  0  0
  -23.6029  -29.8163   20.1675 C   0  0  0  0  0  0
  -25.4105  -36.3134   24.0340 C   0  0  1  0  0  0
  -20.5846  -28.3645   23.1339 C   0  0  2  0  0  0
  -20.6752  -26.9389   22.5422 C   0  0  0  0  0  0
  -19.5736  -26.6379   21.5209 C   0  0  0  0  0  0
  -18.1912  -26.7914   22.1617 C   0  0  0  0  0  0
  -19.1509  -28.8821   23.2913 C   0  0  0  0  0  0
  -18.9441  -30.1431   23.8914 C   0  0  0  0  0  0
  -17.6446  -30.6577   24.0560 C   0  0  0  0  0  0
  -25.9029  -34.9494   23.5142 C   0  0  0  0  0  0
  -16.5337  -29.9077   23.6320 C   0  0  0  0  0  0
  -16.7254  -28.6493   23.0343 C   0  0  0  0  0  0
  -26.4457  -31.6609   25.0718 C   0  0  0  0  0  0
  -25.3740  -31.3687   26.1475 C   0  0  0  0  0  0
  -27.0279  -30.3062   24.6050 C   0  0  0  0  0  0
  -27.6048  -32.4312   25.7479 C   0  0  0  0  0  0
  -27.5582  -37.1821   24.8465 C   0  0  0  0  0  0
  -21.4108  -29.3020   22.3755 N   0  0  0  0  0  0
  -26.4297  -37.3811   23.9408 N   0  0  0  0  0  0
  -24.6576  -31.0850   22.1001 N   0  0  0  0  0  0
  -23.4165  -28.8218   23.3059 O   0  0  0  0  0  0
  -28.3986  -26.7048   20.0294 O   0  0  0  0  0  0
  -26.5589  -34.8934   22.4701 O   0  0  0  0  0  0
  -23.5293  -32.1444   23.7554 O   0  0  0  0  0  0
  -31.0405  -22.5716   23.0538 C   0  0  0  0  0  0
  -31.3885  -23.8945   22.7400 C   0  0  0  0  0  0
  -30.2196  -21.8491   22.1646 C   0  0  0  0  0  0
  -29.7599  -22.5112   20.9983 C   0  0  0  0  0  0
  -30.8968  -24.4667   21.5593 C   0  0  0  0  0  0
  -29.2572  -20.6471   19.2167 C   0  0  0  0  0  0
  -29.1032  -21.9655   18.5087 C   0  0  0  0  0  0
  -31.7634  -17.1052   22.4600 C   0  0  0  0  0  0
  -29.4624  -17.4404   21.5046 C   0  0  0  0  0  0
  -31.3954  -15.6277   22.7214 C   0  0  0  0  0  0
  -29.1659  -15.9572   21.7957 C   0  0  0  0  0  0
  -28.8356  -21.8763   19.9972 C   0  0  0  0  0  0
  -30.5134  -18.0109   22.4815 C   0  0  0  0  0  0
  -29.8137  -20.4168   22.5184 C   0  0  0  0  0  0
  -29.6420  -27.3228   20.3478 C   0  0  0  0  0  0
  -30.8244  -26.3853   20.0555 C   0  0  0  0  0  0
  -30.0905  -23.7916   20.7130 N   0  0  0  0  0  0
  -30.3912  -15.1394   21.7631 N   0  0  0  0  0  0
  -30.8603  -19.4221   22.1774 N   0  3  0  0  0  0
  -31.2846  -25.7513   21.2502 O   0  0  0  0  0  0
  -31.4607  -12.4268   19.0818 H   0  0  0  0  0  0
  -30.3412  -11.2880   19.7628 H   0  0  0  0  0  0
  -29.7236  -11.8187   17.3952 H   0  0  0  0  0  0
  -29.6389  -13.5208   17.7736 H   0  0  0  0  0  0
  -27.8249  -11.3048   18.7937 H   0  0  0  0  0  0
  -27.3511  -12.6459   17.7846 H   0  0  0  0  0  0
  -27.7124  -14.2335   19.5751 H   0  0  0  0  0  0
  -28.6843  -11.8748   21.2726 H   0  0  0  0  0  0
  -28.4505  -13.4602   21.9024 H   0  0  0  0  0  0
  -25.2747   -9.5680   22.4761 H   0  0  0  0  0  0
  -23.9995   -7.4626   22.7468 H   0  0  0  0  0  0
  -21.0830   -8.8767   19.8949 H   0  0  0  0  0  0
  -22.3682  -10.9671   19.6168 H   0  0  0  0  0  0
  -21.1999   -7.6147   23.9721 H   0  0  0  0  0  0
  -21.1477   -6.0520   25.9080 H   0  0  0  0  0  0
  -22.0601   -2.7609   23.2847 H   0  0  0  0  0  0
  -22.4099  -11.9895   22.4787 H   0  0  0  0  0  0
  -21.1122  -13.1281   22.2596 H   0  0  0  0  0  0
  -24.6690  -15.8394   20.5125 H   0  0  0  0  0  0
  -26.2846  -15.6203   20.0712 H   0  0  0  0  0  0
  -26.7080  -32.5588   23.1197 H   0  0  0  0  0  0
  -25.0050  -33.9825   25.0501 H   0  0  0  0  0  0
  -22.6806  -31.3050   21.4108 H   0  0  0  0  0  0
  -23.3742  -35.9670   23.3320 H   0  0  0  0  0  0
  -24.3575  -36.8923   22.2047 H   0  0  0  0  0  0
  -23.7244  -37.6545   23.6633 H   0  0  0  0  0  0
  -26.0136  -31.6154   20.5832 H   0  0  0  0  0  0
  -26.8077  -30.9169   21.9675 H   0  0  0  0  0  0
  -28.0742  -29.1943   21.1706 H   0  0  0  0  0  0
  -26.1126  -25.9790   19.0483 H   0  0  0  0  0  0
  -23.9957  -27.2672   19.0639 H   0  0  0  0  0  0
  -23.7025  -30.5876   19.4027 H   0  0  0  0  0  0
  -22.7309  -29.2265   19.8784 H   0  0  0  0  0  0
  -25.1280  -36.2009   25.0834 H   0  0  0  0  0  0
  -20.9927  -28.3205   24.1463 H   0  0  0  0  0  0
  -20.5650  -26.2250   23.3601 H   0  0  0  0  0  0
  -21.6626  -26.7440   22.1219 H   0  0  0  0  0  0
  -19.6900  -25.6294   21.1228 H   0  0  0  0  0  0
  -19.6680  -27.3197   20.6746 H   0  0  0  0  0  0
  -17.4185  -26.6669   21.4014 H   0  0  0  0  0  0
  -18.0311  -26.0047   22.9003 H   0  0  0  0  0  0
  -19.7920  -30.7239   24.2286 H   0  0  0  0  0  0
  -17.5006  -31.6258   24.5157 H   0  0  0  0  0  0
  -15.5339  -30.2985   23.7634 H   0  0  0  0  0  0
  -15.8655  -28.0822   22.7041 H   0  0  0  0  0  0
  -24.5913  -30.7040   25.7804 H   0  0  0  0  0  0
  -24.8929  -32.2830   26.4956 H   0  0  0  0  0  0
  -25.8104  -30.8829   27.0210 H   0  0  0  0  0  0
  -26.2804  -29.6840   24.1113 H   0  0  0  0  0  0
  -27.4077  -29.7279   25.4483 H   0  0  0  0  0  0
  -27.8628  -30.4398   23.9165 H   0  0  0  0  0  0
  -27.2681  -33.3593   26.2107 H   0  0  0  0  0  0
  -28.3835  -32.6898   25.0292 H   0  0  0  0  0  0
  -28.0742  -31.8399   26.5352 H   0  0  0  0  0  0
  -28.2615  -38.0103   24.7505 H   0  0  0  0  0  0
  -28.1059  -36.2638   24.6297 H   0  0  0  0  0  0
  -27.2300  -37.1484   25.8868 H   0  0  0  0  0  0
  -20.9258  -29.8737   21.6980 H   0  0  0  0  0  0
  -26.0193  -38.2896   24.1394 H   0  0  0  0  0  0
  -31.4046  -22.1206   23.9662 H   0  0  0  0  0  0
  -32.0305  -24.4633   23.3982 H   0  0  0  0  0  0
  -30.2732  -20.2777   19.3348 H   0  0  0  0  0  0
  -28.5025  -19.8893   19.0167 H   0  0  0  0  0  0
  -28.2459  -22.0741   17.8476 H   0  0  0  0  0  0
  -30.0111  -22.4713   18.1853 H   0  0  0  0  0  0
  -32.2710  -17.1851   21.4973 H   0  0  0  0  0  0
  -32.4805  -17.4349   23.2130 H   0  0  0  0  0  0
  -28.5276  -17.9969   21.5708 H   0  0  0  0  0  0
  -29.8094  -17.5450   20.4755 H   0  0  0  0  0  0
  -30.9949  -15.5162   23.7303 H   0  0  0  0  0  0
  -32.2949  -15.0088   22.6921 H   0  0  0  0  0  0
  -28.4306  -15.6205   21.0710 H   0  0  0  0  0  0
  -28.6950  -15.8505   22.7742 H   0  0  0  0  0  0
  -27.8002  -21.9390   20.3273 H   0  0  0  0  0  0
  -30.1032  -17.9787   23.4931 H   0  0  0  0  0  0
  -28.8726  -20.1696   22.0291 H   0  0  0  0  0  0
  -29.6078  -20.3655   23.5890 H   0  0  0  0  0  0
  -29.7523  -28.2154   19.7290 H   0  0  0  0  0  0
  -29.6707  -27.6422   21.3909 H   0  0  0  0  0  0
  -31.6611  -26.9986   19.7205 H   0  0  0  0  0  0
  -30.6211  -25.7121   19.2218 H   0  0  0  0  0  0
  -31.1099  -19.5024   21.2061 H   0  0  0  0  0  0
  -31.6802  -19.6520   22.7154 H   0  0  0  0  0  0
  1 25  1  0  0  0
  1 30  2  0  0  0
  1 88  1  0  0  0
  2  3  1  0  0  0
  2 25  1  0  0  0
  2 91  1  0  0  0
  2 92  1  0  0  0
  3  4  1  0  0  0
  3 93  1  0  0  0
  3 94  1  0  0  0
  4  5  1  0  0  0
  4 95  1  0  0  0
  4 96  1  0  0  0
  5  6  1  0  0  0
  5 26  1  0  0  0
  5 97  1  0  0  0
  6 25  1  0  0  0
  6 98  1  0  0  0
  6 99  1  0  0  0
  7  8  2  0  0  0
  7 26  1  0  0  0
  7 29  1  0  0  0
  8  9  1  0  0  0
  8 22  1  0  0  0
  9 10  1  0  0  0
  9 27  2  0  0  0
 10 11  2  0  0  0
 10 15  1  0  0  0
 11 12  1  0  0  0
 11100  1  0  0  0
 12 13  2  0  0  0
 12101  1  0  0  0
 13 14  1  0  0  0
 13 31  1  0  0  0
 14 15  2  0  0  0
 14102  1  0  0  0
 15103  1  0  0  0
 16 17  2  0  0  0
 16 21  1  0  0  0
 16 31  1  0  0  0
 17 18  1  0  0  0
 17104  1  0  0  0
 18 19  2  0  0  0
 18105  1  0  0  0
 19 20  1  0  0  0
 19 24  1  0  0  0
 20 21  2  0  0  0
 20106  1  0  0  0
 21 23  1  0  0  0
 22 28  1  0  0  0
 22 32  2  0  0  0
 26 27  1  0  0  0
 28107  1  0  0  0
 28108  1  0  0  0
 29109  1  0  0  0
 29110  1  0  0  0
 33 34  1  0  0  0
 33 66  1  0  0  0
 33 70  2  0  0  0
 34 36  1  0  0  0
 34 59  1  0  0  0
 34111  1  0  0  0
 35 44  2  0  0  0
 35 45  1  0  0  0
 35 68  1  0  0  0
 36 56  1  0  0  0
 36112  1  0  0  0
 37 39  1  0  0  0
 37 47  1  0  0  0
 37 66  1  0  0  0
 37113  1  0  0  0
 38 43  2  0  0  0
 38 46  1  0  0  0
 38 47  1  0  0  0
 39 64  1  0  0  0
 39 67  2  0  0  0
 40 52  1  0  0  0
 40 53  2  0  0  0
 40 58  1  0  0  0
 41114  1  0  0  0
 41115  1  0  0  0
 41116  1  0  0  0
 41 48  1  0  0  0
 42 43  1  0  0  0
 42 66  1  0  0  0
 42117  1  0  0  0
 42118  1  0  0  0
 43 44  1  0  0  0
 44119  1  0  0  0
 45 46  2  0  0  0
 45120  1  0  0  0
 46121  1  0  0  0
 47122  1  0  0  0
 47123  1  0  0  0
 48 56  1  0  0  0
 48 65  1  0  0  0
 48124  1  0  0  0
 49 50  1  0  0  0
 49 53  1  0  0  0
 49 64  1  0  0  0
 49125  1  0  0  0
 50 51  1  0  0  0
 50126  1  0  0  0
 50127  1  0  0  0
 51 52  1  0  0  0
 51128  1  0  0  0
 51129  1  0  0  0
 52130  1  0  0  0
 52131  1  0  0  0
 53 54  1  0  0  0
 54 55  2  0  0  0
 54132  1  0  0  0
 55 57  1  0  0  0
 55133  1  0  0  0
 56 69  2  0  0  0
 57 58  2  0  0  0
 57134  1  0  0  0
 58135  1  0  0  0
 59 60  1  0  0  0
 59 61  1  0  0  0
 59 62  1  0  0  0
 60136  1  0  0  0
 60137  1  0  0  0
 60138  1  0  0  0
 61139  1  0  0  0
 61140  1  0  0  0
 61141  1  0  0  0
 62142  1  0  0  0
 62143  1  0  0  0
 62144  1  0  0  0
 63 65  1  0  0  0
 63145  1  0  0  0
 63146  1  0  0  0
 63147  1  0  0  0
 64148  1  0  0  0
 65149  1  0  0  0
 68 85  1  0  0  0
 71 72  2  0  0  0
 71 73  1  0  0  0
 71150  1  0  0  0
 72 75  1  0  0  0
 72151  1  0  0  0
 73 74  2  0  0  0
 73 84  1  0  0  0
 74 87  1  0  0  0
 74 82  1  0  0  0
 75 87  2  0  0  0
 75 90  1  0  0  0
 76 77  1  0  0  0
 76 82  1  0  0  0
 76152  1  0  0  0
 76153  1  0  0  0
 77 82  1  0  0  0
 77154  1  0  0  0
 77155  1  0  0  0
 78 80  1  0  0  0
 78 83  1  0  0  0
 78156  1  0  0  0
 78157  1  0  0  0
 79 81  1  0  0  0
 79 83  1  0  0  0
 79158  1  0  0  0
 79159  1  0  0  0
 80 88  1  0  0  0
 80160  1  0  0  0
 80161  1  0  0  0
 81 88  1  0  0  0
 81162  1  0  0  0
 81163  1  0  0  0
 82164  1  0  0  0
 83 89  1  0  0  0
 83165  1  0  0  0
 84 89  1  0  0  0
 84166  1  0  0  0
 84167  1  0  0  0
 85 86  1  0  0  0
 85168  1  0  0  0
 85169  1  0  0  0
 86 90  1  0  0  0
 86170  1  0  0  0
 86171  1  0  0  0
 89172  1  0  0  0
 89173  1  0  0  0
M  CHG  1  89   1
M  ISO  4   1 100  68 101  85 101  88 100
M  END
> <chiral flag>
0

> <version>
0

> <s_m_source_file>
/data/baiqing/PycharmProjects/Reinvent-master-3.2/result/LINK_invent/BTK/process_docking_weight1_custom_sum_contain_oxygen_bond_distance_aromatic_linkinvent_7_9_3/rearranged_h_0133.sdf

> <i_m_source_file_index>
87

> <r_mmod_Potential_Energy-OPLS-2005>
-183.771148681641

> <r_mmod_Stretch_Energy-OPLS-2005>
37.0308151245117

> <r_mmod_Bend_Energy-OPLS-2005>
114.534843444824

> <r_mmod_Torsional_Energy-OPLS-2005>
301.393615722656

> <r_mmod_Improper_Torsional_Energy-OPLS-2005>
5.91421461105347

> <r_mmod_Van_der_Waal_Energy-OPLS-2005>
162.471435546875

> <r_mmod_Electrostatic_Energy-OPLS-2005>
-352.297821044922

> <r_mmod_Solvation_Energy-OPLS-2005>
-459.344299316406

> <b_mmod_Minimization_Converged-OPLS-2005>
0

> <r_mmod_RMS_Derivative-OPLS-2005>
0.479823529720306

$$$$
88
                    3D
 Structure written by MMmdl.
159167  0  0  1  0            999 V2000
  -30.7742  -14.3474   20.6911 C   0  0  0  0  0  0
  -30.4140  -12.2840   19.3891 C   0  0  0  0  0  0
  -29.4812  -12.5266   18.1889 C   0  0  0  0  0  0
  -28.0062  -12.3819   18.6070 C   0  0  0  0  0  0
  -27.6662  -13.2019   19.8790 C   0  0  2  0  0  0
  -28.7029  -12.9381   20.9925 C   0  0  0  0  0  0
  -25.2604  -13.8158   20.5666 C   0  0  0  0  0  0
  -24.1845  -13.0441   20.9158 C   0  0  0  0  0  0
  -24.6390  -11.6906   20.8721 C   0  0  0  0  0  0
  -23.9054  -10.4294   21.0399 C   0  0  0  0  0  0
  -24.3609   -9.4212   21.9179 C   0  0  0  0  0  0
  -23.6287   -8.2247   22.0753 C   0  0  0  0  0  0
  -22.4270   -8.0281   21.3544 C   0  0  0  0  0  0
  -21.9901   -9.0253   20.4646 C   0  0  0  0  0  0
  -22.7226  -10.2134   20.3052 C   0  0  0  0  0  0
  -21.6852   -6.0734   22.5279 C   0  0  0  0  0  0
  -21.4014   -6.5638   23.8212 C   0  0  0  0  0  0
  -21.3659   -5.6792   24.9174 C   0  0  0  0  0  0
  -21.6044   -4.3055   24.7226 C   0  0  0  0  0  0
  -21.8819   -3.8146   23.4347 C   0  0  0  0  0  0
  -21.9193   -4.6962   22.3403 C   0  0  0  0  0  0
  -22.7870  -13.5245   21.1832 C   0  0  0  0  0  0
  -22.1661   -4.2148   21.0980 F   0  0  0  0  0  0
  -21.5629   -3.4539   25.7739 F   0  0  0  0  0  0
  -30.0476  -13.2253   20.4567 N   0  0  0  0  0  0
  -26.3042  -12.9321   20.3371 N   0  0  0  0  0  0
  -25.9313  -11.6482   20.5748 N   0  0  0  0  0  0
  -22.0510  -12.8240   22.0392 N   0  0  0  0  0  0
  -25.4345  -15.1871   20.4080 N   0  0  0  0  0  0
  -31.7942  -14.6413   20.0594 O   0  0  0  0  0  0
  -21.6637   -6.8877   21.4241 O   0  0  0  0  0  0
  -22.3556  -14.5554   20.6688 O   0  0  0  0  0  0
  -24.6114  -31.8698   23.2119 C   0  0  0  0  0  0
  -25.9022  -32.4830   23.8403 C   0  0  1  0  0  0
  -27.2380  -27.4642   20.0815 C   0  0  0  0  0  0
  -25.5892  -33.8629   24.2336 N   0  0  0  0  0  0
  -23.3963  -30.4936   21.5527 C   0  0  2  0  0  0
  -24.8398  -28.9599   20.1175 C   0  0  0  0  0  0
  -22.7384  -29.4670   22.5017 C   0  0  0  0  0  0
  -18.0264  -28.1373   22.8501 C   0  0  0  0  0  0
  -24.1487  -36.7319   23.2639 C   0  0  0  0  0  0
  -25.9214  -30.8443   21.3583 C   0  0  0  0  0  0
  -25.9980  -29.4805   20.7057 C   0  0  0  0  0  0
  -27.1975  -28.7401   20.6822 C   0  0  0  0  0  0
  -26.0561  -26.9434   19.5043 C   0  0  0  0  0  0
  -24.8619  -27.6888   19.5174 C   0  0  0  0  0  0
  -23.6011  -29.8238   20.1675 C   0  0  0  0  0  0
  -25.4108  -36.3117   24.0339 C   0  0  1  0  0  0
  -20.5850  -28.3652   23.1336 C   0  0  2  0  0  0
  -20.6756  -26.9395   22.5422 C   0  0  0  0  0  0
  -19.5735  -26.6387   21.5217 C   0  0  0  0  0  0
  -18.1912  -26.7922   22.1627 C   0  0  0  0  0  0
  -19.1512  -28.8829   23.2916 C   0  0  0  0  0  0
  -18.9443  -30.1439   23.8921 C   0  0  0  0  0  0
  -17.6447  -30.6583   24.0569 C   0  0  0  0  0  0
  -25.9031  -34.9481   23.5134 C   0  0  0  0  0  0
  -16.5339  -29.9088   23.6326 C   0  0  0  0  0  0
  -16.7255  -28.6502   23.0351 C   0  0  0  0  0  0
  -26.4464  -31.6603   25.0720 C   0  0  0  0  0  0
  -25.3747  -31.3691   26.1481 C   0  0  0  0  0  0
  -27.0293  -30.3055   24.6068 C   0  0  0  0  0  0
  -27.6048  -32.4316   25.7477 C   0  0  0  0  0  0
  -27.5581  -37.1814   24.8467 C   0  0  0  0  0  0
  -21.4117  -29.3028   22.3752 N   0  0  0  0  0  0
  -26.4297  -37.3798   23.9407 N   0  0  0  0  0  0
  -24.6614  -31.0826   22.1001 N   0  0  0  0  0  0
  -23.4173  -28.8215   23.3048 O   0  0  0  0  0  0
  -28.4446  -26.8010   20.0785 O   0  0  0  0  0  0
  -26.5592  -34.8927   22.4694 O   0  0  0  0  0  0
  -23.5319  -32.1437   23.7539 O   0  0  0  0  0  0
  -30.0137  -19.5886   19.3850 C   0  0  0  0  0  0
  -27.8717  -19.5268   20.5342 C   0  0  0  0  0  0
  -29.6852  -20.8424   18.8356 C   0  0  0  0  0  0
  -27.5467  -20.7841   19.9886 C   0  0  0  0  0  0
  -29.1170  -18.9301   20.2561 C   0  0  0  0  0  0
  -28.4558  -21.4668   19.1566 C   0  0  0  0  0  0
  -28.6710  -25.0343   18.3835 C   0  0  0  0  0  0
  -30.8290  -17.4841   21.2171 C   0  0  0  0  0  0
  -30.9893  -16.3118   22.1985 C   0  0  0  0  0  0
  -29.1047  -23.5742   18.2030 C   0  0  0  0  0  0
  -28.4778  -25.3928   19.8673 C   0  0  0  0  0  0
  -29.4313  -17.7064   20.8604 N   0  0  0  0  0  0
  -30.3425  -15.0975   21.7104 N   0  0  0  0  0  0
  -28.0851  -22.7154   18.7082 O   0  0  0  0  0  0
  -31.4570  -12.3835   19.0831 H   0  0  0  0  0  0
  -30.3105  -11.2599   19.7508 H   0  0  0  0  0  0
  -29.7118  -11.8265   17.3848 H   0  0  0  0  0  0
  -29.6528  -13.5256   17.7848 H   0  0  0  0  0  0
  -27.8123  -11.3235   18.7851 H   0  0  0  0  0  0
  -27.3521  -12.6759   17.7853 H   0  0  0  0  0  0
  -27.7272  -14.2569   19.6103 H   0  0  0  0  0  0
  -28.6611  -11.8940   21.3061 H   0  0  0  0  0  0
  -28.4487  -13.5134   21.8825 H   0  0  0  0  0  0
  -25.2756   -9.5690   22.4750 H   0  0  0  0  0  0
  -23.9999   -7.4640   22.7473 H   0  0  0  0  0  0
  -21.0832   -8.8768   19.8953 H   0  0  0  0  0  0
  -22.3683  -10.9670   19.6159 H   0  0  0  0  0  0
  -21.2006   -7.6146   23.9715 H   0  0  0  0  0  0
  -21.1481   -6.0522   25.9077 H   0  0  0  0  0  0
  -22.0599   -2.7608   23.2847 H   0  0  0  0  0  0
  -22.4121  -11.9896   22.4776 H   0  0  0  0  0  0
  -21.1132  -13.1274   22.2604 H   0  0  0  0  0  0
  -24.6731  -15.8480   20.5167 H   0  0  0  0  0  0
  -26.2970  -15.6221   20.1033 H   0  0  0  0  0  0
  -26.7094  -32.5548   23.1170 H   0  0  0  0  0  0
  -25.0061  -33.9797   25.0494 H   0  0  0  0  0  0
  -22.6837  -31.3095   21.4151 H   0  0  0  0  0  0
  -23.3744  -35.9658   23.3319 H   0  0  0  0  0  0
  -24.3579  -36.8914   22.2050 H   0  0  0  0  0  0
  -23.7247  -37.6533   23.6640 H   0  0  0  0  0  0
  -26.0280  -31.6117   20.5904 H   0  0  0  0  0  0
  -26.8117  -30.8983   21.9730 H   0  0  0  0  0  0
  -28.0958  -29.1452   21.1272 H   0  0  0  0  0  0
  -26.0376  -25.9727   19.0331 H   0  0  0  0  0  0
  -23.9688  -27.2797   19.0650 H   0  0  0  0  0  0
  -23.7058  -30.5971   19.4058 H   0  0  0  0  0  0
  -22.7255  -29.2411   19.8751 H   0  0  0  0  0  0
  -25.1286  -36.1988   25.0833 H   0  0  0  0  0  0
  -20.9941  -28.3210   24.1456 H   0  0  0  0  0  0
  -20.5667  -26.2257   23.3601 H   0  0  0  0  0  0
  -21.6628  -26.7447   22.1210 H   0  0  0  0  0  0
  -19.6898  -25.6304   21.1228 H   0  0  0  0  0  0
  -19.6673  -27.3212   20.6760 H   0  0  0  0  0  0
  -17.4185  -26.6678   21.4025 H   0  0  0  0  0  0
  -18.0309  -26.0054   22.9012 H   0  0  0  0  0  0
  -19.7919  -30.7250   24.2299 H   0  0  0  0  0  0
  -17.5002  -31.6266   24.5165 H   0  0  0  0  0  0
  -15.5341  -30.2999   23.7634 H   0  0  0  0  0  0
  -15.8653  -28.0829   22.7057 H   0  0  0  0  0  0
  -24.5915  -30.7041   25.7821 H   0  0  0  0  0  0
  -24.8944  -32.2840   26.4961 H   0  0  0  0  0  0
  -25.8119  -30.8841   27.0217 H   0  0  0  0  0  0
  -26.2822  -29.6815   24.1148 H   0  0  0  0  0  0
  -27.4110  -29.7290   25.4504 H   0  0  0  0  0  0
  -27.8633  -30.4392   23.9174 H   0  0  0  0  0  0
  -27.2675  -33.3603   26.2090 H   0  0  0  0  0  0
  -28.3838  -32.6896   25.0289 H   0  0  0  0  0  0
  -28.0738  -31.8418   26.5361 H   0  0  0  0  0  0
  -28.2611  -38.0100   24.7508 H   0  0  0  0  0  0
  -28.1064  -36.2633   24.6304 H   0  0  0  0  0  0
  -27.2296  -37.1481   25.8869 H   0  0  0  0  0  0
  -20.9270  -29.8752   21.6981 H   0  0  0  0  0  0
  -26.0189  -38.2879   24.1404 H   0  0  0  0  0  0
  -30.9658  -19.1491   19.1255 H   0  0  0  0  0  0
  -27.1608  -19.0391   21.1863 H   0  0  0  0  0  0
  -30.4003  -21.3077   18.1734 H   0  0  0  0  0  0
  -26.5967  -21.2382   20.2318 H   0  0  0  0  0  0
  -27.7655  -25.2298   17.8107 H   0  0  0  0  0  0
  -29.4438  -25.6766   17.9603 H   0  0  0  0  0  0
  -31.4073  -17.2855   20.3134 H   0  0  0  0  0  0
  -31.2490  -18.3877   21.6641 H   0  0  0  0  0  0
  -30.5537  -16.5701   23.1646 H   0  0  0  0  0  0
  -32.0481  -16.1204   22.3836 H   0  0  0  0  0  0
  -30.0506  -23.4394   18.7302 H   0  0  0  0  0  0
  -29.2794  -23.3545   17.1489 H   0  0  0  0  0  0
  -29.3339  -25.0239   20.4332 H   0  0  0  0  0  0
  -27.6102  -24.8892   20.2967 H   0  0  0  0  0  0
  -28.7526  -17.3450   21.5240 H   0  0  0  0  0  0
  -29.5129  -14.7840   22.1908 H   0  0  0  0  0  0
  1 25  1  0  0  0
  1 30  2  0  0  0
  1 83  1  0  0  0
  2  3  1  0  0  0
  2 25  1  0  0  0
  2 85  1  0  0  0
  2 86  1  0  0  0
  3  4  1  0  0  0
  3 87  1  0  0  0
  3 88  1  0  0  0
  4  5  1  0  0  0
  4 89  1  0  0  0
  4 90  1  0  0  0
  5  6  1  0  0  0
  5 26  1  0  0  0
  5 91  1  0  0  0
  6 25  1  0  0  0
  6 92  1  0  0  0
  6 93  1  0  0  0
  7  8  2  0  0  0
  7 26  1  0  0  0
  7 29  1  0  0  0
  8  9  1  0  0  0
  8 22  1  0  0  0
  9 10  1  0  0  0
  9 27  2  0  0  0
 10 11  2  0  0  0
 10 15  1  0  0  0
 11 12  1  0  0  0
 11 94  1  0  0  0
 12 13  2  0  0  0
 12 95  1  0  0  0
 13 14  1  0  0  0
 13 31  1  0  0  0
 14 15  2  0  0  0
 14 96  1  0  0  0
 15 97  1  0  0  0
 16 17  2  0  0  0
 16 21  1  0  0  0
 16 31  1  0  0  0
 17 18  1  0  0  0
 17 98  1  0  0  0
 18 19  2  0  0  0
 18 99  1  0  0  0
 19 20  1  0  0  0
 19 24  1  0  0  0
 20 21  2  0  0  0
 20100  1  0  0  0
 21 23  1  0  0  0
 22 28  1  0  0  0
 22 32  2  0  0  0
 26 27  1  0  0  0
 28101  1  0  0  0
 28102  1  0  0  0
 29103  1  0  0  0
 29104  1  0  0  0
 33 34  1  0  0  0
 33 66  1  0  0  0
 33 70  2  0  0  0
 34 36  1  0  0  0
 34 59  1  0  0  0
 34105  1  0  0  0
 35 44  2  0  0  0
 35 45  1  0  0  0
 35 68  1  0  0  0
 36 56  1  0  0  0
 36106  1  0  0  0
 37 39  1  0  0  0
 37 47  1  0  0  0
 37 66  1  0  0  0
 37107  1  0  0  0
 38 43  2  0  0  0
 38 46  1  0  0  0
 38 47  1  0  0  0
 39 64  1  0  0  0
 39 67  2  0  0  0
 40 52  1  0  0  0
 40 53  2  0  0  0
 40 58  1  0  0  0
 41108  1  0  0  0
 41109  1  0  0  0
 41110  1  0  0  0
 41 48  1  0  0  0
 42 43  1  0  0  0
 42 66  1  0  0  0
 42111  1  0  0  0
 42112  1  0  0  0
 43 44  1  0  0  0
 44113  1  0  0  0
 45 46  2  0  0  0
 45114  1  0  0  0
 46115  1  0  0  0
 47116  1  0  0  0
 47117  1  0  0  0
 48 56  1  0  0  0
 48 65  1  0  0  0
 48118  1  0  0  0
 49 50  1  0  0  0
 49 53  1  0  0  0
 49 64  1  0  0  0
 49119  1  0  0  0
 50 51  1  0  0  0
 50120  1  0  0  0
 50121  1  0  0  0
 51 52  1  0  0  0
 51122  1  0  0  0
 51123  1  0  0  0
 52124  1  0  0  0
 52125  1  0  0  0
 53 54  1  0  0  0
 54 55  2  0  0  0
 54126  1  0  0  0
 55 57  1  0  0  0
 55127  1  0  0  0
 56 69  2  0  0  0
 57 58  2  0  0  0
 57128  1  0  0  0
 58129  1  0  0  0
 59 60  1  0  0  0
 59 61  1  0  0  0
 59 62  1  0  0  0
 60130  1  0  0  0
 60131  1  0  0  0
 60132  1  0  0  0
 61133  1  0  0  0
 61134  1  0  0  0
 61135  1  0  0  0
 62136  1  0  0  0
 62137  1  0  0  0
 62138  1  0  0  0
 63 65  1  0  0  0
 63139  1  0  0  0
 63140  1  0  0  0
 63141  1  0  0  0
 64142  1  0  0  0
 65143  1  0  0  0
 68 81  1  0  0  0
 71 73  2  0  0  0
 71 75  1  0  0  0
 71144  1  0  0  0
 72 74  1  0  0  0
 72 75  2  0  0  0
 72145  1  0  0  0
 73 76  1  0  0  0
 73146  1  0  0  0
 74 76  2  0  0  0
 74147  1  0  0  0
 75 82  1  0  0  0
 76 84  1  0  0  0
 77 80  1  0  0  0
 77 81  1  0  0  0
 77148  1  0  0  0
 77149  1  0  0  0
 78 79  1  0  0  0
 78 82  1  0  0  0
 78150  1  0  0  0
 78151  1  0  0  0
 79 83  1  0  0  0
 79152  1  0  0  0
 79153  1  0  0  0
 80 84  1  0  0  0
 80154  1  0  0  0
 80155  1  0  0  0
 81156  1  0  0  0
 81157  1  0  0  0
 82158  1  0  0  0
 83159  1  0  0  0
M  ISO  4   1 100  68 101  81 101  83 100
M  END
> <chiral flag>
0

> <version>
0

> <s_m_source_file>
/data/baiqing/PycharmProjects/Reinvent-master-3.2/result/LINK_invent/BTK/process_docking_weight1_custom_sum_contain_oxygen_bond_distance_aromatic_linkinvent_7_9_3/rearranged_h_0133.sdf

> <i_m_source_file_index>
88

> <r_mmod_Potential_Energy-OPLS-2005>
-186.656829833984

> <r_mmod_Stretch_Energy-OPLS-2005>
31.6454219818115

> <r_mmod_Bend_Energy-OPLS-2005>
101.292526245117

> <r_mmod_Torsional_Energy-OPLS-2005>
204.011032104492

> <r_mmod_Improper_Torsional_Energy-OPLS-2005>
5.07548713684082

> <r_mmod_Van_der_Waal_Energy-OPLS-2005>
164.560897827148

> <r_mmod_Electrostatic_Energy-OPLS-2005>
-480.355163574219

> <r_mmod_Solvation_Energy-OPLS-2005>
-220.578231811523

> <b_mmod_Minimization_Converged-OPLS-2005>
0

> <r_mmod_RMS_Derivative-OPLS-2005>
0.218926697969437

$$$$
89
                    3D
 Structure written by MMmdl.
168176  0  0  1  0            999 V2000
  -30.7304  -14.3562   20.6830 C   0  0  0  0  0  0
  -30.4234  -12.2786   19.3823 C   0  0  0  0  0  0
  -29.4853  -12.5244   18.1843 C   0  0  0  0  0  0
  -28.0072  -12.3874   18.6007 C   0  0  0  0  0  0
  -27.6708  -13.1928   19.8835 C   0  0  2  0  0  0
  -28.7056  -12.8928   20.9862 C   0  0  0  0  0  0
  -25.2632  -13.8108   20.5654 C   0  0  0  0  0  0
  -24.1860  -13.0425   20.9145 C   0  0  0  0  0  0
  -24.6388  -11.6880   20.8700 C   0  0  0  0  0  0
  -23.9044  -10.4286   21.0379 C   0  0  0  0  0  0
  -24.3605   -9.4212   21.9167 C   0  0  0  0  0  0
  -23.6284   -8.2247   22.0745 C   0  0  0  0  0  0
  -22.4268   -8.0278   21.3537 C   0  0  0  0  0  0
  -21.9893   -9.0244   20.4642 C   0  0  0  0  0  0
  -22.7208  -10.2126   20.3041 C   0  0  0  0  0  0
  -21.6860   -6.0718   22.5280 C   0  0  0  0  0  0
  -21.4013   -6.5632   23.8200 C   0  0  0  0  0  0
  -21.3661   -5.6791   24.9180 C   0  0  0  0  0  0
  -21.6049   -4.3052   24.7237 C   0  0  0  0  0  0
  -21.8823   -3.8140   23.4360 C   0  0  0  0  0  0
  -21.9190   -4.6946   22.3419 C   0  0  0  0  0  0
  -22.7897  -13.5248   21.1853 C   0  0  0  0  0  0
  -22.1672   -4.2125   21.0991 F   0  0  0  0  0  0
  -21.5638   -3.4544   25.7753 F   0  0  0  0  0  0
  -30.0481  -13.2058   20.4582 N   0  0  0  0  0  0
  -26.3080  -12.9265   20.3391 N   0  0  0  0  0  0
  -25.9304  -11.6432   20.5717 N   0  0  0  0  0  0
  -22.0563  -12.8205   22.0409 N   0  0  0  0  0  0
  -25.4409  -15.1836   20.4068 N   0  0  0  0  0  0
  -31.7551  -14.6815   20.0758 O   0  0  0  0  0  0
  -21.6644   -6.8865   21.4233 O   0  0  0  0  0  0
  -22.3590  -14.5591   20.6751 O   0  0  0  0  0  0
  -24.6116  -31.8725   23.2108 C   0  0  0  0  0  0
  -25.9021  -32.4836   23.8385 C   0  0  1  0  0  0
  -27.2257  -27.4716   20.0874 C   0  0  0  0  0  0
  -25.5888  -33.8634   24.2320 N   0  0  0  0  0  0
  -23.3944  -30.4959   21.5541 C   0  0  2  0  0  0
  -24.8402  -28.9635   20.1212 C   0  0  0  0  0  0
  -22.7366  -29.4693   22.5027 C   0  0  0  0  0  0
  -18.0264  -28.1399   22.8472 C   0  0  0  0  0  0
  -24.1499  -36.7332   23.2634 C   0  0  0  0  0  0
  -25.9196  -30.8514   21.3535 C   0  0  0  0  0  0
  -25.9993  -29.4847   20.7103 C   0  0  0  0  0  0
  -27.2008  -28.7460   20.6909 C   0  0  0  0  0  0
  -26.0540  -26.9531   19.4983 C   0  0  0  0  0  0
  -24.8593  -27.6954   19.5142 C   0  0  0  0  0  0
  -23.5985  -29.8229   20.1710 C   0  0  0  0  0  0
  -25.4117  -36.3122   24.0334 C   0  0  1  0  0  0
  -20.5844  -28.3683   23.1341 C   0  0  2  0  0  0
  -20.6781  -26.9409   22.5458 C   0  0  0  0  0  0
  -19.5766  -26.6364   21.5263 C   0  0  0  0  0  0
  -18.1933  -26.7914   22.1651 C   0  0  0  0  0  0
  -19.1507  -28.8852   23.2906 C   0  0  0  0  0  0
  -18.9427  -30.1476   23.8873 C   0  0  0  0  0  0
  -17.6427  -30.6595   24.0540 C   0  0  0  0  0  0
  -25.9046  -34.9485   23.5126 C   0  0  0  0  0  0
  -16.5323  -29.9087   23.6313 C   0  0  0  0  0  0
  -16.7251  -28.6504   23.0346 C   0  0  0  0  0  0
  -26.4459  -31.6594   25.0695 C   0  0  0  0  0  0
  -25.3730  -31.3708   26.1449 C   0  0  0  0  0  0
  -27.0268  -30.3040   24.6015 C   0  0  0  0  0  0
  -27.6044  -32.4298   25.7465 C   0  0  0  0  0  0
  -27.5582  -37.1824   24.8459 C   0  0  0  0  0  0
  -21.4106  -29.3056   22.3751 N   0  0  0  0  0  0
  -26.4296  -37.3796   23.9407 N   0  0  0  0  0  0
  -24.6612  -31.0860   22.0988 N   0  0  0  0  0  0
  -23.4170  -28.8256   23.3054 O   0  0  0  0  0  0
  -28.3847  -26.7453   20.0489 O   0  0  0  0  0  0
  -26.5600  -34.8926   22.4690 O   0  0  0  0  0  0
  -23.5338  -32.1436   23.7547 O   0  0  0  0  0  0
  -28.2049  -20.9797   20.2982 C   0  0  0  0  0  0
  -28.8645  -19.8829   20.8739 C   0  0  0  0  0  0
  -27.9261  -20.4626   23.0413 C   0  0  0  0  0  0
  -27.4098  -21.8450   21.0856 C   0  0  0  0  0  0
  -27.2434  -21.5571   22.4678 C   0  0  0  0  0  0
  -28.7418  -19.6265   22.2523 C   0  0  0  0  0  0
  -26.3263  -22.3817   23.3573 C   0  0  0  0  0  0
  -29.1824  -17.2585   22.2048 C   0  0  0  0  0  0
  -30.4942  -16.5046   21.9499 C   0  0  0  0  0  0
  -28.9121  -24.4510   20.5072 C   0  0  0  0  0  0
  -28.5064  -25.8021   21.1094 C   0  0  0  0  0  0
  -25.6120  -22.6969   19.4967 C   0  0  0  0  0  0
  -26.7930  -23.0818   20.4206 C   0  0  2  0  0  0
  -29.4058  -18.5475   22.8425 N   0  0  0  0  0  0
  -30.1728  -15.1298   21.6198 N   0  0  0  0  0  0
  -27.8445  -23.8230   19.6844 N   0  3  0  0  0  0
  -24.4931  -22.2455   20.2472 O   0  0  0  0  0  0
  -31.4651  -12.3997   19.0786 H   0  0  0  0  0  0
  -30.3303  -11.2483   19.7335 H   0  0  0  0  0  0
  -29.7115  -11.8224   17.3790 H   0  0  0  0  0  0
  -29.6596  -13.5219   17.7763 H   0  0  0  0  0  0
  -27.8052  -11.3284   18.7667 H   0  0  0  0  0  0
  -27.3552  -12.6971   17.7838 H   0  0  0  0  0  0
  -27.7405  -14.2525   19.6353 H   0  0  0  0  0  0
  -28.6692  -11.8364   21.2518 H   0  0  0  0  0  0
  -28.4452  -13.4146   21.9073 H   0  0  0  0  0  0
  -25.2759   -9.5691   22.4734 H   0  0  0  0  0  0
  -23.9999   -7.4639   22.7464 H   0  0  0  0  0  0
  -21.0826   -8.8765   19.8955 H   0  0  0  0  0  0
  -22.3672  -10.9662   19.6162 H   0  0  0  0  0  0
  -21.1993   -7.6137   23.9698 H   0  0  0  0  0  0
  -21.1492   -6.0532   25.9076 H   0  0  0  0  0  0
  -22.0588   -2.7592   23.2880 H   0  0  0  0  0  0
  -22.4189  -11.9847   22.4757 H   0  0  0  0  0  0
  -21.1191  -13.1221   22.2651 H   0  0  0  0  0  0
  -24.6801  -15.8460   20.5142 H   0  0  0  0  0  0
  -26.3026  -15.6141   20.0955 H   0  0  0  0  0  0
  -26.7105  -32.5562   23.1178 H   0  0  0  0  0  0
  -25.0011  -33.9785   25.0442 H   0  0  0  0  0  0
  -22.6827  -31.3121   21.4136 H   0  0  0  0  0  0
  -23.3740  -35.9684   23.3307 H   0  0  0  0  0  0
  -24.3589  -36.8932   22.2043 H   0  0  0  0  0  0
  -23.7282  -37.6559   23.6639 H   0  0  0  0  0  0
  -26.0138  -31.6101   20.5746 H   0  0  0  0  0  0
  -26.8177  -30.9188   21.9564 H   0  0  0  0  0  0
  -28.1027  -29.1467   21.1343 H   0  0  0  0  0  0
  -26.0558  -25.9871   19.0169 H   0  0  0  0  0  0
  -23.9644  -27.2893   19.0655 H   0  0  0  0  0  0
  -23.6985  -30.5919   19.4045 H   0  0  0  0  0  0
  -22.7238  -29.2357   19.8836 H   0  0  0  0  0  0
  -25.1301  -36.1977   25.0825 H   0  0  0  0  0  0
  -20.9930  -28.3265   24.1467 H   0  0  0  0  0  0
  -20.5707  -26.2286   23.3648 H   0  0  0  0  0  0
  -21.6661  -26.7509   22.1241 H   0  0  0  0  0  0
  -19.6951  -25.6281   21.1312 H   0  0  0  0  0  0
  -19.6706  -27.3151   20.6780 H   0  0  0  0  0  0
  -17.4200  -26.6656   21.4057 H   0  0  0  0  0  0
  -18.0316  -26.0089   22.9089 H   0  0  0  0  0  0
  -19.7899  -30.7320   24.2201 H   0  0  0  0  0  0
  -17.4976  -31.6281   24.5129 H   0  0  0  0  0  0
  -15.5325  -30.2968   23.7657 H   0  0  0  0  0  0
  -15.8663  -28.0833   22.7027 H   0  0  0  0  0  0
  -24.5894  -30.7061   25.7796 H   0  0  0  0  0  0
  -24.8926  -32.2871   26.4888 H   0  0  0  0  0  0
  -25.8072  -30.8883   27.0212 H   0  0  0  0  0  0
  -26.2784  -29.6829   24.1073 H   0  0  0  0  0  0
  -27.4072  -29.7235   25.4432 H   0  0  0  0  0  0
  -27.8604  -30.4369   23.9111 H   0  0  0  0  0  0
  -27.2658  -33.3574   26.2090 H   0  0  0  0  0  0
  -28.3835  -32.6895   25.0288 H   0  0  0  0  0  0
  -28.0731  -31.8388   26.5343 H   0  0  0  0  0  0
  -28.2617  -38.0102   24.7497 H   0  0  0  0  0  0
  -28.1058  -36.2640   24.6303 H   0  0  0  0  0  0
  -27.2287  -37.1496   25.8853 H   0  0  0  0  0  0
  -20.9284  -29.8705   21.6902 H   0  0  0  0  0  0
  -26.0187  -38.2878   24.1386 H   0  0  0  0  0  0
  -28.3401  -21.1502   19.2383 H   0  0  0  0  0  0
  -29.4856  -19.2543   20.2509 H   0  0  0  0  0  0
  -27.7986  -20.2530   24.0959 H   0  0  0  0  0  0
  -26.7179  -23.3888   23.5064 H   0  0  0  0  0  0
  -26.2030  -21.9244   24.3383 H   0  0  0  0  0  0
  -25.3283  -22.4499   22.9203 H   0  0  0  0  0  0
  -28.5420  -16.6850   22.8779 H   0  0  0  0  0  0
  -28.6271  -17.3451   21.2673 H   0  0  0  0  0  0
  -31.1240  -16.5061   22.8409 H   0  0  0  0  0  0
  -31.0589  -16.9826   21.1464 H   0  0  0  0  0  0
  -29.2331  -23.7706   21.2946 H   0  0  0  0  0  0
  -29.7822  -24.6033   19.8670 H   0  0  0  0  0  0
  -29.2920  -26.1474   21.7824 H   0  0  0  0  0  0
  -27.5987  -25.7124   21.7108 H   0  0  0  0  0  0
  -25.9013  -21.9249   18.7826 H   0  0  0  0  0  0
  -25.2876  -23.5613   18.9143 H   0  0  0  0  0  0
  -26.4049  -23.7711   21.1703 H   0  0  0  0  0  0
  -29.3481  -18.5265   23.8579 H   0  0  0  0  0  0
  -29.3560  -14.7433   22.0673 H   0  0  0  0  0  0
  -28.2911  -23.1520   19.0814 H   0  0  0  0  0  0
  -27.4313  -24.5270   19.0927 H   0  0  0  0  0  0
  -24.7534  -21.4462   20.6954 H   0  0  0  0  0  0
  1 25  1  0  0  0
  1 30  2  0  0  0
  1 85  1  0  0  0
  2  3  1  0  0  0
  2 25  1  0  0  0
  2 88  1  0  0  0
  2 89  1  0  0  0
  3  4  1  0  0  0
  3 90  1  0  0  0
  3 91  1  0  0  0
  4  5  1  0  0  0
  4 92  1  0  0  0
  4 93  1  0  0  0
  5  6  1  0  0  0
  5 26  1  0  0  0
  5 94  1  0  0  0
  6 25  1  0  0  0
  6 95  1  0  0  0
  6 96  1  0  0  0
  7  8  2  0  0  0
  7 26  1  0  0  0
  7 29  1  0  0  0
  8  9  1  0  0  0
  8 22  1  0  0  0
  9 10  1  0  0  0
  9 27  2  0  0  0
 10 11  2  0  0  0
 10 15  1  0  0  0
 11 12  1  0  0  0
 11 97  1  0  0  0
 12 13  2  0  0  0
 12 98  1  0  0  0
 13 14  1  0  0  0
 13 31  1  0  0  0
 14 15  2  0  0  0
 14 99  1  0  0  0
 15100  1  0  0  0
 16 17  2  0  0  0
 16 21  1  0  0  0
 16 31  1  0  0  0
 17 18  1  0  0  0
 17101  1  0  0  0
 18 19  2  0  0  0
 18102  1  0  0  0
 19 20  1  0  0  0
 19 24  1  0  0  0
 20 21  2  0  0  0
 20103  1  0  0  0
 21 23  1  0  0  0
 22 28  1  0  0  0
 22 32  2  0  0  0
 26 27  1  0  0  0
 28104  1  0  0  0
 28105  1  0  0  0
 29106  1  0  0  0
 29107  1  0  0  0
 33 34  1  0  0  0
 33 66  1  0  0  0
 33 70  2  0  0  0
 34 36  1  0  0  0
 34 59  1  0  0  0
 34108  1  0  0  0
 35 44  2  0  0  0
 35 45  1  0  0  0
 35 68  1  0  0  0
 36 56  1  0  0  0
 36109  1  0  0  0
 37 39  1  0  0  0
 37 47  1  0  0  0
 37 66  1  0  0  0
 37110  1  0  0  0
 38 43  2  0  0  0
 38 46  1  0  0  0
 38 47  1  0  0  0
 39 64  1  0  0  0
 39 67  2  0  0  0
 40 52  1  0  0  0
 40 53  2  0  0  0
 40 58  1  0  0  0
 41111  1  0  0  0
 41112  1  0  0  0
 41113  1  0  0  0
 41 48  1  0  0  0
 42 43  1  0  0  0
 42 66  1  0  0  0
 42114  1  0  0  0
 42115  1  0  0  0
 43 44  1  0  0  0
 44116  1  0  0  0
 45 46  2  0  0  0
 45117  1  0  0  0
 46118  1  0  0  0
 47119  1  0  0  0
 47120  1  0  0  0
 48 56  1  0  0  0
 48 65  1  0  0  0
 48121  1  0  0  0
 49 50  1  0  0  0
 49 53  1  0  0  0
 49 64  1  0  0  0
 49122  1  0  0  0
 50 51  1  0  0  0
 50123  1  0  0  0
 50124  1  0  0  0
 51 52  1  0  0  0
 51125  1  0  0  0
 51126  1  0  0  0
 52127  1  0  0  0
 52128  1  0  0  0
 53 54  1  0  0  0
 54 55  2  0  0  0
 54129  1  0  0  0
 55 57  1  0  0  0
 55130  1  0  0  0
 56 69  2  0  0  0
 57 58  2  0  0  0
 57131  1  0  0  0
 58132  1  0  0  0
 59 60  1  0  0  0
 59 61  1  0  0  0
 59 62  1  0  0  0
 60133  1  0  0  0
 60134  1  0  0  0
 60135  1  0  0  0
 61136  1  0  0  0
 61137  1  0  0  0
 61138  1  0  0  0
 62139  1  0  0  0
 62140  1  0  0  0
 62141  1  0  0  0
 63 65  1  0  0  0
 63142  1  0  0  0
 63143  1  0  0  0
 63144  1  0  0  0
 64145  1  0  0  0
 65146  1  0  0  0
 68 81  1  0  0  0
 71 72  2  0  0  0
 71 74  1  0  0  0
 71147  1  0  0  0
 72 76  1  0  0  0
 72148  1  0  0  0
 73 75  1  0  0  0
 73 76  2  0  0  0
 73149  1  0  0  0
 74 75  2  0  0  0
 74 83  1  0  0  0
 75 77  1  0  0  0
 76 84  1  0  0  0
 77150  1  0  0  0
 77151  1  0  0  0
 77152  1  0  0  0
 78 79  1  0  0  0
 78 84  1  0  0  0
 78153  1  0  0  0
 78154  1  0  0  0
 79 85  1  0  0  0
 79155  1  0  0  0
 79156  1  0  0  0
 80 81  1  0  0  0
 80 86  1  0  0  0
 80157  1  0  0  0
 80158  1  0  0  0
 81159  1  0  0  0
 81160  1  0  0  0
 82 87  1  0  0  0
 82161  1  0  0  0
 82162  1  0  0  0
 82 83  1  0  0  0
 83 86  1  0  0  0
 83163  1  0  0  0
 84164  1  0  0  0
 85165  1  0  0  0
 86166  1  0  0  0
 86167  1  0  0  0
 87168  1  0  0  0
M  CHG  1  86   1
M  ISO  4   1 100  68 101  81 101  85 100
M  END
> <chiral flag>
0

> <version>
0

> <s_m_source_file>
/data/baiqing/PycharmProjects/Reinvent-master-3.2/result/LINK_invent/BTK/process_docking_weight1_custom_sum_contain_oxygen_bond_distance_aromatic_linkinvent_7_9_3/rearranged_h_0133.sdf

> <i_m_source_file_index>
89

> <r_mmod_Potential_Energy-OPLS-2005>
-287.163055419922

> <r_mmod_Stretch_Energy-OPLS-2005>
32.4444313049316

> <r_mmod_Bend_Energy-OPLS-2005>
91.0968322753906

> <r_mmod_Torsional_Energy-OPLS-2005>
231.00764465332

> <r_mmod_Improper_Torsional_Energy-OPLS-2005>
6.22827482223511

> <r_mmod_Van_der_Waal_Energy-OPLS-2005>
149.364959716797

> <r_mmod_Electrostatic_Energy-OPLS-2005>
-329.071319580078

> <r_mmod_Solvation_Energy-OPLS-2005>
-475.280120849609

> <b_mmod_Minimization_Converged-OPLS-2005>
0

> <r_mmod_RMS_Derivative-OPLS-2005>
4.08062934875488

$$$$
90
                    3D
 Structure written by MMmdl.
161170  0  0  1  0            999 V2000
  -30.6187  -14.7278   20.4656 C   0  0  0  0  0  0
  -30.4368  -12.4463   19.4747 C   0  0  0  0  0  0
  -29.5112  -12.5034   18.2389 C   0  0  0  0  0  0
  -28.0373  -12.3297   18.6528 C   0  0  0  0  0  0
  -27.6456  -13.2286   19.8551 C   0  0  2  0  0  0
  -28.6897  -13.1540   20.9910 C   0  0  0  0  0  0
  -25.2536  -13.8196   20.5713 C   0  0  0  0  0  0
  -24.1820  -13.0447   20.9225 C   0  0  0  0  0  0
  -24.6400  -11.6921   20.8763 C   0  0  0  0  0  0
  -23.9068  -10.4300   21.0418 C   0  0  0  0  0  0
  -24.3616   -9.4206   21.9187 C   0  0  0  0  0  0
  -23.6291   -8.2245   22.0750 C   0  0  0  0  0  0
  -22.4274   -8.0291   21.3546 C   0  0  0  0  0  0
  -21.9910   -9.0267   20.4655 C   0  0  0  0  0  0
  -22.7239  -10.2143   20.3067 C   0  0  0  0  0  0
  -21.6853   -6.0744   22.5284 C   0  0  0  0  0  0
  -21.4009   -6.5641   23.8218 C   0  0  0  0  0  0
  -21.3655   -5.6792   24.9179 C   0  0  0  0  0  0
  -21.6044   -4.3056   24.7227 C   0  0  0  0  0  0
  -21.8816   -3.8150   23.4346 C   0  0  0  0  0  0
  -21.9192   -4.6972   22.3404 C   0  0  0  0  0  0
  -22.7840  -13.5239   21.1872 C   0  0  0  0  0  0
  -22.1663   -4.2154   21.0984 F   0  0  0  0  0  0
  -21.5624   -3.4541   25.7737 F   0  0  0  0  0  0
  -29.9951  -13.5028   20.4142 N   0  0  0  0  0  0
  -26.2962  -12.9396   20.3310 N   0  0  0  0  0  0
  -25.9331  -11.6540   20.5766 N   0  0  0  0  0  0
  -22.0472  -12.8247   22.0430 N   0  0  0  0  0  0
  -25.4248  -15.1919   20.4115 N   0  0  0  0  0  0
  -31.7966  -14.8380   20.1170 O   0  0  0  0  0  0
  -21.6636   -6.8889   21.4247 O   0  0  0  0  0  0
  -22.3530  -14.5544   20.6712 O   0  0  0  0  0  0
  -24.6305  -31.8552   23.1996 C   0  0  0  0  0  0
  -25.9142  -32.4749   23.8328 C   0  0  1  0  0  0
  -27.2151  -27.2758   20.1397 C   0  0  0  0  0  0
  -25.5949  -33.8553   24.2268 N   0  0  0  0  0  0
  -23.4276  -30.4774   21.5437 C   0  0  2  0  0  0
  -24.8775  -28.9343   20.1030 C   0  0  0  0  0  0
  -22.7503  -29.4592   22.4925 C   0  0  0  0  0  0
  -18.0284  -28.1378   22.8488 C   0  0  0  0  0  0
  -24.1493  -36.7286   23.2638 C   0  0  0  0  0  0
  -25.9715  -30.7782   21.3745 C   0  0  0  0  0  0
  -26.0494  -29.4061   20.7094 C   0  0  0  0  0  0
  -27.2287  -28.5937   20.7079 C   0  0  0  0  0  0
  -26.0324  -26.8819   19.4778 C   0  0  0  0  0  0
  -24.8760  -27.6835   19.4684 C   0  0  0  0  0  0
  -23.6445  -29.8149   20.1581 C   0  0  0  0  0  0
  -25.4117  -36.3071   24.0330 C   0  0  1  0  0  0
  -20.5888  -28.3690   23.1280 C   0  0  2  0  0  0
  -20.6774  -26.9409   22.5416 C   0  0  0  0  0  0
  -19.5752  -26.6379   21.5214 C   0  0  0  0  0  0
  -18.1932  -26.7921   22.1625 C   0  0  0  0  0  0
  -19.1539  -28.8852   23.2877 C   0  0  0  0  0  0
  -18.9458  -30.1454   23.8892 C   0  0  0  0  0  0
  -17.6459  -30.6585   24.0558 C   0  0  0  0  0  0
  -25.9055  -34.9437   23.5097 C   0  0  0  0  0  0
  -16.5349  -29.9079   23.6330 C   0  0  0  0  0  0
  -16.7272  -28.6495   23.0355 C   0  0  0  0  0  0
  -26.4510  -31.6553   25.0703 C   0  0  0  0  0  0
  -25.3745  -31.3698   26.1436 C   0  0  0  0  0  0
  -27.0339  -30.2963   24.6169 C   0  0  0  0  0  0
  -27.6074  -32.4279   25.7477 C   0  0  0  0  0  0
  -27.5578  -37.1797   24.8467 C   0  0  0  0  0  0
  -21.4211  -29.3037   22.3674 N   0  0  0  0  0  0
  -26.4293  -37.3767   23.9406 N   0  0  0  0  0  0
  -24.6955  -31.0531   22.0965 N   0  0  0  0  0  0
  -23.4205  -28.8145   23.3034 O   0  0  0  0  0  0
  -28.2568  -26.3302   20.2698 O   0  0  0  0  0  0
  -26.5621  -34.8910   22.4663 O   0  0  0  0  0  0
  -23.5460  -32.1372   23.7304 O   0  0  0  0  0  0
  -30.8341  -22.8239   22.1455 C   0  0  0  0  0  0
  -30.6277  -21.5472   21.5852 C   0  0  0  0  0  0
  -28.7304  -22.4388   20.3594 C   0  0  0  0  0  0
  -28.9300  -23.7728   20.9109 C   0  0  0  0  0  0
  -29.9674  -23.9012   21.8704 C   0  0  0  0  0  0
  -29.5468  -21.2867   20.7163 C   0  0  0  0  0  0
  -28.8214  -25.7475   23.0382 C   0  0  0  0  0  0
  -27.8838  -24.9752   20.8394 C   0  0  1  0  0  0
  -27.5623  -25.1739   22.3489 C   0  0  2  0  0  0
  -26.2651  -25.9115   22.7294 C   0  0  0  0  0  0
  -29.5478  -18.6817   21.0881 C   0  0  0  0  0  0
  -30.1784  -17.3291   20.4315 C   0  0  0  0  0  0
  -30.0633  -25.0457   22.6816 N   0  0  0  0  0  0
  -29.3452  -19.9290   20.2440 N   0  0  0  0  0  0
  -29.8501  -15.8567   20.7006 N   0  0  0  0  0  0
  -31.4757  -12.5760   19.1661 H   0  0  0  0  0  0
  -30.3886  -11.4676   19.9547 H   0  0  0  0  0  0
  -29.7900  -11.7287   17.5237 H   0  0  0  0  0  0
  -29.6391  -13.4573   17.7244 H   0  0  0  0  0  0
  -27.8944  -11.2809   18.9157 H   0  0  0  0  0  0
  -27.3795  -12.5233   17.8051 H   0  0  0  0  0  0
  -27.6426  -14.2515   19.4775 H   0  0  0  0  0  0
  -28.7209  -12.1534   21.4246 H   0  0  0  0  0  0
  -28.4246  -13.8315   21.8043 H   0  0  0  0  0  0
  -25.2760   -9.5675   22.4763 H   0  0  0  0  0  0
  -24.0001   -7.4627   22.7459 H   0  0  0  0  0  0
  -21.0841   -8.8798   19.8958 H   0  0  0  0  0  0
  -22.3705  -10.9693   19.6184 H   0  0  0  0  0  0
  -21.2001   -7.6149   23.9726 H   0  0  0  0  0  0
  -21.1478   -6.0522   25.9084 H   0  0  0  0  0  0
  -22.0597   -2.7614   23.2849 H   0  0  0  0  0  0
  -22.4081  -11.9919   22.4841 H   0  0  0  0  0  0
  -21.1090  -13.1294   22.2619 H   0  0  0  0  0  0
  -24.6552  -15.8457   20.5093 H   0  0  0  0  0  0
  -26.2671  -15.6262   20.0555 H   0  0  0  0  0  0
  -26.7213  -32.5413   23.1077 H   0  0  0  0  0  0
  -25.0096  -33.9684   25.0413 H   0  0  0  0  0  0
  -22.7237  -31.2998   21.3996 H   0  0  0  0  0  0
  -23.3753  -35.9619   23.3301 H   0  0  0  0  0  0
  -24.3587  -36.8906   22.2051 H   0  0  0  0  0  0
  -23.7245  -37.6490   23.6657 H   0  0  0  0  0  0
  -26.1048  -31.5445   20.6096 H   0  0  0  0  0  0
  -26.8513  -30.8267   22.0053 H   0  0  0  0  0  0
  -28.1188  -28.9397   21.2139 H   0  0  0  0  0  0
  -25.9780  -25.9178   18.9942 H   0  0  0  0  0  0
  -23.9821  -27.3199   18.9807 H   0  0  0  0  0  0
  -23.7635  -30.5938   19.4042 H   0  0  0  0  0  0
  -22.7646  -29.2454   19.8540 H   0  0  0  0  0  0
  -25.1293  -36.1920   25.0820 H   0  0  0  0  0  0
  -20.9966  -28.3260   24.1405 H   0  0  0  0  0  0
  -20.5662  -26.2297   23.3617 H   0  0  0  0  0  0
  -21.6646  -26.7432   22.1217 H   0  0  0  0  0  0
  -19.6920  -25.6290   21.1242 H   0  0  0  0  0  0
  -19.6688  -27.3191   20.6745 H   0  0  0  0  0  0
  -17.4199  -26.6665   21.4028 H   0  0  0  0  0  0
  -18.0339  -26.0055   22.9014 H   0  0  0  0  0  0
  -19.7934  -30.7269   24.2261 H   0  0  0  0  0  0
  -17.5012  -31.6264   24.5160 H   0  0  0  0  0  0
  -15.5350  -30.2980   23.7661 H   0  0  0  0  0  0
  -15.8668  -28.0813   22.7079 H   0  0  0  0  0  0
  -24.5945  -30.7014   25.7774 H   0  0  0  0  0  0
  -24.8907  -32.2857   26.4834 H   0  0  0  0  0  0
  -25.8078  -30.8904   27.0225 H   0  0  0  0  0  0
  -26.2908  -29.6719   24.1194 H   0  0  0  0  0  0
  -27.4025  -29.7208   25.4672 H   0  0  0  0  0  0
  -27.8786  -30.4226   23.9396 H   0  0  0  0  0  0
  -27.2698  -33.3589   26.2044 H   0  0  0  0  0  0
  -28.3892  -32.6823   25.0307 H   0  0  0  0  0  0
  -28.0737  -31.8406   26.5400 H   0  0  0  0  0  0
  -28.2603  -38.0086   24.7503 H   0  0  0  0  0  0
  -28.1069  -36.2620   24.6308 H   0  0  0  0  0  0
  -27.2299  -37.1461   25.8871 H   0  0  0  0  0  0
  -20.9401  -29.8751   21.6868 H   0  0  0  0  0  0
  -26.0178  -38.2845   24.1398 H   0  0  0  0  0  0
  -31.6338  -22.9449   22.8625 H   0  0  0  0  0  0
  -31.3111  -20.7597   21.8651 H   0  0  0  0  0  0
  -27.8823  -22.2885   19.7074 H   0  0  0  0  0  0
  -28.6962  -25.7173   24.1211 H   0  0  0  0  0  0
  -28.9343  -26.7998   22.7737 H   0  0  0  0  0  0
  -27.0101  -24.5731   20.3292 H   0  0  0  0  0  0
  -27.3901  -24.1778   22.7635 H   0  0  0  0  0  0
  -26.3594  -26.9930   22.6570 H   0  0  0  0  0  0
  -25.9957  -25.6978   23.7642 H   0  0  0  0  0  0
  -25.4280  -25.5965   22.1055 H   0  0  0  0  0  0
  -30.1314  -18.9618   21.9672 H   0  0  0  0  0  0
  -28.5666  -18.4331   21.4985 H   0  0  0  0  0  0
  -29.2426  -17.1906   19.8882 H   0  0  0  0  0  0
  -30.5207  -17.1113   21.4452 H   0  0  0  0  0  0
  -30.7725  -25.0223   23.4114 H   0  0  0  0  0  0
  -28.6328  -19.8256   19.5241 H   0  0  0  0  0  0
  -28.8966  -15.6651   20.9712 H   0  0  0  0  0  0
  1 25  1  0  0  0
  1 30  2  0  0  0
  1 85  1  0  0  0
  2  3  1  0  0  0
  2 25  1  0  0  0
  2 86  1  0  0  0
  2 87  1  0  0  0
  3  4  1  0  0  0
  3 88  1  0  0  0
  3 89  1  0  0  0
  4  5  1  0  0  0
  4 90  1  0  0  0
  4 91  1  0  0  0
  5  6  1  0  0  0
  5 26  1  0  0  0
  5 92  1  0  0  0
  6 25  1  0  0  0
  6 93  1  0  0  0
  6 94  1  0  0  0
  7  8  2  0  0  0
  7 26  1  0  0  0
  7 29  1  0  0  0
  8  9  1  0  0  0
  8 22  1  0  0  0
  9 10  1  0  0  0
  9 27  2  0  0  0
 10 11  2  0  0  0
 10 15  1  0  0  0
 11 12  1  0  0  0
 11 95  1  0  0  0
 12 13  2  0  0  0
 12 96  1  0  0  0
 13 14  1  0  0  0
 13 31  1  0  0  0
 14 15  2  0  0  0
 14 97  1  0  0  0
 15 98  1  0  0  0
 16 17  2  0  0  0
 16 21  1  0  0  0
 16 31  1  0  0  0
 17 18  1  0  0  0
 17 99  1  0  0  0
 18 19  2  0  0  0
 18100  1  0  0  0
 19 20  1  0  0  0
 19 24  1  0  0  0
 20 21  2  0  0  0
 20101  1  0  0  0
 21 23  1  0  0  0
 22 28  1  0  0  0
 22 32  2  0  0  0
 26 27  1  0  0  0
 28102  1  0  0  0
 28103  1  0  0  0
 29104  1  0  0  0
 29105  1  0  0  0
 33 34  1  0  0  0
 33 66  1  0  0  0
 33 70  2  0  0  0
 34 36  1  0  0  0
 34 59  1  0  0  0
 34106  1  0  0  0
 35 44  2  0  0  0
 35 45  1  0  0  0
 35 68  1  0  0  0
 36 56  1  0  0  0
 36107  1  0  0  0
 37 39  1  0  0  0
 37 47  1  0  0  0
 37 66  1  0  0  0
 37108  1  0  0  0
 38 43  2  0  0  0
 38 46  1  0  0  0
 38 47  1  0  0  0
 39 64  1  0  0  0
 39 67  2  0  0  0
 40 52  1  0  0  0
 40 53  2  0  0  0
 40 58  1  0  0  0
 41109  1  0  0  0
 41110  1  0  0  0
 41111  1  0  0  0
 41 48  1  0  0  0
 42 43  1  0  0  0
 42 66  1  0  0  0
 42112  1  0  0  0
 42113  1  0  0  0
 43 44  1  0  0  0
 44114  1  0  0  0
 45 46  2  0  0  0
 45115  1  0  0  0
 46116  1  0  0  0
 47117  1  0  0  0
 47118  1  0  0  0
 48 56  1  0  0  0
 48 65  1  0  0  0
 48119  1  0  0  0
 49 50  1  0  0  0
 49 53  1  0  0  0
 49 64  1  0  0  0
 49120  1  0  0  0
 50 51  1  0  0  0
 50121  1  0  0  0
 50122  1  0  0  0
 51 52  1  0  0  0
 51123  1  0  0  0
 51124  1  0  0  0
 52125  1  0  0  0
 52126  1  0  0  0
 53 54  1  0  0  0
 54 55  2  0  0  0
 54127  1  0  0  0
 55 57  1  0  0  0
 55128  1  0  0  0
 56 69  2  0  0  0
 57 58  2  0  0  0
 57129  1  0  0  0
 58130  1  0  0  0
 59 60  1  0  0  0
 59 61  1  0  0  0
 59 62  1  0  0  0
 60131  1  0  0  0
 60132  1  0  0  0
 60133  1  0  0  0
 61134  1  0  0  0
 61135  1  0  0  0
 61136  1  0  0  0
 62137  1  0  0  0
 62138  1  0  0  0
 62139  1  0  0  0
 63 65  1  0  0  0
 63140  1  0  0  0
 63141  1  0  0  0
 63142  1  0  0  0
 64143  1  0  0  0
 65144  1  0  0  0
 68 78  1  0  0  0
 71 72  2  0  0  0
 71 75  1  0  0  0
 71145  1  0  0  0
 72 76  1  0  0  0
 72146  1  0  0  0
 73 74  1  0  0  0
 73 76  2  0  0  0
 73147  1  0  0  0
 74 75  2  0  0  0
 74 78  1  0  0  0
 75 83  1  0  0  0
 76 84  1  0  0  0
 77 79  1  0  0  0
 77 83  1  0  0  0
 77148  1  0  0  0
 77149  1  0  0  0
 78 79  1  0  0  0
 78150  1  0  0  0
 79 80  1  0  0  0
 79151  1  0  0  0
 80152  1  0  0  0
 80153  1  0  0  0
 80154  1  0  0  0
 81 82  1  0  0  0
 81 84  1  0  0  0
 81155  1  0  0  0
 81156  1  0  0  0
 82 85  1  0  0  0
 82157  1  0  0  0
 82158  1  0  0  0
 83159  1  0  0  0
 84160  1  0  0  0
 85161  1  0  0  0
M  ISO  4   1 100  68 101  78 101  85 100
M  END
> <chiral flag>
0

> <version>
0

> <s_m_source_file>
/data/baiqing/PycharmProjects/Reinvent-master-3.2/result/LINK_invent/BTK/process_docking_weight1_custom_sum_contain_oxygen_bond_distance_aromatic_linkinvent_7_9_3/rearranged_h_0133.sdf

> <i_m_source_file_index>
90

> <r_mmod_Potential_Energy-OPLS-2005>
338.090942382812

> <r_mmod_Stretch_Energy-OPLS-2005>
124.781562805176

> <r_mmod_Bend_Energy-OPLS-2005>
393.653930664062

> <r_mmod_Torsional_Energy-OPLS-2005>
250.913131713867

> <r_mmod_Improper_Torsional_Energy-OPLS-2005>
14.0341663360596

> <r_mmod_Van_der_Waal_Energy-OPLS-2005>
155.270172119141

> <r_mmod_Electrostatic_Energy-OPLS-2005>
-436.635437011719

> <r_mmod_Solvation_Energy-OPLS-2005>
-250.635345458984

> <b_mmod_Minimization_Converged-OPLS-2005>
0

> <r_mmod_RMS_Derivative-OPLS-2005>
1.42135381698608

$$$$
91
                    3D
 Structure written by MMmdl.
167175  0  0  1  0            999 V2000
  -30.2297  -14.7845   20.1062 C   0  0  0  0  0  0
  -30.6819  -12.4554   19.4467 C   0  0  0  0  0  0
  -29.6981  -12.3251   18.2653 C   0  0  0  0  0  0
  -28.3320  -12.0119   18.8681 C   0  0  0  0  0  0
  -28.0828  -12.9882   20.0564 C   0  0  2  0  0  0
  -29.0604  -12.9702   21.1392 C   0  0  0  0  0  0
  -25.4585  -14.2347   21.2431 C   0  0  0  0  0  0
  -24.0006  -13.3486   20.9523 C   0  0  0  0  0  0
  -24.3872  -11.7293   20.3049 C   0  0  0  0  0  0
  -23.7472  -10.4700   20.7322 C   0  0  0  0  0  0
  -24.2899   -9.5573   21.6925 C   0  0  0  0  0  0
  -23.6185   -8.3405   21.9918 C   0  0  0  0  0  0
  -22.3989   -8.0482   21.3326 C   0  0  0  0  0  0
  -21.8663   -8.9818   20.4320 C   0  0  0  0  0  0
  -22.5236  -10.1798   20.1445 C   0  0  0  0  0  0
  -21.7115   -6.0772   22.5398 C   0  0  0  0  0  0
  -21.4228   -6.5684   23.8300 C   0  0  0  0  0  0
  -21.3761   -5.6809   24.9241 C   0  0  0  0  0  0
  -21.6081   -4.3054   24.7271 C   0  0  0  0  0  0
  -21.8818   -3.8135   23.4386 C   0  0  0  0  0  0
  -21.9301   -4.6983   22.3478 C   0  0  0  0  0  0
  -22.6254  -13.7345   21.2373 C   0  0  0  0  0  0
  -22.1690   -4.2157   21.1039 F   0  0  0  0  0  0
  -21.5596   -3.4543   25.7771 F   0  0  0  0  0  0
  -30.1362  -13.4631   20.3856 N   0  0  0  0  0  0
  -26.8927  -13.0228   20.6943 N   0  0  0  0  0  0
  -26.0663  -11.5370   20.1356 N   0  0  0  0  0  0
  -21.9443  -12.9093   22.0210 N   0  0  0  0  0  0
  -25.5465  -15.5826   21.3652 N   0  0  0  0  0  0
  -31.4152  -15.1179   19.9191 O   0  0  0  0  0  0
  -21.6844   -6.8786   21.4315 O   0  0  0  0  0  0
  -22.1654  -14.7421   20.7274 O   0  0  0  0  0  0
  -24.6498  -31.8452   23.1948 C   0  0  0  0  0  0
  -25.9266  -32.4683   23.8315 C   0  0  1  0  0  0
  -27.0898  -27.0608   20.0912 C   0  0  0  0  0  0
  -25.6014  -33.8504   24.2208 N   0  0  0  0  0  0
  -23.4440  -30.4806   21.5470 C   0  0  2  0  0  0
  -24.8632  -28.9191   20.0980 C   0  0  0  0  0  0
  -22.7566  -29.4564   22.4848 C   0  0  0  0  0  0
  -18.0306  -28.1402   22.8464 C   0  0  0  0  0  0
  -24.1488  -36.7226   23.2642 C   0  0  0  0  0  0
  -26.0109  -30.6810   21.4136 C   0  0  0  0  0  0
  -26.0520  -29.2971   20.7354 C   0  0  0  0  0  0
  -27.1737  -28.3739   20.7324 C   0  0  0  0  0  0
  -25.9073  -26.8517   19.3582 C   0  0  0  0  0  0
  -24.8075  -27.7182   19.3925 C   0  0  0  0  0  0
  -23.6605  -29.8417   20.1559 C   0  0  0  0  0  0
  -25.4128  -36.3019   24.0311 C   0  0  1  0  0  0
  -20.5921  -28.3732   23.1199 C   0  0  2  0  0  0
  -20.6803  -26.9428   22.5388 C   0  0  0  0  0  0
  -19.5770  -26.6378   21.5209 C   0  0  0  0  0  0
  -18.1947  -26.7931   22.1619 C   0  0  0  0  0  0
  -19.1566  -28.8883   23.2828 C   0  0  0  0  0  0
  -18.9483  -30.1475   23.8863 C   0  0  0  0  0  0
  -17.6480  -30.6598   24.0549 C   0  0  0  0  0  0
  -25.9088  -34.9403   23.5055 C   0  0  0  0  0  0
  -16.5368  -29.9087   23.6340 C   0  0  0  0  0  0
  -16.7289  -28.6505   23.0361 C   0  0  0  0  0  0
  -26.4557  -31.6573   25.0784 C   0  0  0  0  0  0
  -25.3707  -31.3793   26.1452 C   0  0  0  0  0  0
  -27.0448  -30.2948   24.6460 C   0  0  0  0  0  0
  -27.6063  -32.4368   25.7573 C   0  0  0  0  0  0
  -27.5570  -37.1781   24.8472 C   0  0  0  0  0  0
  -21.4262  -29.3063   22.3574 N   0  0  0  0  0  0
  -26.4283  -37.3742   23.9408 N   0  0  0  0  0  0
  -24.7236  -31.0238   22.1044 N   0  0  0  0  0  0
  -23.4206  -28.8044   23.2951 O   0  0  0  0  0  0
  -28.0034  -25.9379   20.1601 O   0  0  0  0  0  0
  -26.5659  -34.8898   22.4625 O   0  0  0  0  0  0
  -23.5602  -32.1440   23.7098 O   0  0  0  0  0  0
  -29.5347  -17.1134   20.3952 C   0  0  0  0  0  0
  -28.9633  -18.3923   20.3169 C   0  0  0  0  0  0
  -27.0219  -17.3471   19.3791 C   0  0  0  0  0  0
  -28.9815  -15.8592   19.9708 C   0  0  0  0  0  0
  -27.6933  -18.6180   19.7954 C   0  0  0  0  0  0
  -27.5037  -15.9128   19.4336 C   0  0  0  0  0  0
  -26.7860  -10.0882   15.7723 C   0  0  0  0  0  0
  -27.1227  -20.1762   19.9786 C   0  0  0  0  0  0
  -25.3344  -12.9003   17.6623 C   0  0  0  0  0  0
  -25.1668  -11.3829   17.3252 C   0  0  0  0  0  0
  -27.9413  -22.9144   20.2628 C   0  0  0  0  0  0
  -25.4313  -13.5293   19.1350 C   0  0  0  0  0  0
  -27.5640  -24.4762   19.6989 C   0  0  0  0  0  0
  -25.6890  -11.0600   15.9790 N   0  3  0  0  0  0
  -27.7201  -21.5550   19.4308 N   0  3  0  0  0  0
  -26.4788  -14.8746   18.8249 O   0  0  0  0  0  0
  -31.6794  -12.7295   19.0980 H   0  0  0  0  0  0
  -30.7951  -11.4975   19.9582 H   0  0  0  0  0  0
  -30.0136  -11.5283   17.5916 H   0  0  0  0  0  0
  -29.6638  -13.2418   17.6716 H   0  0  0  0  0  0
  -28.3359  -10.9737   19.2026 H   0  0  0  0  0  0
  -27.6204  -12.0835   18.0706 H   0  0  0  0  0  0
  -28.1454  -13.7578   19.3697 H   0  0  0  0  0  0
  -29.2396  -11.9708   21.5397 H   0  0  0  0  0  0
  -28.8320  -13.6380   21.9744 H   0  0  0  0  0  0
  -25.2357   -9.7822   22.1675 H   0  0  0  0  0  0
  -24.0557   -7.6387   22.6891 H   0  0  0  0  0  0
  -20.9332   -8.7637   19.9305 H   0  0  0  0  0  0
  -22.0846  -10.8683   19.4344 H   0  0  0  0  0  0
  -21.2247   -7.6202   23.9781 H   0  0  0  0  0  0
  -21.1586   -6.0545   25.9130 H   0  0  0  0  0  0
  -22.0484   -2.7589   23.2879 H   0  0  0  0  0  0
  -22.3892  -12.0910   22.4120 H   0  0  0  0  0  0
  -20.9799  -13.1065   22.2479 H   0  0  0  0  0  0
  -24.7523  -16.1894   21.5252 H   0  0  0  0  0  0
  -26.4036  -16.0913   21.1859 H   0  0  0  0  0  0
  -26.7322  -32.5232   23.1016 H   0  0  0  0  0  0
  -25.0122  -33.9649   25.0325 H   0  0  0  0  0  0
  -22.7499  -31.3126   21.4121 H   0  0  0  0  0  0
  -23.3766  -35.9539   23.3295 H   0  0  0  0  0  0
  -24.3560  -36.8867   22.2056 H   0  0  0  0  0  0
  -23.7232  -37.6410   23.6691 H   0  0  0  0  0  0
  -26.1999  -31.4368   20.6500 H   0  0  0  0  0  0
  -26.8713  -30.7022   22.0703 H   0  0  0  0  0  0
  -28.0706  -28.6350   21.2771 H   0  0  0  0  0  0
  -25.7589  -25.9826   18.7367 H   0  0  0  0  0  0
  -23.9074  -27.4550   18.8523 H   0  0  0  0  0  0
  -23.8140  -30.6312   19.4189 H   0  0  0  0  0  0
  -22.7636  -29.3090   19.8328 H   0  0  0  0  0  0
  -25.1322  -36.1826   25.0803 H   0  0  0  0  0  0
  -21.0049  -28.3338   24.1301 H   0  0  0  0  0  0
  -20.5709  -26.2350   23.3623 H   0  0  0  0  0  0
  -21.6661  -26.7423   22.1169 H   0  0  0  0  0  0
  -19.6934  -25.6285   21.1251 H   0  0  0  0  0  0
  -19.6710  -27.3176   20.6730 H   0  0  0  0  0  0
  -17.4218  -26.6656   21.4022 H   0  0  0  0  0  0
  -18.0337  -26.0100   22.9043 H   0  0  0  0  0  0
  -19.7961  -30.7300   24.2213 H   0  0  0  0  0  0
  -17.5035  -31.6270   24.5159 H   0  0  0  0  0  0
  -15.5369  -30.2980   23.7701 H   0  0  0  0  0  0
  -15.8681  -28.0820   22.7110 H   0  0  0  0  0  0
  -24.5889  -30.7147   25.7760 H   0  0  0  0  0  0
  -24.8902  -32.2989   26.4799 H   0  0  0  0  0  0
  -25.7950  -30.9010   27.0290 H   0  0  0  0  0  0
  -26.3108  -29.6633   24.1444 H   0  0  0  0  0  0
  -27.3981  -29.7290   25.5092 H   0  0  0  0  0  0
  -27.9056  -30.4143   23.9878 H   0  0  0  0  0  0
  -27.2633  -33.3692   26.2071 H   0  0  0  0  0  0
  -28.3908  -32.6897   25.0428 H   0  0  0  0  0  0
  -28.0705  -31.8570   26.5561 H   0  0  0  0  0  0
  -28.2577  -38.0088   24.7520 H   0  0  0  0  0  0
  -28.1078  -36.2615   24.6296 H   0  0  0  0  0  0
  -27.2289  -37.1422   25.8877 H   0  0  0  0  0  0
  -20.9472  -29.8798   21.6780 H   0  0  0  0  0  0
  -26.0131  -38.2801   24.1412 H   0  0  0  0  0  0
  -30.5298  -17.1325   20.8138 H   0  0  0  0  0  0
  -29.5306  -19.2306   20.7038 H   0  0  0  0  0  0
  -26.0127  -17.4733   19.0108 H   0  0  0  0  0  0
  -27.1669  -10.1393   14.7518 H   0  0  0  0  0  0
  -26.4463   -9.0664   15.9520 H   0  0  0  0  0  0
  -27.6255  -10.2839   16.4431 H   0  0  0  0  0  0
  -27.0801  -20.3117   21.0593 H   0  0  0  0  0  0
  -26.0772  -20.1546   19.6676 H   0  0  0  0  0  0
  -24.5053  -13.3888   17.1460 H   0  0  0  0  0  0
  -26.1876  -13.2878   17.1063 H   0  0  0  0  0  0
  -24.1167  -11.0998   17.3746 H   0  0  0  0  0  0
  -25.6888  -10.7085   17.9912 H   0  0  0  0  0  0
  -27.4442  -22.7948   21.2249 H   0  0  0  0  0  0
  -29.0023  -22.9197   20.5087 H   0  0  0  0  0  0
  -25.4668  -12.4469   21.6178 H   0  0  0  0  0  0
  -24.5475  -14.1666   18.9619 H   0  0  0  0  0  0
  -26.4845  -24.4250   19.8101 H   0  0  0  0  0  0
  -27.7444  -24.4655   18.6242 H   0  0  0  0  0  0
  -25.2553  -10.1697   16.1710 H   0  0  0  0  0  0
  -26.5061  -11.5526   16.2985 H   0  0  0  0  0  0
  -28.5969  -21.3344   18.9852 H   0  0  0  0  0  0
  -27.1050  -21.7889   18.6683 H   0  0  0  0  0  0
  1 25  1  0  0  0
  1 30  2  0  0  0
  1 74  1  0  0  0
  2  3  1  0  0  0
  2 25  1  0  0  0
  2 87  1  0  0  0
  2 88  1  0  0  0
  3  4  1  0  0  0
  3 89  1  0  0  0
  3 90  1  0  0  0
  4  5  1  0  0  0
  4 91  1  0  0  0
  4 92  1  0  0  0
  5  6  1  0  0  0
  5 26  1  0  0  0
  5 93  1  0  0  0
  6 25  1  0  0  0
  6 94  1  0  0  0
  6 95  1  0  0  0
  7  8  2  0  0  0
  7 26  1  0  0  0
  7 29  1  0  0  0
  8  9  1  0  0  0
  8 22  1  0  0  0
  9 10  1  0  0  0
  9 27  2  0  0  0
 10 11  2  0  0  0
 10 15  1  0  0  0
 11 12  1  0  0  0
 11 96  1  0  0  0
 12 13  2  0  0  0
 12 97  1  0  0  0
 13 14  1  0  0  0
 13 31  1  0  0  0
 14 15  2  0  0  0
 14 98  1  0  0  0
 15 99  1  0  0  0
 16 17  2  0  0  0
 16 21  1  0  0  0
 16 31  1  0  0  0
 17 18  1  0  0  0
 17100  1  0  0  0
 18 19  2  0  0  0
 18101  1  0  0  0
 19 20  1  0  0  0
 19 24  1  0  0  0
 20 21  2  0  0  0
 20102  1  0  0  0
 21 23  1  0  0  0
 22 28  1  0  0  0
 22 32  2  0  0  0
 26 27  1  0  0  0
 28103  1  0  0  0
 28104  1  0  0  0
 29105  1  0  0  0
 29106  1  0  0  0
 33 34  1  0  0  0
 33 66  1  0  0  0
 33 70  2  0  0  0
 34 36  1  0  0  0
 34 59  1  0  0  0
 34107  1  0  0  0
 35 44  2  0  0  0
 35 45  1  0  0  0
 35 68  1  0  0  0
 36 56  1  0  0  0
 36108  1  0  0  0
 37 39  1  0  0  0
 37 47  1  0  0  0
 37 66  1  0  0  0
 37109  1  0  0  0
 38 43  2  0  0  0
 38 46  1  0  0  0
 38 47  1  0  0  0
 39 64  1  0  0  0
 39 67  2  0  0  0
 40 52  1  0  0  0
 40 53  2  0  0  0
 40 58  1  0  0  0
 41110  1  0  0  0
 41111  1  0  0  0
 41112  1  0  0  0
 41 48  1  0  0  0
 42 43  1  0  0  0
 42 66  1  0  0  0
 42113  1  0  0  0
 42114  1  0  0  0
 43 44  1  0  0  0
 44115  1  0  0  0
 45 46  2  0  0  0
 45116  1  0  0  0
 46117  1  0  0  0
 47118  1  0  0  0
 47119  1  0  0  0
 48 56  1  0  0  0
 48 65  1  0  0  0
 48120  1  0  0  0
 49 50  1  0  0  0
 49 53  1  0  0  0
 49 64  1  0  0  0
 49121  1  0  0  0
 50 51  1  0  0  0
 50122  1  0  0  0
 50123  1  0  0  0
 51 52  1  0  0  0
 51124  1  0  0  0
 51125  1  0  0  0
 52126  1  0  0  0
 52127  1  0  0  0
 53 54  1  0  0  0
 54 55  2  0  0  0
 54128  1  0  0  0
 55 57  1  0  0  0
 55129  1  0  0  0
 56 69  2  0  0  0
 57 58  2  0  0  0
 57130  1  0  0  0
 58131  1  0  0  0
 59 60  1  0  0  0
 59 61  1  0  0  0
 59 62  1  0  0  0
 60132  1  0  0  0
 60133  1  0  0  0
 60134  1  0  0  0
 61135  1  0  0  0
 61136  1  0  0  0
 61137  1  0  0  0
 62138  1  0  0  0
 62139  1  0  0  0
 62140  1  0  0  0
 63 65  1  0  0  0
 63141  1  0  0  0
 63142  1  0  0  0
 63143  1  0  0  0
 64144  1  0  0  0
 65145  1  0  0  0
 68 83  1  0  0  0
 71 72  2  0  0  0
 71 74  1  0  0  0
 71146  1  0  0  0
 72 75  1  0  0  0
 72147  1  0  0  0
 73 75  2  0  0  0
 73 76  1  0  0  0
 73148  1  0  0  0
 74 76  2  0  0  0
 75 78  1  0  0  0
 76 86  1  0  0  0
 77 84  1  0  0  0
 77149  1  0  0  0
 77150  1  0  0  0
 77151  1  0  0  0
 78 85  1  0  0  0
 78152  1  0  0  0
 78153  1  0  0  0
 79 80  1  0  0  0
 79 82  1  0  0  0
 79154  1  0  0  0
 79155  1  0  0  0
 80 84  1  0  0  0
 80156  1  0  0  0
 80157  1  0  0  0
 81 83  1  0  0  0
 81 85  1  0  0  0
 81158  1  0  0  0
 81159  1  0  0  0
 82 86  1  0  0  0
 82160  1  0  0  0
 82161  1  0  0  0
 83162  1  0  0  0
 83163  1  0  0  0
 84164  1  0  0  0
 84165  1  0  0  0
 85166  1  0  0  0
 85167  1  0  0  0
M  CHG  2  84   1  85   1
M  ISO  4   1 100  68 101  74 100  83 101
M  END
> <chiral flag>
0

> <version>
0

> <s_m_source_file>
/data/baiqing/PycharmProjects/Reinvent-master-3.2/result/LINK_invent/BTK/process_docking_weight1_custom_sum_contain_oxygen_bond_distance_aromatic_linkinvent_7_9_3/rearranged_h_0133.sdf

> <i_m_source_file_index>
91

> <r_mmod_Potential_Energy-OPLS-2005>
9842.826171875

> <r_mmod_Stretch_Energy-OPLS-2005>
6096.42138671875

> <r_mmod_Bend_Energy-OPLS-2005>
950.431884765625

> <r_mmod_Torsional_Energy-OPLS-2005>
377.700073242188

> <r_mmod_Improper_Torsional_Energy-OPLS-2005>
29.1519012451172

> <r_mmod_Van_der_Waal_Energy-OPLS-2005>
2521.22534179688

> <r_mmod_Electrostatic_Energy-OPLS-2005>
-26.1528854370117

> <r_mmod_Solvation_Energy-OPLS-2005>
-820.054321289062

> <b_mmod_Minimization_Converged-OPLS-2005>
0

> <r_mmod_RMS_Derivative-OPLS-2005>
7.98914575576782

$$$$
92
                    3D
 Structure written by MMmdl.
159168  0  0  1  0            999 V2000
  -30.5840  -14.6736   20.4795 C   0  0  0  0  0  0
  -30.4522  -12.4100   19.4369 C   0  0  0  0  0  0
  -29.5019  -12.4938   18.2182 C   0  0  0  0  0  0
  -28.0276  -12.3251   18.6421 C   0  0  0  0  0  0
  -27.6533  -13.2071   19.8618 C   0  0  2  0  0  0
  -28.7038  -13.0539   20.9848 C   0  0  0  0  0  0
  -25.2576  -13.8154   20.5703 C   0  0  0  0  0  0
  -24.1824  -13.0436   20.9198 C   0  0  0  0  0  0
  -24.6389  -11.6896   20.8769 C   0  0  0  0  0  0
  -23.9051  -10.4282   21.0424 C   0  0  0  0  0  0
  -24.3605   -9.4198   21.9196 C   0  0  0  0  0  0
  -23.6281   -8.2236   22.0759 C   0  0  0  0  0  0
  -22.4268   -8.0284   21.3552 C   0  0  0  0  0  0
  -21.9906   -9.0249   20.4649 C   0  0  0  0  0  0
  -22.7231  -10.2122   20.3061 C   0  0  0  0  0  0
  -21.6846   -6.0738   22.5270 C   0  0  0  0  0  0
  -21.4003   -6.5649   23.8206 C   0  0  0  0  0  0
  -21.3657   -5.6798   24.9175 C   0  0  0  0  0  0
  -21.6039   -4.3059   24.7223 C   0  0  0  0  0  0
  -21.8821   -3.8146   23.4347 C   0  0  0  0  0  0
  -21.9188   -4.6963   22.3401 C   0  0  0  0  0  0
  -22.7852  -13.5228   21.1847 C   0  0  0  0  0  0
  -22.1658   -4.2151   21.0978 F   0  0  0  0  0  0
  -21.5633   -3.4534   25.7740 F   0  0  0  0  0  0
  -30.0149  -13.4229   20.4186 N   0  0  0  0  0  0
  -26.2990  -12.9304   20.3327 N   0  0  0  0  0  0
  -25.9312  -11.6473   20.5790 N   0  0  0  0  0  0
  -22.0480  -12.8225   22.0411 N   0  0  0  0  0  0
  -25.4329  -15.1875   20.4125 N   0  0  0  0  0  0
  -31.7461  -14.8650   20.1028 O   0  0  0  0  0  0
  -21.6634   -6.8874   21.4238 O   0  0  0  0  0  0
  -22.3553  -14.5545   20.6715 O   0  0  0  0  0  0
  -24.6263  -31.8564   23.1948 C   0  0  0  0  0  0
  -25.9096  -32.4757   23.8297 C   0  0  1  0  0  0
  -27.2401  -27.3115   20.1391 C   0  0  0  0  0  0
  -25.5910  -33.8560   24.2244 N   0  0  0  0  0  0
  -23.4230  -30.4779   21.5338 C   0  0  2  0  0  0
  -24.8745  -28.9163   20.1180 C   0  0  0  0  0  0
  -22.7490  -29.4626   22.4873 C   0  0  0  0  0  0
  -18.0288  -28.1451   22.8482 C   0  0  0  0  0  0
  -24.1476  -36.7257   23.2640 C   0  0  0  0  0  0
  -25.9627  -30.7881   21.3633 C   0  0  0  0  0  0
  -26.0409  -29.4105   20.7154 C   0  0  0  0  0  0
  -27.2302  -28.6233   20.7050 C   0  0  0  0  0  0
  -26.0523  -26.8578   19.5303 C   0  0  0  0  0  0
  -24.8797  -27.6452   19.5167 C   0  0  0  0  0  0
  -23.6446  -29.8015   20.1537 C   0  0  0  0  0  0
  -25.4100  -36.3065   24.0340 C   0  0  1  0  0  0
  -20.5900  -28.3740   23.1257 C   0  0  2  0  0  0
  -20.6803  -26.9460   22.5399 C   0  0  0  0  0  0
  -19.5779  -26.6408   21.5224 C   0  0  0  0  0  0
  -18.1945  -26.7985   22.1612 C   0  0  0  0  0  0
  -19.1555  -28.8895   23.2872 C   0  0  0  0  0  0
  -18.9490  -30.1497   23.8875 C   0  0  0  0  0  0
  -17.6497  -30.6630   24.0600 C   0  0  0  0  0  0
  -25.9026  -34.9444   23.5082 C   0  0  0  0  0  0
  -16.5372  -29.9142   23.6361 C   0  0  0  0  0  0
  -16.7271  -28.6587   23.0319 C   0  0  0  0  0  0
  -26.4505  -31.6577   25.0671 C   0  0  0  0  0  0
  -25.3743  -31.3729   26.1397 C   0  0  0  0  0  0
  -27.0358  -30.2994   24.6112 C   0  0  0  0  0  0
  -27.6024  -32.4333   25.7461 C   0  0  0  0  0  0
  -27.5576  -37.1773   24.8470 C   0  0  0  0  0  0
  -21.4202  -29.3065   22.3616 N   0  0  0  0  0  0
  -26.4272  -37.3765   23.9435 N   0  0  0  0  0  0
  -24.6905  -31.0597   22.0890 N   0  0  0  0  0  0
  -23.4224  -28.8164   23.2959 O   0  0  0  0  0  0
  -28.3861  -26.5065   20.1196 O   0  0  0  0  0  0
  -26.5605  -34.8936   22.4653 O   0  0  0  0  0  0
  -23.5416  -32.1341   23.7266 O   0  0  0  0  0  0
  -28.5532  -17.6573   21.5359 C   0  0  0  0  0  0
  -30.1074  -19.3873   20.1456 C   0  0  0  0  0  0
  -28.2660  -19.0448   21.6138 C   0  0  0  0  0  0
  -29.0333  -19.9870   20.8718 C   0  0  0  0  0  0
  -29.6305  -17.1318   20.7952 C   0  0  0  0  0  0
  -27.3810  -20.3132   23.7583 C   0  0  0  0  0  0
  -27.0765  -18.8454   23.9216 C   0  0  0  0  0  0
  -27.1516  -19.4497   22.5358 C   0  0  0  0  0  0
  -28.6657  -21.5416   20.9733 C   0  0  0  0  0  0
  -28.2915  -23.8596   19.7226 C   0  0  0  0  0  0
  -28.3632  -25.1326   20.6886 C   0  0  0  0  0  0
  -30.3956  -18.0335   20.1070 N   0  0  0  0  0  0
  -29.7177  -15.6682   20.8603 N   0  0  0  0  0  0
  -29.1297  -22.5958   19.9834 N   0  3  0  0  0  0
  -31.4847  -12.5707   19.1175 H   0  0  0  0  0  0
  -30.4297  -11.4128   19.8781 H   0  0  0  0  0  0
  -29.7623  -11.7281   17.4856 H   0  0  0  0  0  0
  -29.6283  -13.4534   17.7147 H   0  0  0  0  0  0
  -27.8771  -11.2734   18.8870 H   0  0  0  0  0  0
  -27.3622  -12.5324   17.8030 H   0  0  0  0  0  0
  -27.6689  -14.2398   19.5147 H   0  0  0  0  0  0
  -28.7277  -12.0225   21.3389 H   0  0  0  0  0  0
  -28.4440  -13.6555   21.8581 H   0  0  0  0  0  0
  -25.2739   -9.5671   22.4790 H   0  0  0  0  0  0
  -23.9977   -7.4620   22.7482 H   0  0  0  0  0  0
  -21.0833   -8.8757   19.8958 H   0  0  0  0  0  0
  -22.3682  -10.9664   19.6179 H   0  0  0  0  0  0
  -21.1989   -7.6157   23.9710 H   0  0  0  0  0  0
  -21.1478   -6.0533   25.9076 H   0  0  0  0  0  0
  -22.0605   -2.7606   23.2838 H   0  0  0  0  0  0
  -22.4044  -11.9834   22.4728 H   0  0  0  0  0  0
  -21.1125  -13.1301   22.2656 H   0  0  0  0  0  0
  -24.6684  -15.8425   20.5329 H   0  0  0  0  0  0
  -26.2730  -15.6257   20.0591 H   0  0  0  0  0  0
  -26.7152  -32.5437   23.1041 H   0  0  0  0  0  0
  -25.0154  -33.9715   25.0458 H   0  0  0  0  0  0
  -22.7204  -31.2994   21.3786 H   0  0  0  0  0  0
  -23.3764  -35.9552   23.3252 H   0  0  0  0  0  0
  -24.3589  -36.8900   22.2063 H   0  0  0  0  0  0
  -23.7187  -37.6426   23.6686 H   0  0  0  0  0  0
  -26.0921  -31.5473   20.5907 H   0  0  0  0  0  0
  -26.8428  -30.8421   21.9913 H   0  0  0  0  0  0
  -28.1327  -29.0131   21.1533 H   0  0  0  0  0  0
  -26.0337  -25.8858   19.0611 H   0  0  0  0  0  0
  -23.9849  -27.2629   19.0443 H   0  0  0  0  0  0
  -23.7761  -30.5731   19.3936 H   0  0  0  0  0  0
  -22.7665  -29.2317   19.8417 H   0  0  0  0  0  0
  -25.1282  -36.1878   25.0826 H   0  0  0  0  0  0
  -21.0004  -28.3320   24.1377 H   0  0  0  0  0  0
  -20.5754  -26.2364   23.3621 H   0  0  0  0  0  0
  -21.6670  -26.7534   22.1139 H   0  0  0  0  0  0
  -19.6975  -25.6313   21.1256 H   0  0  0  0  0  0
  -19.6713  -27.3230   20.6771 H   0  0  0  0  0  0
  -17.4240  -26.6724   21.3996 H   0  0  0  0  0  0
  -18.0314  -26.0161   22.9027 H   0  0  0  0  0  0
  -19.7975  -30.7336   24.2202 H   0  0  0  0  0  0
  -17.5068  -31.6305   24.5220 H   0  0  0  0  0  0
  -15.5378  -30.3067   23.7727 H   0  0  0  0  0  0
  -15.8671  -28.0955   22.6971 H   0  0  0  0  0  0
  -24.5923  -30.7083   25.7720 H   0  0  0  0  0  0
  -24.8973  -32.2933   26.4772 H   0  0  0  0  0  0
  -25.8076  -30.8938   27.0184 H   0  0  0  0  0  0
  -26.2939  -29.6727   24.1164 H   0  0  0  0  0  0
  -27.4111  -29.7244   25.4577 H   0  0  0  0  0  0
  -27.8766  -30.4268   23.9294 H   0  0  0  0  0  0
  -27.2586  -33.3646   26.1965 H   0  0  0  0  0  0
  -28.3894  -32.6854   25.0351 H   0  0  0  0  0  0
  -28.0637  -31.8527   26.5462 H   0  0  0  0  0  0
  -28.2515  -38.0143   24.7578 H   0  0  0  0  0  0
  -28.1141  -36.2668   24.6185 H   0  0  0  0  0  0
  -27.2330  -37.1262   25.8881 H   0  0  0  0  0  0
  -20.9397  -29.8762   21.6796 H   0  0  0  0  0  0
  -26.0131  -38.2804   24.1513 H   0  0  0  0  0  0
  -27.9249  -16.9776   22.0948 H   0  0  0  0  0  0
  -30.7791  -20.0114   19.5735 H   0  0  0  0  0  0
  -28.3969  -20.6368   23.9818 H   0  0  0  0  0  0
  -26.5933  -21.0005   24.0616 H   0  0  0  0  0  0
  -26.0976  -18.5865   24.3192 H   0  0  0  0  0  0
  -27.8965  -18.2099   24.2519 H   0  0  0  0  0  0
  -26.2134  -19.5500   21.9968 H   0  0  0  0  0  0
  -28.9489  -21.8922   21.9674 H   0  0  0  0  0  0
  -27.5778  -21.5876   20.9508 H   0  0  0  0  0  0
  -28.6218  -24.2105   18.7452 H   0  0  0  0  0  0
  -27.2480  -23.5780   19.5786 H   0  0  0  0  0  0
  -29.2766  -25.0506   21.2784 H   0  0  0  0  0  0
  -27.5604  -25.0734   21.4224 H   0  0  0  0  0  0
  -28.8734  -15.2564   21.2207 H   0  0  0  0  0  0
  -29.1583  -22.1325   19.0885 H   0  0  0  0  0  0
  -30.0834  -22.8620   20.1885 H   0  0  0  0  0  0
  1 25  1  0  0  0
  1 30  2  0  0  0
  1 83  1  0  0  0
  2  3  1  0  0  0
  2 25  1  0  0  0
  2 85  1  0  0  0
  2 86  1  0  0  0
  3  4  1  0  0  0
  3 87  1  0  0  0
  3 88  1  0  0  0
  4  5  1  0  0  0
  4 89  1  0  0  0
  4 90  1  0  0  0
  5  6  1  0  0  0
  5 26  1  0  0  0
  5 91  1  0  0  0
  6 25  1  0  0  0
  6 92  1  0  0  0
  6 93  1  0  0  0
  7  8  2  0  0  0
  7 26  1  0  0  0
  7 29  1  0  0  0
  8  9  1  0  0  0
  8 22  1  0  0  0
  9 10  1  0  0  0
  9 27  2  0  0  0
 10 11  2  0  0  0
 10 15  1  0  0  0
 11 12  1  0  0  0
 11 94  1  0  0  0
 12 13  2  0  0  0
 12 95  1  0  0  0
 13 14  1  0  0  0
 13 31  1  0  0  0
 14 15  2  0  0  0
 14 96  1  0  0  0
 15 97  1  0  0  0
 16 17  2  0  0  0
 16 21  1  0  0  0
 16 31  1  0  0  0
 17 18  1  0  0  0
 17 98  1  0  0  0
 18 19  2  0  0  0
 18 99  1  0  0  0
 19 20  1  0  0  0
 19 24  1  0  0  0
 20 21  2  0  0  0
 20100  1  0  0  0
 21 23  1  0  0  0
 22 28  1  0  0  0
 22 32  2  0  0  0
 26 27  1  0  0  0
 28101  1  0  0  0
 28102  1  0  0  0
 29103  1  0  0  0
 29104  1  0  0  0
 33 34  1  0  0  0
 33 66  1  0  0  0
 33 70  2  0  0  0
 34 36  1  0  0  0
 34 59  1  0  0  0
 34105  1  0  0  0
 35 44  2  0  0  0
 35 45  1  0  0  0
 35 68  1  0  0  0
 36 56  1  0  0  0
 36106  1  0  0  0
 37 39  1  0  0  0
 37 47  1  0  0  0
 37 66  1  0  0  0
 37107  1  0  0  0
 38 43  2  0  0  0
 38 46  1  0  0  0
 38 47  1  0  0  0
 39 64  1  0  0  0
 39 67  2  0  0  0
 40 52  1  0  0  0
 40 53  2  0  0  0
 40 58  1  0  0  0
 41108  1  0  0  0
 41109  1  0  0  0
 41110  1  0  0  0
 41 48  1  0  0  0
 42 43  1  0  0  0
 42 66  1  0  0  0
 42111  1  0  0  0
 42112  1  0  0  0
 43 44  1  0  0  0
 44113  1  0  0  0
 45 46  2  0  0  0
 45114  1  0  0  0
 46115  1  0  0  0
 47116  1  0  0  0
 47117  1  0  0  0
 48 56  1  0  0  0
 48 65  1  0  0  0
 48118  1  0  0  0
 49 50  1  0  0  0
 49 53  1  0  0  0
 49 64  1  0  0  0
 49119  1  0  0  0
 50 51  1  0  0  0
 50120  1  0  0  0
 50121  1  0  0  0
 51 52  1  0  0  0
 51122  1  0  0  0
 51123  1  0  0  0
 52124  1  0  0  0
 52125  1  0  0  0
 53 54  1  0  0  0
 54 55  2  0  0  0
 54126  1  0  0  0
 55 57  1  0  0  0
 55127  1  0  0  0
 56 69  2  0  0  0
 57 58  2  0  0  0
 57128  1  0  0  0
 58129  1  0  0  0
 59 60  1  0  0  0
 59 61  1  0  0  0
 59 62  1  0  0  0
 60130  1  0  0  0
 60131  1  0  0  0
 60132  1  0  0  0
 61133  1  0  0  0
 61134  1  0  0  0
 61135  1  0  0  0
 62136  1  0  0  0
 62137  1  0  0  0
 62138  1  0  0  0
 63 65  1  0  0  0
 63139  1  0  0  0
 63140  1  0  0  0
 63141  1  0  0  0
 64142  1  0  0  0
 65143  1  0  0  0
 68 81  1  0  0  0
 71 73  2  0  0  0
 71 75  1  0  0  0
 71144  1  0  0  0
 72 74  2  0  0  0
 72 82  1  0  0  0
 72145  1  0  0  0
 73 74  1  0  0  0
 73 78  1  0  0  0
 74 79  1  0  0  0
 75 82  2  0  0  0
 75 83  1  0  0  0
 76 77  1  0  0  0
 76 78  1  0  0  0
 76146  1  0  0  0
 76147  1  0  0  0
 77 78  1  0  0  0
 77148  1  0  0  0
 77149  1  0  0  0
 78150  1  0  0  0
 79 84  1  0  0  0
 79151  1  0  0  0
 79152  1  0  0  0
 80 81  1  0  0  0
 80 84  1  0  0  0
 80153  1  0  0  0
 80154  1  0  0  0
 81155  1  0  0  0
 81156  1  0  0  0
 83157  1  0  0  0
 84158  1  0  0  0
 84159  1  0  0  0
M  CHG  1  84   1
M  ISO  4   1 100  68 101  81 101  83 100
M  END
> <chiral flag>
0

> <version>
0

> <s_m_source_file>
/data/baiqing/PycharmProjects/Reinvent-master-3.2/result/LINK_invent/BTK/process_docking_weight1_custom_sum_contain_oxygen_bond_distance_aromatic_linkinvent_7_9_3/rearranged_h_0133.sdf

> <i_m_source_file_index>
92

> <r_mmod_Potential_Energy-OPLS-2005>
-130.792022705078

> <r_mmod_Stretch_Energy-OPLS-2005>
92.3194427490234

> <r_mmod_Bend_Energy-OPLS-2005>
196.195938110352

> <r_mmod_Torsional_Energy-OPLS-2005>
260.350433349609

> <r_mmod_Improper_Torsional_Energy-OPLS-2005>
3.52813935279846

> <r_mmod_Van_der_Waal_Energy-OPLS-2005>
133.499801635742

> <r_mmod_Electrostatic_Energy-OPLS-2005>
-384.964721679688

> <r_mmod_Solvation_Energy-OPLS-2005>
-485.476593017578

> <b_mmod_Minimization_Converged-OPLS-2005>
0

> <r_mmod_RMS_Derivative-OPLS-2005>
4.1406946182251

$$$$
93
                    3D
 Structure written by MMmdl.
176186  0  0  1  0            999 V2000
  -30.6586  -14.6416   20.4148 C   0  0  0  0  0  0
  -30.4250  -12.3797   19.4420 C   0  0  0  0  0  0
  -29.4928  -12.4434   18.2139 C   0  0  0  0  0  0
  -28.0170  -12.3147   18.6399 C   0  0  0  0  0  0
  -27.6416  -13.2206   19.8444 C   0  0  2  0  0  0
  -28.6952  -13.1487   20.9686 C   0  0  0  0  0  0
  -25.2537  -13.8185   20.5733 C   0  0  0  0  0  0
  -24.1803  -13.0443   20.9217 C   0  0  0  0  0  0
  -24.6376  -11.6919   20.8764 C   0  0  0  0  0  0
  -23.9047  -10.4295   21.0412 C   0  0  0  0  0  0
  -24.3598   -9.4217   21.9190 C   0  0  0  0  0  0
  -23.6278   -8.2249   22.0755 C   0  0  0  0  0  0
  -22.4263   -8.0283   21.3542 C   0  0  0  0  0  0
  -21.9900   -9.0254   20.4648 C   0  0  0  0  0  0
  -22.7220  -10.2138   20.3064 C   0  0  0  0  0  0
  -21.6854   -6.0732   22.5273 C   0  0  0  0  0  0
  -21.4014   -6.5631   23.8207 C   0  0  0  0  0  0
  -21.3664   -5.6785   24.9170 C   0  0  0  0  0  0
  -21.6040   -4.3048   24.7224 C   0  0  0  0  0  0
  -21.8815   -3.8142   23.4346 C   0  0  0  0  0  0
  -21.9191   -4.6959   22.3399 C   0  0  0  0  0  0
  -22.7831  -13.5236   21.1859 C   0  0  0  0  0  0
  -22.1663   -4.2147   21.0978 F   0  0  0  0  0  0
  -21.5630   -3.4534   25.7739 F   0  0  0  0  0  0
  -29.9973  -13.4462   20.3637 N   0  0  0  0  0  0
  -26.2954  -12.9371   20.3326 N   0  0  0  0  0  0
  -25.9311  -11.6527   20.5811 N   0  0  0  0  0  0
  -22.0460  -12.8232   22.0407 N   0  0  0  0  0  0
  -25.4265  -15.1909   20.4185 N   0  0  0  0  0  0
  -31.8860  -14.6971   20.3035 O   0  0  0  0  0  0
  -21.6632   -6.8878   21.4238 O   0  0  0  0  0  0
  -22.3533  -14.5545   20.6708 O   0  0  0  0  0  0
  -24.6234  -31.8633   23.2033 C   0  0  0  0  0  0
  -25.9088  -32.4795   23.8359 C   0  0  1  0  0  0
  -27.2247  -27.3458   20.1024 C   0  0  0  0  0  0
  -25.5919  -33.8594   24.2280 N   0  0  0  0  0  0
  -23.4138  -30.4890   21.5458 C   0  0  2  0  0  0
  -24.8589  -28.9494   20.1098 C   0  0  0  0  0  0
  -22.7452  -29.4649   22.4930 C   0  0  0  0  0  0
  -18.0287  -28.1384   22.8477 C   0  0  0  0  0  0
  -24.1499  -36.7308   23.2638 C   0  0  0  0  0  0
  -25.9530  -30.8026   21.3702 C   0  0  0  0  0  0
  -26.0264  -29.4321   20.7126 C   0  0  0  0  0  0
  -27.2080  -28.6387   20.7054 C   0  0  0  0  0  0
  -26.0209  -26.8979   19.5066 C   0  0  0  0  0  0
  -24.8563  -27.6856   19.5034 C   0  0  0  0  0  0
  -23.6266  -29.8274   20.1591 C   0  0  0  0  0  0
  -25.4122  -36.3088   24.0323 C   0  0  1  0  0  0
  -20.5884  -28.3689   23.1285 C   0  0  2  0  0  0
  -20.6780  -26.9413   22.5413 C   0  0  0  0  0  0
  -19.5762  -26.6384   21.5209 C   0  0  0  0  0  0
  -18.1934  -26.7931   22.1608 C   0  0  0  0  0  0
  -19.1536  -28.8850   23.2881 C   0  0  0  0  0  0
  -18.9463  -30.1452   23.8900 C   0  0  0  0  0  0
  -17.6466  -30.6585   24.0568 C   0  0  0  0  0  0
  -25.9054  -34.9458   23.5101 C   0  0  0  0  0  0
  -16.5357  -29.9091   23.6325 C   0  0  0  0  0  0
  -16.7275  -28.6510   23.0338 C   0  0  0  0  0  0
  -26.4481  -31.6594   25.0714 C   0  0  0  0  0  0
  -25.3709  -31.3721   26.1435 C   0  0  0  0  0  0
  -27.0329  -30.3023   24.6153 C   0  0  0  0  0  0
  -27.6044  -32.4326   25.7480 C   0  0  0  0  0  0
  -27.5586  -37.1811   24.8459 C   0  0  0  0  0  0
  -21.4171  -29.3050   22.3678 N   0  0  0  0  0  0
  -26.4298  -37.3778   23.9401 N   0  0  0  0  0  0
  -24.6818  -31.0675   22.0976 N   0  0  0  0  0  0
  -23.4190  -28.8191   23.2999 O   0  0  0  0  0  0
  -28.3669  -26.5387   20.1690 O   0  0  0  0  0  0
  -26.5621  -34.8916   22.4668 O   0  0  0  0  0  0
  -23.5406  -32.1426   23.7380 O   0  0  0  0  0  0
  -30.1720  -23.4084   19.5521 C   0  0  0  0  0  0
  -27.9886  -23.1416   20.5293 C   0  0  0  0  0  0
  -30.4795  -22.0585   19.8634 C   0  0  0  0  0  0
  -28.3045  -21.7852   20.8546 C   0  0  0  0  0  0
  -28.9139  -23.9823   19.8558 C   0  0  0  0  0  0
  -29.5454  -21.1919   20.4879 C   0  0  0  0  0  0
  -27.1888  -20.9854   16.9921 C   0  0  0  0  0  0
  -28.1030  -20.5440   15.8409 C   0  0  0  0  0  0
  -27.4173  -19.9579   18.1040 C   0  0  0  0  0  0
  -28.9448  -19.3828   16.3922 C   0  0  0  0  0  0
  -30.0466  -16.0070   18.5701 C   0  0  0  0  0  0
  -29.9039  -17.0258   20.8415 C   0  0  0  0  0  0
  -30.3268  -17.4673   18.1897 C   0  0  0  0  0  0
  -28.8807  -19.5203   17.9275 C   0  0  0  0  0  0
  -29.2901  -18.3948   20.2257 C   0  0  1  0  0  0
  -29.9976  -19.6485   22.3959 C   0  0  0  0  0  0
  -28.5451  -25.3896   19.2785 C   0  0  0  0  0  0
  -29.9773  -19.7189   20.8553 C   0  0  2  0  0  0
  -29.9338  -15.7520   20.0258 N   0  0  0  0  0  0
  -29.2309  -18.3017   18.7236 N   0  3  2  0  0  0
  -31.4630  -12.4967   19.1270 H   0  0  0  0  0  0
  -30.3606  -11.4056   19.9310 H   0  0  0  0  0  0
  -29.7437  -11.6434   17.5162 H   0  0  0  0  0  0
  -29.6426  -13.3712   17.6651 H   0  0  0  0  0  0
  -27.8481  -11.2697   18.9022 H   0  0  0  0  0  0
  -27.3597  -12.5203   17.7940 H   0  0  0  0  0  0
  -27.6347  -14.2416   19.4641 H   0  0  0  0  0  0
  -28.7083  -12.1610   21.4319 H   0  0  0  0  0  0
  -28.4629  -13.8662   21.7574 H   0  0  0  0  0  0
  -25.2740   -9.5698   22.4766 H   0  0  0  0  0  0
  -23.9988   -7.4638   22.7469 H   0  0  0  0  0  0
  -21.0832   -8.8767   19.8946 H   0  0  0  0  0  0
  -22.3673  -10.9676   19.6175 H   0  0  0  0  0  0
  -21.2005   -7.6136   23.9714 H   0  0  0  0  0  0
  -21.1492   -6.0515   25.9070 H   0  0  0  0  0  0
  -22.0589   -2.7605   23.2844 H   0  0  0  0  0  0
  -22.4066  -11.9894   22.4803 H   0  0  0  0  0  0
  -21.1088  -13.1279   22.2611 H   0  0  0  0  0  0
  -24.6630  -15.8475   20.5396 H   0  0  0  0  0  0
  -26.2909  -15.6312   20.1347 H   0  0  0  0  0  0
  -26.7157  -32.5481   23.1112 H   0  0  0  0  0  0
  -25.0066  -33.9749   25.0426 H   0  0  0  0  0  0
  -22.7060  -31.3086   21.4051 H   0  0  0  0  0  0
  -23.3751  -35.9649   23.3297 H   0  0  0  0  0  0
  -24.3601  -36.8943   22.2056 H   0  0  0  0  0  0
  -23.7265  -37.6513   23.6672 H   0  0  0  0  0  0
  -26.0790  -31.5672   20.6025 H   0  0  0  0  0  0
  -26.8358  -30.8539   21.9958 H   0  0  0  0  0  0
  -28.1045  -29.0056   21.1862 H   0  0  0  0  0  0
  -25.9202  -25.9157   19.0753 H   0  0  0  0  0  0
  -23.9538  -27.3008   19.0479 H   0  0  0  0  0  0
  -23.7465  -30.6067   19.4058 H   0  0  0  0  0  0
  -22.7465  -29.2584   19.8535 H   0  0  0  0  0  0
  -25.1301  -36.1946   25.0814 H   0  0  0  0  0  0
  -20.9978  -28.3279   24.1406 H   0  0  0  0  0  0
  -20.5694  -26.2297   23.3612 H   0  0  0  0  0  0
  -21.6653  -26.7463   22.1205 H   0  0  0  0  0  0
  -19.6936  -25.6295   21.1245 H   0  0  0  0  0  0
  -19.6712  -27.3190   20.6734 H   0  0  0  0  0  0
  -17.4212  -26.6683   21.4001 H   0  0  0  0  0  0
  -18.0334  -26.0067   22.8997 H   0  0  0  0  0  0
  -19.7943  -30.7263   24.2276 H   0  0  0  0  0  0
  -17.5026  -31.6266   24.5176 H   0  0  0  0  0  0
  -15.5361  -30.3001   23.7648 H   0  0  0  0  0  0
  -15.8674  -28.0847   22.7035 H   0  0  0  0  0  0
  -24.5898  -30.7055   25.7759 H   0  0  0  0  0  0
  -24.8871  -32.2880   26.4838 H   0  0  0  0  0  0
  -25.8023  -30.8918   27.0223 H   0  0  0  0  0  0
  -26.2901  -29.6770   24.1185 H   0  0  0  0  0  0
  -27.4054  -29.7281   25.4647 H   0  0  0  0  0  0
  -27.8748  -30.4320   23.9348 H   0  0  0  0  0  0
  -27.2663  -33.3635   26.2043 H   0  0  0  0  0  0
  -28.3854  -32.6878   25.0303 H   0  0  0  0  0  0
  -28.0708  -31.8459   26.5410 H   0  0  0  0  0  0
  -28.2587  -38.0119   24.7515 H   0  0  0  0  0  0
  -28.1098  -36.2653   24.6275 H   0  0  0  0  0  0
  -27.2307  -37.1451   25.8861 H   0  0  0  0  0  0
  -20.9338  -29.8780   21.6902 H   0  0  0  0  0  0
  -26.0182  -38.2854   24.1394 H   0  0  0  0  0  0
  -30.9137  -23.9996   19.0336 H   0  0  0  0  0  0
  -27.0085  -23.5271   20.7721 H   0  0  0  0  0  0
  -31.4581  -21.6846   19.5972 H   0  0  0  0  0  0
  -27.5644  -21.1895   21.3711 H   0  0  0  0  0  0
  -26.1419  -21.0459   16.6944 H   0  0  0  0  0  0
  -27.4864  -21.9773   17.3384 H   0  0  0  0  0  0
  -28.7425  -21.3722   15.5311 H   0  0  0  0  0  0
  -27.5315  -20.2315   14.9653 H   0  0  0  0  0  0
  -26.7496  -19.1096   17.9466 H   0  0  0  0  0  0
  -27.1803  -20.3557   19.0854 H   0  0  0  0  0  0
  -29.9648  -19.4217   16.0067 H   0  0  0  0  0  0
  -28.5015  -18.4390   16.0709 H   0  0  0  0  0  0
  -30.8245  -15.4032   18.0954 H   0  0  0  0  0  0
  -29.1169  -15.6831   18.1000 H   0  0  0  0  0  0
  -29.4039  -16.8075   21.7863 H   0  0  0  0  0  0
  -30.9452  -17.2195   21.1074 H   0  0  0  0  0  0
  -30.4035  -17.4968   17.1058 H   0  0  0  0  0  0
  -31.2918  -17.8121   18.5646 H   0  0  0  0  0  0
  -29.5723  -20.3229   18.1586 H   0  0  0  0  0  0
  -28.2432  -18.4315   20.5304 H   0  0  0  0  0  0
  -30.5524  -20.4913   22.8095 H   0  0  0  0  0  0
  -30.4772  -18.7487   22.7779 H   0  0  0  0  0  0
  -28.9900  -19.6873   22.8112 H   0  0  0  0  0  0
  -27.7437  -25.2398   18.5616 H   0  0  0  0  0  0
  -29.3750  -25.6857   18.6361 H   0  0  0  0  0  0
  -31.0213  -19.6492   20.5485 H   0  0  0  0  0  0
  -28.4320  -17.7080   18.5632 H   0  0  0  0  0  0
  1 25  1  0  0  0
  1 30  2  0  0  0
  1 89  1  0  0  0
  2  3  1  0  0  0
  2 25  1  0  0  0
  2 91  1  0  0  0
  2 92  1  0  0  0
  3  4  1  0  0  0
  3 93  1  0  0  0
  3 94  1  0  0  0
  4  5  1  0  0  0
  4 95  1  0  0  0
  4 96  1  0  0  0
  5  6  1  0  0  0
  5 26  1  0  0  0
  5 97  1  0  0  0
  6 25  1  0  0  0
  6 98  1  0  0  0
  6 99  1  0  0  0
  7  8  2  0  0  0
  7 26  1  0  0  0
  7 29  1  0  0  0
  8  9  1  0  0  0
  8 22  1  0  0  0
  9 10  1  0  0  0
  9 27  2  0  0  0
 10 11  2  0  0  0
 10 15  1  0  0  0
 11 12  1  0  0  0
 11100  1  0  0  0
 12 13  2  0  0  0
 12101  1  0  0  0
 13 14  1  0  0  0
 13 31  1  0  0  0
 14 15  2  0  0  0
 14102  1  0  0  0
 15103  1  0  0  0
 16 17  2  0  0  0
 16 21  1  0  0  0
 16 31  1  0  0  0
 17 18  1  0  0  0
 17104  1  0  0  0
 18 19  2  0  0  0
 18105  1  0  0  0
 19 20  1  0  0  0
 19 24  1  0  0  0
 20 21  2  0  0  0
 20106  1  0  0  0
 21 23  1  0  0  0
 22 28  1  0  0  0
 22 32  2  0  0  0
 26 27  1  0  0  0
 28107  1  0  0  0
 28108  1  0  0  0
 29109  1  0  0  0
 29110  1  0  0  0
 33 34  1  0  0  0
 33 66  1  0  0  0
 33 70  2  0  0  0
 34 36  1  0  0  0
 34 59  1  0  0  0
 34111  1  0  0  0
 35 44  2  0  0  0
 35 45  1  0  0  0
 35 68  1  0  0  0
 36 56  1  0  0  0
 36112  1  0  0  0
 37 39  1  0  0  0
 37 47  1  0  0  0
 37 66  1  0  0  0
 37113  1  0  0  0
 38 43  2  0  0  0
 38 46  1  0  0  0
 38 47  1  0  0  0
 39 64  1  0  0  0
 39 67  2  0  0  0
 40 52  1  0  0  0
 40 53  2  0  0  0
 40 58  1  0  0  0
 41114  1  0  0  0
 41115  1  0  0  0
 41116  1  0  0  0
 41 48  1  0  0  0
 42 43  1  0  0  0
 42 66  1  0  0  0
 42117  1  0  0  0
 42118  1  0  0  0
 43 44  1  0  0  0
 44119  1  0  0  0
 45 46  2  0  0  0
 45120  1  0  0  0
 46121  1  0  0  0
 47122  1  0  0  0
 47123  1  0  0  0
 48 56  1  0  0  0
 48 65  1  0  0  0
 48124  1  0  0  0
 49 50  1  0  0  0
 49 53  1  0  0  0
 49 64  1  0  0  0
 49125  1  0  0  0
 50 51  1  0  0  0
 50126  1  0  0  0
 50127  1  0  0  0
 51 52  1  0  0  0
 51128  1  0  0  0
 51129  1  0  0  0
 52130  1  0  0  0
 52131  1  0  0  0
 53 54  1  0  0  0
 54 55  2  0  0  0
 54132  1  0  0  0
 55 57  1  0  0  0
 55133  1  0  0  0
 56 69  2  0  0  0
 57 58  2  0  0  0
 57134  1  0  0  0
 58135  1  0  0  0
 59 60  1  0  0  0
 59 61  1  0  0  0
 59 62  1  0  0  0
 60136  1  0  0  0
 60137  1  0  0  0
 60138  1  0  0  0
 61139  1  0  0  0
 61140  1  0  0  0
 61141  1  0  0  0
 62142  1  0  0  0
 62143  1  0  0  0
 62144  1  0  0  0
 63 65  1  0  0  0
 63145  1  0  0  0
 63146  1  0  0  0
 63147  1  0  0  0
 64148  1  0  0  0
 65149  1  0  0  0
 68 87  1  0  0  0
 71 73  2  0  0  0
 71 75  1  0  0  0
 71150  1  0  0  0
 72 74  1  0  0  0
 72 75  2  0  0  0
 72151  1  0  0  0
 73 76  1  0  0  0
 73152  1  0  0  0
 74 76  2  0  0  0
 74153  1  0  0  0
 75 87  1  0  0  0
 76 88  1  0  0  0
 77 78  1  0  0  0
 77 79  1  0  0  0
 77154  1  0  0  0
 77155  1  0  0  0
 78 80  1  0  0  0
 78156  1  0  0  0
 78157  1  0  0  0
 79158  1  0  0  0
 79159  1  0  0  0
 79 84  1  0  0  0
 80 84  1  0  0  0
 80160  1  0  0  0
 80161  1  0  0  0
 81 83  1  0  0  0
 81 89  1  0  0  0
 81162  1  0  0  0
 81163  1  0  0  0
 82 89  1  0  0  0
 82164  1  0  0  0
 82165  1  0  0  0
 82 85  1  0  0  0
 83166  1  0  0  0
 83167  1  0  0  0
 83 90  1  0  0  0
 84 90  1  0  0  0
 84168  1  0  0  0
 85 88  1  0  0  0
 85 90  1  0  0  0
 85169  1  0  0  0
 86170  1  0  0  0
 86171  1  0  0  0
 86172  1  0  0  0
 86 88  1  0  0  0
 87173  1  0  0  0
 87174  1  0  0  0
 88175  1  0  0  0
 90176  1  0  0  0
M  CHG  1  90   1
M  ISO  4   1 100  68 101  87 101  89 100
M  END
> <chiral flag>
0

> <version>
0

> <s_m_source_file>
/data/baiqing/PycharmProjects/Reinvent-master-3.2/result/LINK_invent/BTK/process_docking_weight1_custom_sum_contain_oxygen_bond_distance_aromatic_linkinvent_7_9_3/rearranged_h_0133.sdf

> <i_m_source_file_index>
93

> <r_mmod_Potential_Energy-OPLS-2005>
420.252990722656

> <r_mmod_Stretch_Energy-OPLS-2005>
88.624641418457

> <r_mmod_Bend_Energy-OPLS-2005>
213.338989257812

> <r_mmod_Torsional_Energy-OPLS-2005>
494.875854492188

> <r_mmod_Improper_Torsional_Energy-OPLS-2005>
23.1523723602295

> <r_mmod_Van_der_Waal_Energy-OPLS-2005>
155.991485595703

> <r_mmod_Electrostatic_Energy-OPLS-2005>
-195.229583740234

> <r_mmod_Solvation_Energy-OPLS-2005>
-417.063049316406

> <b_mmod_Minimization_Converged-OPLS-2005>
0

> <r_mmod_RMS_Derivative-OPLS-2005>
1.6158674955368

$$$$
94
                    3D
 Structure written by MMmdl.
161170  0  0  1  0            999 V2000
  -30.6649  -14.5125   20.6417 C   0  0  0  0  0  0
  -30.4397  -12.3565   19.4230 C   0  0  0  0  0  0
  -29.5021  -12.5281   18.2082 C   0  0  0  0  0  0
  -28.0248  -12.3673   18.6211 C   0  0  0  0  0  0
  -27.6665  -13.2042   19.8791 C   0  0  2  0  0  0
  -28.7017  -12.9625   20.9967 C   0  0  0  0  0  0
  -25.2630  -13.8153   20.5654 C   0  0  0  0  0  0
  -24.1855  -13.0432   20.9156 C   0  0  0  0  0  0
  -24.6411  -11.6906   20.8728 C   0  0  0  0  0  0
  -23.9093  -10.4282   21.0413 C   0  0  0  0  0  0
  -24.3654   -9.4194   21.9175 C   0  0  0  0  0  0
  -23.6304   -8.2247   22.0755 C   0  0  0  0  0  0
  -22.4278   -8.0300   21.3555 C   0  0  0  0  0  0
  -21.9927   -9.0285   20.4654 C   0  0  0  0  0  0
  -22.7283  -10.2149   20.3055 C   0  0  0  0  0  0
  -21.6832   -6.0744   22.5279 C   0  0  0  0  0  0
  -21.4014   -6.5651   23.8219 C   0  0  0  0  0  0
  -21.3657   -5.6792   24.9176 C   0  0  0  0  0  0
  -21.6055   -4.3055   24.7204 C   0  0  0  0  0  0
  -21.8826   -3.8157   23.4318 C   0  0  0  0  0  0
  -21.9204   -4.6981   22.3387 C   0  0  0  0  0  0
  -22.7895  -13.5269   21.1807 C   0  0  0  0  0  0
  -22.1672   -4.2183   21.0951 F   0  0  0  0  0  0
  -21.5619   -3.4532   25.7701 F   0  0  0  0  0  0
  -30.0280  -13.3201   20.4602 N   0  0  0  0  0  0
  -26.3045  -12.9316   20.3349 N   0  0  0  0  0  0
  -25.9329  -11.6486   20.5732 N   0  0  0  0  0  0
  -22.0554  -12.8270   22.0392 N   0  0  0  0  0  0
  -25.4358  -15.1843   20.4021 N   0  0  0  0  0  0
  -31.7564  -14.7697   20.1235 O   0  0  0  0  0  0
  -21.6645   -6.8892   21.4241 O   0  0  0  0  0  0
  -22.3605  -14.5573   20.6640 O   0  0  0  0  0  0
  -24.6261  -31.8608   23.2042 C   0  0  0  0  0  0
  -25.9130  -32.4765   23.8333 C   0  0  1  0  0  0
  -27.2167  -27.3659   20.0999 C   0  0  0  0  0  0
  -25.5963  -33.8559   24.2256 N   0  0  0  0  0  0
  -23.4144  -30.4907   21.5470 C   0  0  2  0  0  0
  -24.8543  -28.9584   20.1068 C   0  0  0  0  0  0
  -22.7445  -29.4654   22.4936 C   0  0  0  0  0  0
  -18.0295  -28.1388   22.8504 C   0  0  0  0  0  0
  -24.1501  -36.7298   23.2626 C   0  0  0  0  0  0
  -25.9501  -30.8095   21.3640 C   0  0  0  0  0  0
  -26.0220  -29.4431   20.7054 C   0  0  0  0  0  0
  -27.2071  -28.6586   20.6951 C   0  0  0  0  0  0
  -26.0195  -26.9238   19.4803 C   0  0  0  0  0  0
  -24.8526  -27.7039   19.4842 C   0  0  0  0  0  0
  -23.6240  -29.8330   20.1591 C   0  0  0  0  0  0
  -25.4116  -36.3058   24.0310 C   0  0  1  0  0  0
  -20.5889  -28.3690   23.1287 C   0  0  2  0  0  0
  -20.6790  -26.9417   22.5402 C   0  0  0  0  0  0
  -19.5773  -26.6405   21.5207 C   0  0  0  0  0  0
  -18.1951  -26.7940   22.1623 C   0  0  0  0  0  0
  -19.1547  -28.8855   23.2904 C   0  0  0  0  0  0
  -18.9472  -30.1466   23.8910 C   0  0  0  0  0  0
  -17.6468  -30.6594   24.0578 C   0  0  0  0  0  0
  -25.9053  -34.9436   23.5069 C   0  0  0  0  0  0
  -16.5357  -29.9096   23.6333 C   0  0  0  0  0  0
  -16.7282  -28.6519   23.0342 C   0  0  0  0  0  0
  -26.4540  -31.6556   25.0674 C   0  0  0  0  0  0
  -25.3785  -31.3718   26.1418 C   0  0  0  0  0  0
  -27.0351  -30.2972   24.6082 C   0  0  0  0  0  0
  -27.6087  -32.4272   25.7490 C   0  0  0  0  0  0
  -27.5569  -37.1797   24.8456 C   0  0  0  0  0  0
  -21.4167  -29.3055   22.3677 N   0  0  0  0  0  0
  -26.4286  -37.3755   23.9397 N   0  0  0  0  0  0
  -24.6829  -31.0669   22.0966 N   0  0  0  0  0  0
  -23.4170  -28.8179   23.3003 O   0  0  0  0  0  0
  -28.3464  -26.5436   20.1528 O   0  0  0  0  0  0
  -26.5611  -34.8916   22.4631 O   0  0  0  0  0  0
  -23.5440  -32.1377   23.7408 O   0  0  0  0  0  0
  -31.6358  -23.6073   20.4135 C   0  0  0  0  0  0
  -30.5738  -24.5366   20.4086 C   0  0  0  0  0  0
  -29.0023  -22.6936   20.1466 C   0  0  0  0  0  0
  -31.3866  -22.2230   20.2671 C   0  0  0  0  0  0
  -30.0600  -21.7381   20.1900 C   0  0  0  0  0  0
  -29.2489  -24.1003   20.2177 C   0  0  0  0  0  0
  -29.7524  -17.8839   20.7461 C   0  0  0  0  0  0
  -32.5345  -21.2368   20.0986 C   0  0  0  0  0  0
  -32.2702  -20.1804   18.9940 C   0  0  0  0  0  0
  -30.7724  -19.9668   18.6458 C   0  0  0  0  0  0
  -29.8422  -20.2364   19.8440 C   0  0  1  0  0  0
  -28.1033  -25.1083   19.9649 C   0  0  0  0  0  0
  -30.3612  -16.8247   21.7006 C   0  0  0  0  0  0
  -30.1157  -19.1891   20.8676 N   0  0  0  0  0  0
  -29.9953  -15.4217   21.3825 N   0  0  0  0  0  0
  -28.9460  -17.5095   19.8895 O   0  0  0  0  0  0
  -31.4795  -12.4915   19.1180 H   0  0  0  0  0  0
  -30.3732  -11.3402   19.8144 H   0  0  0  0  0  0
  -29.7566  -11.8041   17.4296 H   0  0  0  0  0  0
  -29.6504  -13.5135   17.7603 H   0  0  0  0  0  0
  -27.8573  -11.3080   18.8148 H   0  0  0  0  0  0
  -27.3641  -12.6249   17.7920 H   0  0  0  0  0  0
  -27.7168  -14.2580   19.6015 H   0  0  0  0  0  0
  -28.7012  -11.9091   21.2838 H   0  0  0  0  0  0
  -28.4364  -13.5039   21.9056 H   0  0  0  0  0  0
  -25.2826   -9.5646   22.4729 H   0  0  0  0  0  0
  -24.0014   -7.4632   22.7472 H   0  0  0  0  0  0
  -21.0863   -8.8834   19.8947 H   0  0  0  0  0  0
  -22.3791  -10.9690   19.6152 H   0  0  0  0  0  0
  -21.2010   -7.6162   23.9739 H   0  0  0  0  0  0
  -21.1466   -6.0506   25.9083 H   0  0  0  0  0  0
  -22.0610   -2.7620   23.2802 H   0  0  0  0  0  0
  -22.4196  -11.9952   22.4768 H   0  0  0  0  0  0
  -21.1187  -13.1324   22.2582 H   0  0  0  0  0  0
  -24.6620  -15.8353   20.4702 H   0  0  0  0  0  0
  -26.2882  -15.6196   20.0652 H   0  0  0  0  0  0
  -26.7198  -32.5457   23.1082 H   0  0  0  0  0  0
  -25.0120  -33.9712   25.0412 H   0  0  0  0  0  0
  -22.7106  -31.3147   21.4117 H   0  0  0  0  0  0
  -23.3723  -35.9673   23.3284 H   0  0  0  0  0  0
  -24.3594  -36.8910   22.2035 H   0  0  0  0  0  0
  -23.7312  -37.6525   23.6654 H   0  0  0  0  0  0
  -26.0664  -31.5730   20.5922 H   0  0  0  0  0  0
  -26.8345  -30.8591   21.9857 H   0  0  0  0  0  0
  -28.1045  -29.0304   21.1692 H   0  0  0  0  0  0
  -25.9434  -25.9652   18.9870 H   0  0  0  0  0  0
  -23.9546  -27.3362   19.0068 H   0  0  0  0  0  0
  -23.7386  -30.6096   19.4023 H   0  0  0  0  0  0
  -22.7459  -29.2591   19.8601 H   0  0  0  0  0  0
  -25.1312  -36.1875   25.0799 H   0  0  0  0  0  0
  -21.0004  -28.3257   24.1401 H   0  0  0  0  0  0
  -20.5697  -26.2294   23.3592 H   0  0  0  0  0  0
  -21.6662  -26.7472   22.1195 H   0  0  0  0  0  0
  -19.6924  -25.6328   21.1226 H   0  0  0  0  0  0
  -19.6697  -27.3226   20.6744 H   0  0  0  0  0  0
  -17.4213  -26.6693   21.4022 H   0  0  0  0  0  0
  -18.0355  -26.0079   22.9016 H   0  0  0  0  0  0
  -19.7941  -30.7302   24.2243 H   0  0  0  0  0  0
  -17.5019  -31.6270   24.5192 H   0  0  0  0  0  0
  -15.5357  -30.2994   23.7666 H   0  0  0  0  0  0
  -15.8685  -28.0856   22.7010 H   0  0  0  0  0  0
  -24.5975  -30.7043   25.7773 H   0  0  0  0  0  0
  -24.8998  -32.2909   26.4795 H   0  0  0  0  0  0
  -25.8145  -30.8949   27.0200 H   0  0  0  0  0  0
  -26.2882  -29.6727   24.1161 H   0  0  0  0  0  0
  -27.4113  -29.7232   25.4558 H   0  0  0  0  0  0
  -27.8736  -30.4241   23.9227 H   0  0  0  0  0  0
  -27.2666  -33.3553   26.2088 H   0  0  0  0  0  0
  -28.3936  -32.6829   25.0356 H   0  0  0  0  0  0
  -28.0706  -31.8358   26.5405 H   0  0  0  0  0  0
  -28.2591  -38.0089   24.7486 H   0  0  0  0  0  0
  -28.1071  -36.2615   24.6313 H   0  0  0  0  0  0
  -27.2293  -37.1482   25.8866 H   0  0  0  0  0  0
  -20.9310  -29.8783   21.6921 H   0  0  0  0  0  0
  -26.0140  -38.2822   24.1406 H   0  0  0  0  0  0
  -32.6524  -23.9756   20.4700 H   0  0  0  0  0  0
  -30.7862  -25.5965   20.4806 H   0  0  0  0  0  0
  -27.9953  -22.3447   19.9657 H   0  0  0  0  0  0
  -32.6620  -20.7341   21.0590 H   0  0  0  0  0  0
  -33.4689  -21.7646   19.8986 H   0  0  0  0  0  0
  -32.7107  -19.2292   19.2954 H   0  0  0  0  0  0
  -32.7934  -20.4725   18.0814 H   0  0  0  0  0  0
  -30.6215  -18.9655   18.2423 H   0  0  0  0  0  0
  -30.4803  -20.6469   17.8458 H   0  0  0  0  0  0
  -28.8060  -20.1289   19.5261 H   0  0  0  0  0  0
  -27.2627  -24.7880   20.5839 H   0  0  0  0  0  0
  -27.8198  -24.9405   18.9245 H   0  0  0  0  0  0
  -29.9827  -17.0203   22.7030 H   0  0  0  0  0  0
  -31.4449  -16.9365   21.7612 H   0  0  0  0  0  0
  -30.7121  -19.4401   21.6421 H   0  0  0  0  0  0
  -29.0985  -15.1239   21.7333 H   0  0  0  0  0  0
  1 25  1  0  0  0
  1 30  2  0  0  0
  1 85  1  0  0  0
  2  3  1  0  0  0
  2 25  1  0  0  0
  2 87  1  0  0  0
  2 88  1  0  0  0
  3  4  1  0  0  0
  3 89  1  0  0  0
  3 90  1  0  0  0
  4  5  1  0  0  0
  4 91  1  0  0  0
  4 92  1  0  0  0
  5  6  1  0  0  0
  5 26  1  0  0  0
  5 93  1  0  0  0
  6 25  1  0  0  0
  6 94  1  0  0  0
  6 95  1  0  0  0
  7  8  2  0  0  0
  7 26  1  0  0  0
  7 29  1  0  0  0
  8  9  1  0  0  0
  8 22  1  0  0  0
  9 10  1  0  0  0
  9 27  2  0  0  0
 10 11  2  0  0  0
 10 15  1  0  0  0
 11 12  1  0  0  0
 11 96  1  0  0  0
 12 13  2  0  0  0
 12 97  1  0  0  0
 13 14  1  0  0  0
 13 31  1  0  0  0
 14 15  2  0  0  0
 14 98  1  0  0  0
 15 99  1  0  0  0
 16 17  2  0  0  0
 16 21  1  0  0  0
 16 31  1  0  0  0
 17 18  1  0  0  0
 17100  1  0  0  0
 18 19  2  0  0  0
 18101  1  0  0  0
 19 20  1  0  0  0
 19 24  1  0  0  0
 20 21  2  0  0  0
 20102  1  0  0  0
 21 23  1  0  0  0
 22 28  1  0  0  0
 22 32  2  0  0  0
 26 27  1  0  0  0
 28103  1  0  0  0
 28104  1  0  0  0
 29105  1  0  0  0
 29106  1  0  0  0
 33 34  1  0  0  0
 33 66  1  0  0  0
 33 70  2  0  0  0
 34 36  1  0  0  0
 34 59  1  0  0  0
 34107  1  0  0  0
 35 44  2  0  0  0
 35 45  1  0  0  0
 35 68  1  0  0  0
 36 56  1  0  0  0
 36108  1  0  0  0
 37 39  1  0  0  0
 37 47  1  0  0  0
 37 66  1  0  0  0
 37109  1  0  0  0
 38 43  2  0  0  0
 38 46  1  0  0  0
 38 47  1  0  0  0
 39 64  1  0  0  0
 39 67  2  0  0  0
 40 52  1  0  0  0
 40 53  2  0  0  0
 40 58  1  0  0  0
 41110  1  0  0  0
 41111  1  0  0  0
 41112  1  0  0  0
 41 48  1  0  0  0
 42 43  1  0  0  0
 42 66  1  0  0  0
 42113  1  0  0  0
 42114  1  0  0  0
 43 44  1  0  0  0
 44115  1  0  0  0
 45 46  2  0  0  0
 45116  1  0  0  0
 46117  1  0  0  0
 47118  1  0  0  0
 47119  1  0  0  0
 48 56  1  0  0  0
 48 65  1  0  0  0
 48120  1  0  0  0
 49 50  1  0  0  0
 49 53  1  0  0  0
 49 64  1  0  0  0
 49121  1  0  0  0
 50 51  1  0  0  0
 50122  1  0  0  0
 50123  1  0  0  0
 51 52  1  0  0  0
 51124  1  0  0  0
 51125  1  0  0  0
 52126  1  0  0  0
 52127  1  0  0  0
 53 54  1  0  0  0
 54 55  2  0  0  0
 54128  1  0  0  0
 55 57  1  0  0  0
 55129  1  0  0  0
 56 69  2  0  0  0
 57 58  2  0  0  0
 57130  1  0  0  0
 58131  1  0  0  0
 59 60  1  0  0  0
 59 61  1  0  0  0
 59 62  1  0  0  0
 60132  1  0  0  0
 60133  1  0  0  0
 60134  1  0  0  0
 61135  1  0  0  0
 61136  1  0  0  0
 61137  1  0  0  0
 62138  1  0  0  0
 62139  1  0  0  0
 62140  1  0  0  0
 63 65  1  0  0  0
 63141  1  0  0  0
 63142  1  0  0  0
 63143  1  0  0  0
 64144  1  0  0  0
 65145  1  0  0  0
 68 82  1  0  0  0
 71 72  2  0  0  0
 71 74  1  0  0  0
 71146  1  0  0  0
 72 76  1  0  0  0
 72147  1  0  0  0
 73 75  1  0  0  0
 73 76  2  0  0  0
 73148  1  0  0  0
 74 75  2  0  0  0
 74 78  1  0  0  0
 75 81  1  0  0  0
 76 82  1  0  0  0
 77 83  1  0  0  0
 77 84  1  0  0  0
 77 86  2  0  0  0
 78 79  1  0  0  0
 78149  1  0  0  0
 78150  1  0  0  0
 79 80  1  0  0  0
 79151  1  0  0  0
 79152  1  0  0  0
 80 81  1  0  0  0
 80153  1  0  0  0
 80154  1  0  0  0
 81 84  1  0  0  0
 81155  1  0  0  0
 82156  1  0  0  0
 82157  1  0  0  0
 83 85  1  0  0  0
 83158  1  0  0  0
 83159  1  0  0  0
 84160  1  0  0  0
 85161  1  0  0  0
M  ISO  4   1 100  68 101  82 101  85 100
M  END
> <chiral flag>
0

> <version>
0

> <s_m_source_file>
/data/baiqing/PycharmProjects/Reinvent-master-3.2/result/LINK_invent/BTK/process_docking_weight1_custom_sum_contain_oxygen_bond_distance_aromatic_linkinvent_7_9_3/rearranged_h_0133.sdf

> <i_m_source_file_index>
94

> <r_mmod_Potential_Energy-OPLS-2005>
-187.761291503906

> <r_mmod_Stretch_Energy-OPLS-2005>
55.7592544555664

> <r_mmod_Bend_Energy-OPLS-2005>
114.714660644531

> <r_mmod_Torsional_Energy-OPLS-2005>
218.462280273438

> <r_mmod_Improper_Torsional_Energy-OPLS-2005>
4.93961191177368

> <r_mmod_Van_der_Waal_Energy-OPLS-2005>
162.871185302734

> <r_mmod_Electrostatic_Energy-OPLS-2005>
-542.246276855469

> <r_mmod_Solvation_Energy-OPLS-2005>
-227.43017578125

> <b_mmod_Minimization_Converged-OPLS-2005>
0

> <r_mmod_RMS_Derivative-OPLS-2005>
5.92980670928955

$$$$
95
                    3D
 Structure written by MMmdl.
165174  0  0  1  0            999 V2000
  -30.6259  -14.5689   20.5517 C   0  0  0  0  0  0
  -30.4322  -12.3502   19.4536 C   0  0  0  0  0  0
  -29.5106  -12.5319   18.2268 C   0  0  0  0  0  0
  -28.0259  -12.3895   18.6224 C   0  0  0  0  0  0
  -27.6625  -13.2144   19.8861 C   0  0  2  0  0  0
  -28.7012  -12.9961   21.0112 C   0  0  0  0  0  0
  -25.2572  -13.8167   20.5699 C   0  0  0  0  0  0
  -24.1820  -13.0441   20.9175 C   0  0  0  0  0  0
  -24.6389  -11.6914   20.8724 C   0  0  0  0  0  0
  -23.9066  -10.4296   21.0393 C   0  0  0  0  0  0
  -24.3614   -9.4204   21.9173 C   0  0  0  0  0  0
  -23.6296   -8.2241   22.0744 C   0  0  0  0  0  0
  -22.4275   -8.0274   21.3546 C   0  0  0  0  0  0
  -21.9911   -9.0249   20.4641 C   0  0  0  0  0  0
  -22.7238  -10.2128   20.3044 C   0  0  0  0  0  0
  -21.6847   -6.0735   22.5287 C   0  0  0  0  0  0
  -21.4015   -6.5642   23.8218 C   0  0  0  0  0  0
  -21.3666   -5.6788   24.9179 C   0  0  0  0  0  0
  -21.6039   -4.3057   24.7221 C   0  0  0  0  0  0
  -21.8818   -3.8146   23.4349 C   0  0  0  0  0  0
  -21.9189   -4.6967   22.3399 C   0  0  0  0  0  0
  -22.7851  -13.5234   21.1861 C   0  0  0  0  0  0
  -22.1654   -4.2148   21.0981 F   0  0  0  0  0  0
  -21.5634   -3.4543   25.7742 F   0  0  0  0  0  0
  -30.0307  -13.3387   20.4727 N   0  0  0  0  0  0
  -26.3015  -12.9350   20.3389 N   0  0  0  0  0  0
  -25.9323  -11.6505   20.5766 N   0  0  0  0  0  0
  -22.0492  -12.8213   22.0403 N   0  0  0  0  0  0
  -25.4314  -15.1885   20.4131 N   0  0  0  0  0  0
  -31.7306  -14.7957   20.0467 O   0  0  0  0  0  0
  -21.6636   -6.8879   21.4248 O   0  0  0  0  0  0
  -22.3540  -14.5547   20.6715 O   0  0  0  0  0  0
  -24.6214  -31.8634   23.2024 C   0  0  0  0  0  0
  -25.9076  -32.4809   23.8353 C   0  0  1  0  0  0
  -27.2379  -27.3671   20.1230 C   0  0  0  0  0  0
  -25.5920  -33.8605   24.2316 N   0  0  0  0  0  0
  -23.4134  -30.4844   21.5435 C   0  0  2  0  0  0
  -24.8607  -28.9431   20.1062 C   0  0  0  0  0  0
  -22.7454  -29.4651   22.4953 C   0  0  0  0  0  0
  -18.0284  -28.1422   22.8487 C   0  0  0  0  0  0
  -24.1489  -36.7296   23.2635 C   0  0  0  0  0  0
  -25.9453  -30.8147   21.3573 C   0  0  0  0  0  0
  -26.0225  -29.4408   20.7093 C   0  0  0  0  0  0
  -27.2110  -28.6637   20.7086 C   0  0  0  0  0  0
  -26.0587  -26.9105   19.4893 C   0  0  0  0  0  0
  -24.8795  -27.6817   19.4865 C   0  0  0  0  0  0
  -23.6221  -29.8141   20.1577 C   0  0  0  0  0  0
  -25.4115  -36.3101   24.0339 C   0  0  1  0  0  0
  -20.5889  -28.3708   23.1303 C   0  0  2  0  0  0
  -20.6803  -26.9442   22.5412 C   0  0  0  0  0  0
  -19.5764  -26.6422   21.5226 C   0  0  0  0  0  0
  -18.1937  -26.7972   22.1623 C   0  0  0  0  0  0
  -19.1539  -28.8880   23.2900 C   0  0  0  0  0  0
  -18.9457  -30.1489   23.8904 C   0  0  0  0  0  0
  -17.6460  -30.6615   24.0586 C   0  0  0  0  0  0
  -25.9044  -34.9467   23.5123 C   0  0  0  0  0  0
  -16.5354  -29.9126   23.6344 C   0  0  0  0  0  0
  -16.7275  -28.6556   23.0346 C   0  0  0  0  0  0
  -26.4478  -31.6586   25.0691 C   0  0  0  0  0  0
  -25.3758  -31.3690   26.1450 C   0  0  0  0  0  0
  -27.0273  -30.3028   24.6039 C   0  0  0  0  0  0
  -27.6065  -32.4279   25.7465 C   0  0  0  0  0  0
  -27.5582  -37.1800   24.8471 C   0  0  0  0  0  0
  -21.4176  -29.3063   22.3700 N   0  0  0  0  0  0
  -26.4294  -37.3788   23.9417 N   0  0  0  0  0  0
  -24.6791  -31.0697   22.0934 N   0  0  0  0  0  0
  -23.4197  -28.8218   23.3038 O   0  0  0  0  0  0
  -28.3962  -26.5933   20.1903 O   0  0  0  0  0  0
  -26.5590  -34.8924   22.4675 O   0  0  0  0  0  0
  -23.5386  -32.1373   23.7411 O   0  0  0  0  0  0
  -29.7697  -19.0233   19.4343 C   0  0  0  0  0  0
  -30.2181  -17.5419   19.4068 C   0  0  0  0  0  0
  -30.4491  -22.7851   22.3374 C   0  0  0  0  0  0
  -29.7413  -18.1090   21.6956 C   0  0  0  0  0  0
  -29.6882  -23.7486   23.2639 C   0  0  0  0  0  0
  -29.8105  -19.4739   20.9134 C   0  0  2  0  0  0
  -29.5547  -16.9642   20.6589 C   0  0  1  0  0  0
  -29.7696  -22.9116   20.9652 C   0  0  2  0  0  0
  -29.2741  -24.4056   21.0859 C   0  0  2  0  0  0
  -28.7082  -20.5201   21.3480 C   0  0  0  0  0  0
  -28.3451  -25.1348   20.0481 C   0  0  0  0  0  0
  -28.6878  -24.3991   22.4196 N   0  0  0  0  0  0
  -29.8427  -15.5530   21.0746 N   0  0  0  0  0  0
  -28.6869  -21.8996   20.7318 N   0  3  0  0  0  0
  -31.4781  -12.4606   19.1642 H   0  0  0  0  0  0
  -30.3404  -11.3383   19.8507 H   0  0  0  0  0  0
  -29.7622  -11.8067   17.4513 H   0  0  0  0  0  0
  -29.6791  -13.5169   17.7877 H   0  0  0  0  0  0
  -27.8259  -11.3330   18.8019 H   0  0  0  0  0  0
  -27.3861  -12.6863   17.7890 H   0  0  0  0  0  0
  -27.7037  -14.2648   19.5978 H   0  0  0  0  0  0
  -28.6881  -11.9554   21.3369 H   0  0  0  0  0  0
  -28.4467  -13.5785   21.8966 H   0  0  0  0  0  0
  -25.2756   -9.5681   22.4761 H   0  0  0  0  0  0
  -24.0003   -7.4623   22.7460 H   0  0  0  0  0  0
  -21.0843   -8.8764   19.8954 H   0  0  0  0  0  0
  -22.3688  -10.9668   19.6156 H   0  0  0  0  0  0
  -21.2007   -7.6150   23.9724 H   0  0  0  0  0  0
  -21.1494   -6.0521   25.9080 H   0  0  0  0  0  0
  -22.0592   -2.7616   23.2843 H   0  0  0  0  0  0
  -22.4100  -11.9864   22.4783 H   0  0  0  0  0  0
  -21.1127  -13.1257   22.2637 H   0  0  0  0  0  0
  -24.6726  -15.8507   20.5296 H   0  0  0  0  0  0
  -26.2865  -15.6235   20.0932 H   0  0  0  0  0  0
  -26.7173  -32.5507   23.1140 H   0  0  0  0  0  0
  -25.0133  -33.9762   25.0503 H   0  0  0  0  0  0
  -22.7058  -31.3044   21.4041 H   0  0  0  0  0  0
  -23.3751  -35.9625   23.3303 H   0  0  0  0  0  0
  -24.3576  -36.8895   22.2041 H   0  0  0  0  0  0
  -23.7246  -37.6511   23.6640 H   0  0  0  0  0  0
  -26.0580  -31.5722   20.5791 H   0  0  0  0  0  0
  -26.8344  -30.8765   21.9739 H   0  0  0  0  0  0
  -28.1048  -29.0459   21.1816 H   0  0  0  0  0  0
  -26.0268  -25.9542   18.9895 H   0  0  0  0  0  0
  -23.9927  -27.2933   19.0050 H   0  0  0  0  0  0
  -23.7267  -30.5863   19.3929 H   0  0  0  0  0  0
  -22.7448  -29.2324   19.8693 H   0  0  0  0  0  0
  -25.1294  -36.1947   25.0833 H   0  0  0  0  0  0
  -20.9998  -28.3272   24.1416 H   0  0  0  0  0  0
  -20.5763  -26.2299   23.3589 H   0  0  0  0  0  0
  -21.6669  -26.7528   22.1163 H   0  0  0  0  0  0
  -19.6934  -25.6344   21.1233 H   0  0  0  0  0  0
  -19.6721  -27.3261   20.6777 H   0  0  0  0  0  0
  -17.4230  -26.6727   21.4011 H   0  0  0  0  0  0
  -18.0320  -26.0129   22.9023 H   0  0  0  0  0  0
  -19.7928  -30.7327   24.2262 H   0  0  0  0  0  0
  -17.5009  -31.6283   24.5218 H   0  0  0  0  0  0
  -15.5360  -30.3041   23.7679 H   0  0  0  0  0  0
  -15.8662  -28.0903   22.7041 H   0  0  0  0  0  0
  -24.5971  -30.6983   25.7818 H   0  0  0  0  0  0
  -24.8895  -32.2824   26.4867 H   0  0  0  0  0  0
  -25.8129  -30.8914   27.0226 H   0  0  0  0  0  0
  -26.2788  -29.6854   24.1059 H   0  0  0  0  0  0
  -27.4021  -29.7206   25.4464 H   0  0  0  0  0  0
  -27.8642  -30.4360   23.9189 H   0  0  0  0  0  0
  -27.2710  -33.3589   26.2049 H   0  0  0  0  0  0
  -28.3876  -32.6810   25.0291 H   0  0  0  0  0  0
  -28.0727  -31.8381   26.5369 H   0  0  0  0  0  0
  -28.2618  -38.0082   24.7520 H   0  0  0  0  0  0
  -28.1064  -36.2614   24.6308 H   0  0  0  0  0  0
  -27.2282  -37.1456   25.8871 H   0  0  0  0  0  0
  -20.9352  -29.8727   21.6868 H   0  0  0  0  0  0
  -26.0172  -38.2859   24.1442 H   0  0  0  0  0  0
  -28.7459  -19.0863   19.0591 H   0  0  0  0  0  0
  -30.3846  -19.6527   18.7893 H   0  0  0  0  0  0
  -31.3048  -17.4762   19.4847 H   0  0  0  0  0  0
  -29.9102  -17.0314   18.4929 H   0  0  0  0  0  0
  -30.5403  -21.7770   22.7329 H   0  0  0  0  0  0
  -31.4774  -23.1394   22.2490 H   0  0  0  0  0  0
  -28.9340  -18.1027   22.4300 H   0  0  0  0  0  0
  -30.6706  -17.9643   22.2482 H   0  0  0  0  0  0
  -30.3782  -24.4948   23.6646 H   0  0  0  0  0  0
  -29.2215  -23.2447   24.1122 H   0  0  0  0  0  0
  -30.7898  -19.9143   21.1110 H   0  0  0  0  0  0
  -28.4859  -16.9432   20.4403 H   0  0  0  0  0  0
  -30.5102  -22.7999   20.1727 H   0  0  0  0  0  0
  -30.1769  -25.0172   21.1360 H   0  0  0  0  0  0
  -27.7341  -20.0787   21.1324 H   0  0  0  0  0  0
  -28.7058  -20.6290   22.4327 H   0  0  0  0  0  0
  -27.3377  -24.7338   20.1456 H   0  0  0  0  0  0
  -28.6830  -24.8970   19.0387 H   0  0  0  0  0  0
  -28.5176  -25.3534   22.7335 H   0  0  0  0  0  0
  -29.0847  -15.1556   21.6099 H   0  0  0  0  0  0
  -28.5337  -21.8192   19.7404 H   0  0  0  0  0  0
  -27.8715  -22.3467   21.1219 H   0  0  0  0  0  0
  1 25  1  0  0  0
  1 30  2  0  0  0
  1 83  1  0  0  0
  2  3  1  0  0  0
  2 25  1  0  0  0
  2 85  1  0  0  0
  2 86  1  0  0  0
  3  4  1  0  0  0
  3 87  1  0  0  0
  3 88  1  0  0  0
  4  5  1  0  0  0
  4 89  1  0  0  0
  4 90  1  0  0  0
  5  6  1  0  0  0
  5 26  1  0  0  0
  5 91  1  0  0  0
  6 25  1  0  0  0
  6 92  1  0  0  0
  6 93  1  0  0  0
  7  8  2  0  0  0
  7 26  1  0  0  0
  7 29  1  0  0  0
  8  9  1  0  0  0
  8 22  1  0  0  0
  9 10  1  0  0  0
  9 27  2  0  0  0
 10 11  2  0  0  0
 10 15  1  0  0  0
 11 12  1  0  0  0
 11 94  1  0  0  0
 12 13  2  0  0  0
 12 95  1  0  0  0
 13 14  1  0  0  0
 13 31  1  0  0  0
 14 15  2  0  0  0
 14 96  1  0  0  0
 15 97  1  0  0  0
 16 17  2  0  0  0
 16 21  1  0  0  0
 16 31  1  0  0  0
 17 18  1  0  0  0
 17 98  1  0  0  0
 18 19  2  0  0  0
 18 99  1  0  0  0
 19 20  1  0  0  0
 19 24  1  0  0  0
 20 21  2  0  0  0
 20100  1  0  0  0
 21 23  1  0  0  0
 22 28  1  0  0  0
 22 32  2  0  0  0
 26 27  1  0  0  0
 28101  1  0  0  0
 28102  1  0  0  0
 29103  1  0  0  0
 29104  1  0  0  0
 33 34  1  0  0  0
 33 66  1  0  0  0
 33 70  2  0  0  0
 34 36  1  0  0  0
 34 59  1  0  0  0
 34105  1  0  0  0
 35 44  2  0  0  0
 35 45  1  0  0  0
 35 68  1  0  0  0
 36 56  1  0  0  0
 36106  1  0  0  0
 37 39  1  0  0  0
 37 47  1  0  0  0
 37 66  1  0  0  0
 37107  1  0  0  0
 38 43  2  0  0  0
 38 46  1  0  0  0
 38 47  1  0  0  0
 39 64  1  0  0  0
 39 67  2  0  0  0
 40 52  1  0  0  0
 40 53  2  0  0  0
 40 58  1  0  0  0
 41108  1  0  0  0
 41109  1  0  0  0
 41110  1  0  0  0
 41 48  1  0  0  0
 42 43  1  0  0  0
 42 66  1  0  0  0
 42111  1  0  0  0
 42112  1  0  0  0
 43 44  1  0  0  0
 44113  1  0  0  0
 45 46  2  0  0  0
 45114  1  0  0  0
 46115  1  0  0  0
 47116  1  0  0  0
 47117  1  0  0  0
 48 56  1  0  0  0
 48 65  1  0  0  0
 48118  1  0  0  0
 49 50  1  0  0  0
 49 53  1  0  0  0
 49 64  1  0  0  0
 49119  1  0  0  0
 50 51  1  0  0  0
 50120  1  0  0  0
 50121  1  0  0  0
 51 52  1  0  0  0
 51122  1  0  0  0
 51123  1  0  0  0
 52124  1  0  0  0
 52125  1  0  0  0
 53 54  1  0  0  0
 54 55  2  0  0  0
 54126  1  0  0  0
 55 57  1  0  0  0
 55127  1  0  0  0
 56 69  2  0  0  0
 57 58  2  0  0  0
 57128  1  0  0  0
 58129  1  0  0  0
 59 60  1  0  0  0
 59 61  1  0  0  0
 59 62  1  0  0  0
 60130  1  0  0  0
 60131  1  0  0  0
 60132  1  0  0  0
 61133  1  0  0  0
 61134  1  0  0  0
 61135  1  0  0  0
 62136  1  0  0  0
 62137  1  0  0  0
 62138  1  0  0  0
 63 65  1  0  0  0
 63139  1  0  0  0
 63140  1  0  0  0
 63141  1  0  0  0
 64142  1  0  0  0
 65143  1  0  0  0
 68 81  1  0  0  0
 71 72  1  0  0  0
 71 76  1  0  0  0
 71144  1  0  0  0
 71145  1  0  0  0
 72 77  1  0  0  0
 72146  1  0  0  0
 72147  1  0  0  0
 73 75  1  0  0  0
 73 78  1  0  0  0
 73148  1  0  0  0
 73149  1  0  0  0
 74 76  1  0  0  0
 74 77  1  0  0  0
 74150  1  0  0  0
 74151  1  0  0  0
 75 82  1  0  0  0
 75152  1  0  0  0
 75153  1  0  0  0
 76 80  1  0  0  0
 76154  1  0  0  0
 77 83  1  0  0  0
 77155  1  0  0  0
 78 79  1  0  0  0
 78 84  1  0  0  0
 78156  1  0  0  0
 79 81  1  0  0  0
 79 82  1  0  0  0
 79157  1  0  0  0
 80 84  1  0  0  0
 80158  1  0  0  0
 80159  1  0  0  0
 81160  1  0  0  0
 81161  1  0  0  0
 82162  1  0  0  0
 83163  1  0  0  0
 84164  1  0  0  0
 84165  1  0  0  0
M  CHG  1  84   1
M  ISO  4   1 100  68 101  81 101  83 100
M  END
> <chiral flag>
0

> <version>
0

> <s_m_source_file>
/data/baiqing/PycharmProjects/Reinvent-master-3.2/result/LINK_invent/BTK/process_docking_weight1_custom_sum_contain_oxygen_bond_distance_aromatic_linkinvent_7_9_3/rearranged_h_0133.sdf

> <i_m_source_file_index>
95

> <r_mmod_Potential_Energy-OPLS-2005>
27.8801307678223

> <r_mmod_Stretch_Energy-OPLS-2005>
60.281795501709

> <r_mmod_Bend_Energy-OPLS-2005>
218.753158569336

> <r_mmod_Torsional_Energy-OPLS-2005>
344.773681640625

> <r_mmod_Improper_Torsional_Energy-OPLS-2005>
5.48964500427246

> <r_mmod_Van_der_Waal_Energy-OPLS-2005>
121.25708770752

> <r_mmod_Electrostatic_Energy-OPLS-2005>
-292.109161376953

> <r_mmod_Solvation_Energy-OPLS-2005>
-459.397308349609

> <b_mmod_Minimization_Converged-OPLS-2005>
0

> <r_mmod_RMS_Derivative-OPLS-2005>
2.77377319335938

$$$$
96
                    3D
 Structure written by MMmdl.
163172  0  0  1  0            999 V2000
  -30.6473  -14.5988   20.5216 C   0  0  0  0  0  0
  -30.4337  -12.3764   19.4360 C   0  0  0  0  0  0
  -29.5003  -12.5001   18.2126 C   0  0  0  0  0  0
  -28.0240  -12.3423   18.6298 C   0  0  0  0  0  0
  -27.6520  -13.2133   19.8594 C   0  0  2  0  0  0
  -28.6980  -13.0598   20.9853 C   0  0  0  0  0  0
  -25.2558  -13.8164   20.5678 C   0  0  0  0  0  0
  -24.1825  -13.0435   20.9196 C   0  0  0  0  0  0
  -24.6386  -11.6906   20.8741 C   0  0  0  0  0  0
  -23.9054  -10.4293   21.0412 C   0  0  0  0  0  0
  -24.3611   -9.4207   21.9186 C   0  0  0  0  0  0
  -23.6292   -8.2240   22.0751 C   0  0  0  0  0  0
  -22.4274   -8.0277   21.3545 C   0  0  0  0  0  0
  -21.9907   -9.0249   20.4645 C   0  0  0  0  0  0
  -22.7229  -10.2134   20.3057 C   0  0  0  0  0  0
  -21.6849   -6.0735   22.5281 C   0  0  0  0  0  0
  -21.4012   -6.5641   23.8215 C   0  0  0  0  0  0
  -21.3662   -5.6792   24.9177 C   0  0  0  0  0  0
  -21.6048   -4.3054   24.7225 C   0  0  0  0  0  0
  -21.8822   -3.8146   23.4345 C   0  0  0  0  0  0
  -21.9190   -4.6963   22.3402 C   0  0  0  0  0  0
  -22.7850  -13.5233   21.1865 C   0  0  0  0  0  0
  -22.1660   -4.2149   21.0979 F   0  0  0  0  0  0
  -21.5630   -3.4539   25.7738 F   0  0  0  0  0  0
  -30.0126  -13.3934   20.4157 N   0  0  0  0  0  0
  -26.2981  -12.9339   20.3304 N   0  0  0  0  0  0
  -25.9312  -11.6500   20.5751 N   0  0  0  0  0  0
  -22.0486  -12.8225   22.0415 N   0  0  0  0  0  0
  -25.4271  -15.1883   20.4086 N   0  0  0  0  0  0
  -31.8146  -14.7588   20.1567 O   0  0  0  0  0  0
  -21.6637   -6.8876   21.4242 O   0  0  0  0  0  0
  -22.3542  -14.5543   20.6712 O   0  0  0  0  0  0
  -24.6238  -31.8621   23.2034 C   0  0  0  0  0  0
  -25.9097  -32.4788   23.8356 C   0  0  1  0  0  0
  -27.2271  -27.3472   20.1090 C   0  0  0  0  0  0
  -25.5925  -33.8588   24.2293 N   0  0  0  0  0  0
  -23.4153  -30.4856   21.5467 C   0  0  2  0  0  0
  -24.8599  -28.9415   20.1145 C   0  0  0  0  0  0
  -22.7461  -29.4633   22.4955 C   0  0  0  0  0  0
  -18.0283  -28.1383   22.8486 C   0  0  0  0  0  0
  -24.1491  -36.7297   23.2635 C   0  0  0  0  0  0
  -25.9536  -30.8024   21.3673 C   0  0  0  0  0  0
  -26.0285  -29.4318   20.7098 C   0  0  0  0  0  0
  -27.2167  -28.6483   20.6919 C   0  0  0  0  0  0
  -26.0301  -26.8935   19.5109 C   0  0  0  0  0  0
  -24.8605  -27.6761   19.5076 C   0  0  0  0  0  0
  -23.6276  -29.8196   20.1622 C   0  0  0  0  0  0
  -25.4113  -36.3091   24.0332 C   0  0  1  0  0  0
  -20.5881  -28.3681   23.1293 C   0  0  2  0  0  0
  -20.6772  -26.9409   22.5409 C   0  0  0  0  0  0
  -19.5750  -26.6386   21.5208 C   0  0  0  0  0  0
  -18.1931  -26.7926   22.1622 C   0  0  0  0  0  0
  -19.1535  -28.8850   23.2884 C   0  0  0  0  0  0
  -18.9458  -30.1453   23.8899 C   0  0  0  0  0  0
  -17.6459  -30.6585   24.0562 C   0  0  0  0  0  0
  -25.9050  -34.9457   23.5113 C   0  0  0  0  0  0
  -16.5351  -29.9084   23.6327 C   0  0  0  0  0  0
  -16.7270  -28.6500   23.0348 C   0  0  0  0  0  0
  -26.4491  -31.6584   25.0713 C   0  0  0  0  0  0
  -25.3737  -31.3710   26.1451 C   0  0  0  0  0  0
  -27.0321  -30.3014   24.6132 C   0  0  0  0  0  0
  -27.6065  -32.4303   25.7477 C   0  0  0  0  0  0
  -27.5583  -37.1803   24.8463 C   0  0  0  0  0  0
  -21.4179  -29.3038   22.3694 N   0  0  0  0  0  0
  -26.4294  -37.3781   23.9409 N   0  0  0  0  0  0
  -24.6833  -31.0659   22.0968 N   0  0  0  0  0  0
  -23.4199  -28.8178   23.3026 O   0  0  0  0  0  0
  -28.3715  -26.5441   20.1246 O   0  0  0  0  0  0
  -26.5614  -34.8921   22.4677 O   0  0  0  0  0  0
  -23.5409  -32.1409   23.7379 O   0  0  0  0  0  0
  -28.0384  -22.7237   19.2368 C   0  0  0  0  0  0
  -29.2638  -22.9456   21.3964 C   0  0  0  0  0  0
  -28.0824  -19.6935   19.4086 C   0  0  0  0  0  0
  -28.2313  -24.2550   18.9816 C   0  0  0  0  0  0
  -29.3768  -24.4904   21.1475 C   0  0  0  0  0  0
  -28.3287  -18.2321   19.8268 C   0  0  0  0  0  0
  -29.1386  -22.0535   20.1201 C   0  0  1  0  0  0
  -28.8691  -20.5066   20.4510 C   0  0  2  0  0  0
  -28.2274  -25.0872   20.2913 C   0  0  1  0  0  0
  -29.8052  -18.2267   20.2435 C   0  0  2  0  0  0
  -30.2632  -17.0638   21.2190 C   0  0  0  0  0  0
  -29.8719  -15.6550   20.8944 N   0  0  0  0  0  0
  -30.0600  -19.6319   20.7304 N   0  3  0  0  0  0
  -31.4742  -12.5013   19.1316 H   0  0  0  0  0  0
  -30.3664  -11.3797   19.8741 H   0  0  0  0  0  0
  -29.7592  -11.7490   17.4650 H   0  0  0  0  0  0
  -29.6441  -13.4701   17.7340 H   0  0  0  0  0  0
  -27.8595  -11.2893   18.8619 H   0  0  0  0  0  0
  -27.3666  -12.5729   17.7904 H   0  0  0  0  0  0
  -27.6732  -14.2495   19.5211 H   0  0  0  0  0  0
  -28.7046  -12.0374   21.3659 H   0  0  0  0  0  0
  -28.4497  -13.6916   21.8392 H   0  0  0  0  0  0
  -25.2757   -9.5683   22.4758 H   0  0  0  0  0  0
  -24.0004   -7.4629   22.7466 H   0  0  0  0  0  0
  -21.0839   -8.8767   19.8950 H   0  0  0  0  0  0
  -22.3688  -10.9672   19.6165 H   0  0  0  0  0  0
  -21.2002   -7.6150   23.9720 H   0  0  0  0  0  0
  -21.1483   -6.0520   25.9081 H   0  0  0  0  0  0
  -22.0596   -2.7608   23.2842 H   0  0  0  0  0  0
  -22.4098  -11.9887   22.4810 H   0  0  0  0  0  0
  -21.1104  -13.1252   22.2617 H   0  0  0  0  0  0
  -24.6557  -15.8379   20.5146 H   0  0  0  0  0  0
  -26.2663  -15.6257   20.0520 H   0  0  0  0  0  0
  -26.7165  -32.5463   23.1105 H   0  0  0  0  0  0
  -25.0085  -33.9734   25.0446 H   0  0  0  0  0  0
  -22.7072  -31.3045   21.4049 H   0  0  0  0  0  0
  -23.3753  -35.9629   23.3295 H   0  0  0  0  0  0
  -24.3584  -36.8918   22.2052 H   0  0  0  0  0  0
  -23.7245  -37.6501   23.6651 H   0  0  0  0  0  0
  -26.0792  -31.5666   20.5993 H   0  0  0  0  0  0
  -26.8361  -30.8508   21.9934 H   0  0  0  0  0  0
  -28.1185  -29.0258   21.1535 H   0  0  0  0  0  0
  -25.9727  -25.9234   19.0457 H   0  0  0  0  0  0
  -23.9624  -27.2911   19.0443 H   0  0  0  0  0  0
  -23.7466  -30.5953   19.4048 H   0  0  0  0  0  0
  -22.7474  -29.2487   19.8608 H   0  0  0  0  0  0
  -25.1293  -36.1945   25.0825 H   0  0  0  0  0  0
  -20.9972  -28.3248   24.1414 H   0  0  0  0  0  0
  -20.5674  -26.2291   23.3605 H   0  0  0  0  0  0
  -21.6644  -26.7442   22.1207 H   0  0  0  0  0  0
  -19.6915  -25.6296   21.1237 H   0  0  0  0  0  0
  -19.6692  -27.3195   20.6737 H   0  0  0  0  0  0
  -17.4205  -26.6668   21.4023 H   0  0  0  0  0  0
  -18.0336  -26.0068   22.9022 H   0  0  0  0  0  0
  -19.7934  -30.7263   24.2276 H   0  0  0  0  0  0
  -17.5014  -31.6266   24.5159 H   0  0  0  0  0  0
  -15.5351  -30.2986   23.7647 H   0  0  0  0  0  0
  -15.8671  -28.0818   22.7062 H   0  0  0  0  0  0
  -24.5915  -30.7052   25.7783 H   0  0  0  0  0  0
  -24.8920  -32.2872   26.4879 H   0  0  0  0  0  0
  -25.8079  -30.8893   27.0221 H   0  0  0  0  0  0
  -26.2879  -29.6776   24.1167 H   0  0  0  0  0  0
  -27.4049  -29.7251   25.4609 H   0  0  0  0  0  0
  -27.8733  -30.4305   23.9319 H   0  0  0  0  0  0
  -27.2692  -33.3597   26.2071 H   0  0  0  0  0  0
  -28.3868  -32.6871   25.0301 H   0  0  0  0  0  0
  -28.0740  -31.8416   26.5380 H   0  0  0  0  0  0
  -28.2600  -38.0102   24.7520 H   0  0  0  0  0  0
  -28.1084  -36.2636   24.6278 H   0  0  0  0  0  0
  -27.2303  -37.1440   25.8866 H   0  0  0  0  0  0
  -20.9357  -29.8768   21.6913 H   0  0  0  0  0  0
  -26.0179  -38.2858   24.1410 H   0  0  0  0  0  0
  -27.9931  -22.2223   18.2699 H   0  0  0  0  0  0
  -27.0625  -22.5670   19.6985 H   0  0  0  0  0  0
  -28.3933  -22.7740   22.0310 H   0  0  0  0  0  0
  -30.1237  -22.6177   21.9815 H   0  0  0  0  0  0
  -27.0222  -19.9486   19.3915 H   0  0  0  0  0  0
  -28.4847  -19.8661   18.4090 H   0  0  0  0  0  0
  -27.4553  -24.5976   18.3003 H   0  0  0  0  0  0
  -29.1714  -24.4178   18.4528 H   0  0  0  0  0  0
  -30.3325  -24.7069   20.6678 H   0  0  0  0  0  0
  -29.4056  -25.0035   22.1092 H   0  0  0  0  0  0
  -28.1182  -17.5229   19.0255 H   0  0  0  0  0  0
  -27.6947  -17.9747   20.6766 H   0  0  0  0  0  0
  -30.0719  -22.1224   19.5594 H   0  0  0  0  0  0
  -28.2619  -20.4740   21.3574 H   0  0  0  0  0  0
  -27.2958  -24.8931   20.8263 H   0  0  0  0  0  0
  -30.3890  -18.1256   19.3268 H   0  0  0  0  0  0
  -29.8546  -17.2663   22.2095 H   0  0  0  0  0  0
  -31.3469  -17.1108   21.3392 H   0  0  0  0  0  0
  -28.9130  -15.4154   21.0968 H   0  0  0  0  0  0
  -30.2534  -19.6370   21.7191 H   0  0  0  0  0  0
  -30.8741  -19.9900   20.2569 H   0  0  0  0  0  0
  1 25  1  0  0  0
  1 30  2  0  0  0
  1 82  1  0  0  0
  2  3  1  0  0  0
  2 25  1  0  0  0
  2 84  1  0  0  0
  2 85  1  0  0  0
  3  4  1  0  0  0
  3 86  1  0  0  0
  3 87  1  0  0  0
  4  5  1  0  0  0
  4 88  1  0  0  0
  4 89  1  0  0  0
  5  6  1  0  0  0
  5 26  1  0  0  0
  5 90  1  0  0  0
  6 25  1  0  0  0
  6 91  1  0  0  0
  6 92  1  0  0  0
  7  8  2  0  0  0
  7 26  1  0  0  0
  7 29  1  0  0  0
  8  9  1  0  0  0
  8 22  1  0  0  0
  9 10  1  0  0  0
  9 27  2  0  0  0
 10 11  2  0  0  0
 10 15  1  0  0  0
 11 12  1  0  0  0
 11 93  1  0  0  0
 12 13  2  0  0  0
 12 94  1  0  0  0
 13 14  1  0  0  0
 13 31  1  0  0  0
 14 15  2  0  0  0
 14 95  1  0  0  0
 15 96  1  0  0  0
 16 17  2  0  0  0
 16 21  1  0  0  0
 16 31  1  0  0  0
 17 18  1  0  0  0
 17 97  1  0  0  0
 18 19  2  0  0  0
 18 98  1  0  0  0
 19 20  1  0  0  0
 19 24  1  0  0  0
 20 21  2  0  0  0
 20 99  1  0  0  0
 21 23  1  0  0  0
 22 28  1  0  0  0
 22 32  2  0  0  0
 26 27  1  0  0  0
 28100  1  0  0  0
 28101  1  0  0  0
 29102  1  0  0  0
 29103  1  0  0  0
 33 34  1  0  0  0
 33 66  1  0  0  0
 33 70  2  0  0  0
 34 36  1  0  0  0
 34 59  1  0  0  0
 34104  1  0  0  0
 35 44  2  0  0  0
 35 45  1  0  0  0
 35 68  1  0  0  0
 36 56  1  0  0  0
 36105  1  0  0  0
 37 39  1  0  0  0
 37 47  1  0  0  0
 37 66  1  0  0  0
 37106  1  0  0  0
 38 43  2  0  0  0
 38 46  1  0  0  0
 38 47  1  0  0  0
 39 64  1  0  0  0
 39 67  2  0  0  0
 40 52  1  0  0  0
 40 53  2  0  0  0
 40 58  1  0  0  0
 41107  1  0  0  0
 41108  1  0  0  0
 41109  1  0  0  0
 41 48  1  0  0  0
 42 43  1  0  0  0
 42 66  1  0  0  0
 42110  1  0  0  0
 42111  1  0  0  0
 43 44  1  0  0  0
 44112  1  0  0  0
 45 46  2  0  0  0
 45113  1  0  0  0
 46114  1  0  0  0
 47115  1  0  0  0
 47116  1  0  0  0
 48 56  1  0  0  0
 48 65  1  0  0  0
 48117  1  0  0  0
 49 50  1  0  0  0
 49 53  1  0  0  0
 49 64  1  0  0  0
 49118  1  0  0  0
 50 51  1  0  0  0
 50119  1  0  0  0
 50120  1  0  0  0
 51 52  1  0  0  0
 51121  1  0  0  0
 51122  1  0  0  0
 52123  1  0  0  0
 52124  1  0  0  0
 53 54  1  0  0  0
 54 55  2  0  0  0
 54125  1  0  0  0
 55 57  1  0  0  0
 55126  1  0  0  0
 56 69  2  0  0  0
 57 58  2  0  0  0
 57127  1  0  0  0
 58128  1  0  0  0
 59 60  1  0  0  0
 59 61  1  0  0  0
 59 62  1  0  0  0
 60129  1  0  0  0
 60130  1  0  0  0
 60131  1  0  0  0
 61132  1  0  0  0
 61133  1  0  0  0
 61134  1  0  0  0
 62135  1  0  0  0
 62136  1  0  0  0
 62137  1  0  0  0
 63 65  1  0  0  0
 63138  1  0  0  0
 63139  1  0  0  0
 63140  1  0  0  0
 64141  1  0  0  0
 65142  1  0  0  0
 68 79  1  0  0  0
 71 74  1  0  0  0
 71143  1  0  0  0
 71144  1  0  0  0
 71 77  1  0  0  0
 72 75  1  0  0  0
 72 77  1  0  0  0
 72145  1  0  0  0
 72146  1  0  0  0
 73 76  1  0  0  0
 73147  1  0  0  0
 73148  1  0  0  0
 73 78  1  0  0  0
 74 79  1  0  0  0
 74149  1  0  0  0
 74150  1  0  0  0
 75 79  1  0  0  0
 75151  1  0  0  0
 75152  1  0  0  0
 76 80  1  0  0  0
 76153  1  0  0  0
 76154  1  0  0  0
 77 78  1  0  0  0
 77155  1  0  0  0
 78 83  1  0  0  0
 78156  1  0  0  0
 79157  1  0  0  0
 80 81  1  0  0  0
 80 83  1  0  0  0
 80158  1  0  0  0
 81 82  1  0  0  0
 81159  1  0  0  0
 81160  1  0  0  0
 82161  1  0  0  0
 83162  1  0  0  0
 83163  1  0  0  0
M  CHG  1  83   1
M  ISO  4   1 100  68 101  79 101  82 100
M  END
> <chiral flag>
0

> <version>
0

> <s_m_source_file>
/data/baiqing/PycharmProjects/Reinvent-master-3.2/result/LINK_invent/BTK/process_docking_weight1_custom_sum_contain_oxygen_bond_distance_aromatic_linkinvent_7_9_3/rearranged_h_0133.sdf

> <i_m_source_file_index>
96

> <r_mmod_Potential_Energy-OPLS-2005>
-93.0532379150391

> <r_mmod_Stretch_Energy-OPLS-2005>
65.8309936523438

> <r_mmod_Bend_Energy-OPLS-2005>
155.942504882812

> <r_mmod_Torsional_Energy-OPLS-2005>
299.803375244141

> <r_mmod_Improper_Torsional_Energy-OPLS-2005>
3.73696422576904

> <r_mmod_Van_der_Waal_Energy-OPLS-2005>
122.023307800293

> <r_mmod_Electrostatic_Energy-OPLS-2005>
-305.509735107422

> <r_mmod_Solvation_Energy-OPLS-2005>
-470.944458007812

> <b_mmod_Minimization_Converged-OPLS-2005>
0

> <r_mmod_RMS_Derivative-OPLS-2005>
0.698858737945557

$$$$
97
                    3D
 Structure written by MMmdl.
166175  0  0  1  0            999 V2000
  -30.6769  -14.5577   20.5039 C   0  0  0  0  0  0
  -30.4089  -12.3422   19.4439 C   0  0  0  0  0  0
  -29.4923  -12.4973   18.2131 C   0  0  0  0  0  0
  -28.0144  -12.3531   18.6264 C   0  0  0  0  0  0
  -27.6447  -13.2237   19.8586 C   0  0  2  0  0  0
  -28.6869  -13.0796   20.9874 C   0  0  0  0  0  0
  -25.2499  -13.8193   20.5676 C   0  0  0  0  0  0
  -24.1780  -13.0438   20.9167 C   0  0  0  0  0  0
  -24.6367  -11.6910   20.8722 C   0  0  0  0  0  0
  -23.9064  -10.4272   21.0396 C   0  0  0  0  0  0
  -24.3607   -9.4201   21.9189 C   0  0  0  0  0  0
  -23.6285   -8.2232   22.0754 C   0  0  0  0  0  0
  -22.4277   -8.0259   21.3534 C   0  0  0  0  0  0
  -21.9915   -9.0228   20.4631 C   0  0  0  0  0  0
  -22.7231  -10.2111   20.3048 C   0  0  0  0  0  0
  -21.6853   -6.0744   22.5284 C   0  0  0  0  0  0
  -21.3998   -6.5637   23.8212 C   0  0  0  0  0  0
  -21.3640   -5.6799   24.9177 C   0  0  0  0  0  0
  -21.6041   -4.3065   24.7228 C   0  0  0  0  0  0
  -21.8810   -3.8156   23.4353 C   0  0  0  0  0  0
  -21.9171   -4.6977   22.3415 C   0  0  0  0  0  0
  -22.7798  -13.5209   21.1866 C   0  0  0  0  0  0
  -22.1649   -4.2168   21.0981 F   0  0  0  0  0  0
  -21.5646   -3.4547   25.7751 F   0  0  0  0  0  0
  -30.0063  -13.3741   20.4171 N   0  0  0  0  0  0
  -26.2937  -12.9400   20.3320 N   0  0  0  0  0  0
  -25.9298  -11.6537   20.5761 N   0  0  0  0  0  0
  -22.0443  -12.8169   22.0422 N   0  0  0  0  0  0
  -25.4245  -15.1924   20.4137 N   0  0  0  0  0  0
  -31.8587  -14.6516   20.1533 O   0  0  0  0  0  0
  -21.6631   -6.8869   21.4243 O   0  0  0  0  0  0
  -22.3464  -14.5522   20.6743 O   0  0  0  0  0  0
  -24.6214  -31.8607   23.2055 C   0  0  0  0  0  0
  -25.9090  -32.4764   23.8362 C   0  0  1  0  0  0
  -27.2223  -27.3780   20.1110 C   0  0  0  0  0  0
  -25.5927  -33.8560   24.2301 N   0  0  0  0  0  0
  -23.4097  -30.4891   21.5434 C   0  0  2  0  0  0
  -24.8589  -28.9467   20.1118 C   0  0  0  0  0  0
  -22.7427  -29.4656   22.4922 C   0  0  0  0  0  0
  -18.0278  -28.1378   22.8462 C   0  0  0  0  0  0
  -24.1489  -36.7266   23.2643 C   0  0  0  0  0  0
  -25.9449  -30.8128   21.3650 C   0  0  0  0  0  0
  -26.0215  -29.4410   20.7186 C   0  0  0  0  0  0
  -27.2104  -28.6633   20.7153 C   0  0  0  0  0  0
  -26.0453  -26.9152   19.4930 C   0  0  0  0  0  0
  -24.8675  -27.6852   19.4947 C   0  0  0  0  0  0
  -23.6231  -29.8198   20.1575 C   0  0  0  0  0  0
  -25.4101  -36.3052   24.0336 C   0  0  1  0  0  0
  -20.5883  -28.3664   23.1285 C   0  0  2  0  0  0
  -20.6771  -26.9388   22.5401 C   0  0  0  0  0  0
  -19.5757  -26.6368   21.5183 C   0  0  0  0  0  0
  -18.1908  -26.7932   22.1550 C   0  0  0  0  0  0
  -19.1533  -28.8819   23.2889 C   0  0  0  0  0  0
  -18.9466  -30.1429   23.8899 C   0  0  0  0  0  0
  -17.6468  -30.6578   24.0569 C   0  0  0  0  0  0
  -25.9042  -34.9424   23.5114 C   0  0  0  0  0  0
  -16.5357  -29.9079   23.6334 C   0  0  0  0  0  0
  -16.7267  -28.6507   23.0321 C   0  0  0  0  0  0
  -26.4506  -31.6552   25.0692 C   0  0  0  0  0  0
  -25.3757  -31.3660   26.1421 C   0  0  0  0  0  0
  -27.0364  -30.2990   24.6098 C   0  0  0  0  0  0
  -27.6060  -32.4270   25.7466 C   0  0  0  0  0  0
  -27.5575  -37.1780   24.8454 C   0  0  0  0  0  0
  -21.4142  -29.3053   22.3680 N   0  0  0  0  0  0
  -26.4260  -37.3750   23.9445 N   0  0  0  0  0  0
  -24.6772  -31.0711   22.0958 N   0  0  0  0  0  0
  -23.4171  -28.8184   23.2979 O   0  0  0  0  0  0
  -28.3370  -26.5561   20.0750 O   0  0  0  0  0  0
  -26.5602  -34.8904   22.4683 O   0  0  0  0  0  0
  -23.5392  -32.1375   23.7430 O   0  0  0  0  0  0
  -29.0849  -23.2416   21.8670 C   0  0  0  0  0  0
  -27.7749  -23.4701   19.8503 C   0  0  0  0  0  0
  -28.9556  -21.8313   21.8080 C   0  0  0  0  0  0
  -27.6376  -22.0550   19.7961 C   0  0  0  0  0  0
  -28.4693  -24.0949   20.9160 C   0  0  0  0  0  0
  -28.1868  -21.2098   20.7994 C   0  0  0  0  0  0
  -28.9315  -17.8033   19.5735 C   0  0  0  0  0  0
  -28.8351  -17.5142   22.0140 C   0  0  0  0  0  0
  -30.0005  -16.6737   19.5213 C   0  0  0  0  0  0
  -29.9402  -16.4225   21.9118 C   0  0  0  0  0  0
  -28.9066  -18.6027   20.8994 C   0  0  0  0  0  0
  -25.5567  -20.5355   22.0555 C   0  0  0  0  0  0
  -28.4656  -25.6290   21.1820 C   0  0  0  0  0  0
  -26.7559  -19.5678   22.0953 C   0  0  0  0  0  0
  -27.7621  -19.7128   20.9145 C   0  0  1  0  0  0
  -29.9159  -15.6924   20.6292 N   0  0  0  0  0  0
  -31.4582  -12.4212   19.1514 H   0  0  0  0  0  0
  -30.2981  -11.3497   19.8796 H   0  0  0  0  0  0
  -29.7436  -11.7500   17.4584 H   0  0  0  0  0  0
  -29.6551  -13.4698   17.7461 H   0  0  0  0  0  0
  -27.8393  -11.3017   18.8539 H   0  0  0  0  0  0
  -27.3623  -12.5909   17.7840 H   0  0  0  0  0  0
  -27.6602  -14.2596   19.5185 H   0  0  0  0  0  0
  -28.6695  -12.0712   21.4015 H   0  0  0  0  0  0
  -28.4517  -13.7531   21.8129 H   0  0  0  0  0  0
  -25.2751   -9.5702   22.4770 H   0  0  0  0  0  0
  -23.9995   -7.4631   22.7475 H   0  0  0  0  0  0
  -21.0864   -8.8717   19.8932 H   0  0  0  0  0  0
  -22.3688  -10.9643   19.6143 H   0  0  0  0  0  0
  -21.1980   -7.6144   23.9731 H   0  0  0  0  0  0
  -21.1480   -6.0528   25.9073 H   0  0  0  0  0  0
  -22.0610   -2.7627   23.2858 H   0  0  0  0  0  0
  -22.4028  -11.9770   22.4738 H   0  0  0  0  0  0
  -21.1058  -13.1164   22.2650 H   0  0  0  0  0  0
  -24.6683  -15.8583   20.5280 H   0  0  0  0  0  0
  -26.2988  -15.6238   20.1385 H   0  0  0  0  0  0
  -26.7162  -32.5445   23.1109 H   0  0  0  0  0  0
  -25.0179  -33.9738   25.0507 H   0  0  0  0  0  0
  -22.7017  -31.3064   21.3964 H   0  0  0  0  0  0
  -23.3752  -35.9590   23.3240 H   0  0  0  0  0  0
  -24.3622  -36.8929   22.2075 H   0  0  0  0  0  0
  -23.7215  -37.6427   23.6716 H   0  0  0  0  0  0
  -26.0656  -31.5733   20.5915 H   0  0  0  0  0  0
  -26.8312  -30.8662   21.9855 H   0  0  0  0  0  0
  -28.1098  -29.0412   21.1784 H   0  0  0  0  0  0
  -26.0351  -25.9489   19.0138 H   0  0  0  0  0  0
  -23.9768  -27.3015   19.0192 H   0  0  0  0  0  0
  -23.7360  -30.5920   19.3959 H   0  0  0  0  0  0
  -22.7451  -29.2423   19.8594 H   0  0  0  0  0  0
  -25.1278  -36.1885   25.0814 H   0  0  0  0  0  0
  -20.9985  -28.3260   24.1399 H   0  0  0  0  0  0
  -20.5593  -26.2296   23.3611 H   0  0  0  0  0  0
  -21.6655  -26.7379   22.1235 H   0  0  0  0  0  0
  -19.6923  -25.6278   21.1203 H   0  0  0  0  0  0
  -19.6724  -27.3199   20.6746 H   0  0  0  0  0  0
  -17.4200  -26.6712   21.3929 H   0  0  0  0  0  0
  -18.0265  -26.0050   22.8911 H   0  0  0  0  0  0
  -19.7955  -30.7260   24.2237 H   0  0  0  0  0  0
  -17.5021  -31.6254   24.5188 H   0  0  0  0  0  0
  -15.5364  -30.2985   23.7701 H   0  0  0  0  0  0
  -15.8652  -28.0862   22.7017 H   0  0  0  0  0  0
  -24.6133  -30.6739   25.7828 H   0  0  0  0  0  0
  -24.8702  -32.2767   26.4646 H   0  0  0  0  0  0
  -25.8105  -30.9095   27.0317 H   0  0  0  0  0  0
  -26.2928  -29.6693   24.1184 H   0  0  0  0  0  0
  -27.4202  -29.7277   25.4568 H   0  0  0  0  0  0
  -27.8726  -30.4333   23.9219 H   0  0  0  0  0  0
  -27.2716  -33.3628   26.1963 H   0  0  0  0  0  0
  -28.3936  -32.6711   25.0318 H   0  0  0  0  0  0
  -28.0655  -31.8422   26.5438 H   0  0  0  0  0  0
  -28.2546  -38.0130   24.7550 H   0  0  0  0  0  0
  -28.1127  -36.2657   24.6200 H   0  0  0  0  0  0
  -27.2309  -37.1315   25.8859 H   0  0  0  0  0  0
  -20.9300  -29.8820   21.6940 H   0  0  0  0  0  0
  -26.0110  -38.2799   24.1484 H   0  0  0  0  0  0
  -29.6180  -23.6713   22.7050 H   0  0  0  0  0  0
  -27.2848  -24.0738   19.0992 H   0  0  0  0  0  0
  -29.3849  -21.2268   22.5959 H   0  0  0  0  0  0
  -27.0290  -21.6212   19.0136 H   0  0  0  0  0  0
  -27.9485  -17.3593   19.4061 H   0  0  0  0  0  0
  -29.0953  -18.4903   18.7428 H   0  0  0  0  0  0
  -28.8940  -17.9902   22.9933 H   0  0  0  0  0  0
  -27.8737  -17.0013   21.9762 H   0  0  0  0  0  0
  -30.9978  -17.1182   19.5087 H   0  0  0  0  0  0
  -29.8936  -16.1448   18.5721 H   0  0  0  0  0  0
  -29.8272  -15.7155   22.7359 H   0  0  0  0  0  0
  -30.9215  -16.8843   22.0454 H   0  0  0  0  0  0
  -29.8651  -19.1127   21.0112 H   0  0  0  0  0  0
  -24.8726  -20.3409   22.8818 H   0  0  0  0  0  0
  -24.9931  -20.4268   21.1292 H   0  0  0  0  0  0
  -25.8649  -21.5789   22.1430 H   0  0  0  0  0  0
  -29.4061  -25.8748   21.6767 H   0  0  0  0  0  0
  -27.6933  -25.8142   21.9308 H   0  0  0  0  0  0
  -26.3508  -18.5566   22.1239 H   0  0  0  0  0  0
  -27.2746  -19.7162   23.0445 H   0  0  0  0  0  0
  -27.1661  -19.5219   20.0206 H   0  0  0  0  0  0
  1 25  1  0  0  0
  1 30  2  0  0  0
  1 86  1  0  0  0
  2  3  1  0  0  0
  2 25  1  0  0  0
  2 87  1  0  0  0
  2 88  1  0  0  0
  3  4  1  0  0  0
  3 89  1  0  0  0
  3 90  1  0  0  0
  4  5  1  0  0  0
  4 91  1  0  0  0
  4 92  1  0  0  0
  5  6  1  0  0  0
  5 26  1  0  0  0
  5 93  1  0  0  0
  6 25  1  0  0  0
  6 94  1  0  0  0
  6 95  1  0  0  0
  7  8  2  0  0  0
  7 26  1  0  0  0
  7 29  1  0  0  0
  8  9  1  0  0  0
  8 22  1  0  0  0
  9 10  1  0  0  0
  9 27  2  0  0  0
 10 11  2  0  0  0
 10 15  1  0  0  0
 11 12  1  0  0  0
 11 96  1  0  0  0
 12 13  2  0  0  0
 12 97  1  0  0  0
 13 14  1  0  0  0
 13 31  1  0  0  0
 14 15  2  0  0  0
 14 98  1  0  0  0
 15 99  1  0  0  0
 16 17  2  0  0  0
 16 21  1  0  0  0
 16 31  1  0  0  0
 17 18  1  0  0  0
 17100  1  0  0  0
 18 19  2  0  0  0
 18101  1  0  0  0
 19 20  1  0  0  0
 19 24  1  0  0  0
 20 21  2  0  0  0
 20102  1  0  0  0
 21 23  1  0  0  0
 22 28  1  0  0  0
 22 32  2  0  0  0
 26 27  1  0  0  0
 28103  1  0  0  0
 28104  1  0  0  0
 29105  1  0  0  0
 29106  1  0  0  0
 33 34  1  0  0  0
 33 66  1  0  0  0
 33 70  2  0  0  0
 34 36  1  0  0  0
 34 59  1  0  0  0
 34107  1  0  0  0
 35 44  2  0  0  0
 35 45  1  0  0  0
 35 68  1  0  0  0
 36 56  1  0  0  0
 36108  1  0  0  0
 37 39  1  0  0  0
 37 47  1  0  0  0
 37 66  1  0  0  0
 37109  1  0  0  0
 38 43  2  0  0  0
 38 46  1  0  0  0
 38 47  1  0  0  0
 39 64  1  0  0  0
 39 67  2  0  0  0
 40 52  1  0  0  0
 40 53  2  0  0  0
 40 58  1  0  0  0
 41110  1  0  0  0
 41111  1  0  0  0
 41112  1  0  0  0
 41 48  1  0  0  0
 42 43  1  0  0  0
 42 66  1  0  0  0
 42113  1  0  0  0
 42114  1  0  0  0
 43 44  1  0  0  0
 44115  1  0  0  0
 45 46  2  0  0  0
 45116  1  0  0  0
 46117  1  0  0  0
 47118  1  0  0  0
 47119  1  0  0  0
 48 56  1  0  0  0
 48 65  1  0  0  0
 48120  1  0  0  0
 49 50  1  0  0  0
 49 53  1  0  0  0
 49 64  1  0  0  0
 49121  1  0  0  0
 50 51  1  0  0  0
 50122  1  0  0  0
 50123  1  0  0  0
 51 52  1  0  0  0
 51124  1  0  0  0
 51125  1  0  0  0
 52126  1  0  0  0
 52127  1  0  0  0
 53 54  1  0  0  0
 54 55  2  0  0  0
 54128  1  0  0  0
 55 57  1  0  0  0
 55129  1  0  0  0
 56 69  2  0  0  0
 57 58  2  0  0  0
 57130  1  0  0  0
 58131  1  0  0  0
 59 60  1  0  0  0
 59 61  1  0  0  0
 59 62  1  0  0  0
 60132  1  0  0  0
 60133  1  0  0  0
 60134  1  0  0  0
 61135  1  0  0  0
 61136  1  0  0  0
 61137  1  0  0  0
 62138  1  0  0  0
 62139  1  0  0  0
 62140  1  0  0  0
 63 65  1  0  0  0
 63141  1  0  0  0
 63142  1  0  0  0
 63143  1  0  0  0
 64144  1  0  0  0
 65145  1  0  0  0
 68 83  1  0  0  0
 71 73  2  0  0  0
 71 75  1  0  0  0
 71146  1  0  0  0
 72 74  1  0  0  0
 72 75  2  0  0  0
 72147  1  0  0  0
 73 76  1  0  0  0
 73148  1  0  0  0
 74 76  2  0  0  0
 74149  1  0  0  0
 75 83  1  0  0  0
 76 85  1  0  0  0
 77 79  1  0  0  0
 77150  1  0  0  0
 77151  1  0  0  0
 77 81  1  0  0  0
 78 80  1  0  0  0
 78 81  1  0  0  0
 78152  1  0  0  0
 78153  1  0  0  0
 79 86  1  0  0  0
 79154  1  0  0  0
 79155  1  0  0  0
 80 86  1  0  0  0
 80156  1  0  0  0
 80157  1  0  0  0
 81 85  1  0  0  0
 81158  1  0  0  0
 82 84  1  0  0  0
 82159  1  0  0  0
 82160  1  0  0  0
 82161  1  0  0  0
 83162  1  0  0  0
 83163  1  0  0  0
 84164  1  0  0  0
 84165  1  0  0  0
 84 85  1  0  0  0
 85166  1  0  0  0
M  ISO  4   1 100  68 101  83 101  86 100
M  END
> <chiral flag>
0

> <version>
0

> <s_m_source_file>
/data/baiqing/PycharmProjects/Reinvent-master-3.2/result/LINK_invent/BTK/process_docking_weight1_custom_sum_contain_oxygen_bond_distance_aromatic_linkinvent_7_9_3/rearranged_h_0133.sdf

> <i_m_source_file_index>
97

> <r_mmod_Potential_Energy-OPLS-2005>
302.189056396484

> <r_mmod_Stretch_Energy-OPLS-2005>
58.3699417114258

> <r_mmod_Bend_Energy-OPLS-2005>
126.576568603516

> <r_mmod_Torsional_Energy-OPLS-2005>
378.905151367188

> <r_mmod_Improper_Torsional_Energy-OPLS-2005>
15.7922782897949

> <r_mmod_Van_der_Waal_Energy-OPLS-2005>
141.282897949219

> <r_mmod_Electrostatic_Energy-OPLS-2005>
-268.233489990234

> <r_mmod_Solvation_Energy-OPLS-2005>
-179.995315551758

> <b_mmod_Minimization_Converged-OPLS-2005>
0

> <r_mmod_RMS_Derivative-OPLS-2005>
3.79581642150879

$$$$
98
                    3D
 Structure written by MMmdl.
164172  0  0  1  0            999 V2000
  -30.6517  -14.6154   20.5157 C   0  0  0  0  0  0
  -30.4275  -12.3761   19.4588 C   0  0  0  0  0  0
  -29.5063  -12.5016   18.2261 C   0  0  0  0  0  0
  -28.0284  -12.3416   18.6338 C   0  0  0  0  0  0
  -27.6498  -13.2198   19.8558 C   0  0  2  0  0  0
  -28.6914  -13.0921   20.9882 C   0  0  0  0  0  0
  -25.2555  -13.8186   20.5681 C   0  0  0  0  0  0
  -24.1825  -13.0444   20.9181 C   0  0  0  0  0  0
  -24.6396  -11.6916   20.8731 C   0  0  0  0  0  0
  -23.9067  -10.4297   21.0403 C   0  0  0  0  0  0
  -24.3618   -9.4213   21.9181 C   0  0  0  0  0  0
  -23.6293   -8.2248   22.0755 C   0  0  0  0  0  0
  -22.4276   -8.0284   21.3546 C   0  0  0  0  0  0
  -21.9910   -9.0257   20.4648 C   0  0  0  0  0  0
  -22.7239  -10.2135   20.3055 C   0  0  0  0  0  0
  -21.6854   -6.0737   22.5279 C   0  0  0  0  0  0
  -21.4015   -6.5640   23.8213 C   0  0  0  0  0  0
  -21.3659   -5.6794   24.9175 C   0  0  0  0  0  0
  -21.6043   -4.3056   24.7225 C   0  0  0  0  0  0
  -21.8819   -3.8148   23.4346 C   0  0  0  0  0  0
  -21.9191   -4.6966   22.3402 C   0  0  0  0  0  0
  -22.7847  -13.5232   21.1848 C   0  0  0  0  0  0
  -22.1661   -4.2152   21.0978 F   0  0  0  0  0  0
  -21.5627   -3.4540   25.7738 F   0  0  0  0  0  0
  -30.0106  -13.4080   20.4288 N   0  0  0  0  0  0
  -26.2975  -12.9369   20.3286 N   0  0  0  0  0  0
  -25.9323  -11.6522   20.5738 N   0  0  0  0  0  0
  -22.0493  -12.8225   22.0409 N   0  0  0  0  0  0
  -25.4272  -15.1907   20.4123 N   0  0  0  0  0  0
  -31.8145  -14.7227   20.1154 O   0  0  0  0  0  0
  -21.6640   -6.8881   21.4242 O   0  0  0  0  0  0
  -22.3529  -14.5537   20.6699 O   0  0  0  0  0  0
  -24.6227  -31.8617   23.2034 C   0  0  0  0  0  0
  -25.9085  -32.4791   23.8361 C   0  0  1  0  0  0
  -27.2243  -27.3524   20.1210 C   0  0  0  0  0  0
  -25.5911  -33.8589   24.2289 N   0  0  0  0  0  0
  -23.4150  -30.4837   21.5455 C   0  0  2  0  0  0
  -24.8625  -28.9384   20.1137 C   0  0  0  0  0  0
  -22.7460  -29.4629   22.4956 C   0  0  0  0  0  0
  -18.0283  -28.1379   22.8491 C   0  0  0  0  0  0
  -24.1487  -36.7298   23.2639 C   0  0  0  0  0  0
  -25.9517  -30.8042   21.3676 C   0  0  0  0  0  0
  -26.0288  -29.4325   20.7133 C   0  0  0  0  0  0
  -27.2177  -28.6509   20.7044 C   0  0  0  0  0  0
  -26.0411  -26.8927   19.5086 C   0  0  0  0  0  0
  -24.8679  -27.6726   19.5029 C   0  0  0  0  0  0
  -23.6280  -29.8149   20.1615 C   0  0  0  0  0  0
  -25.4111  -36.3092   24.0332 C   0  0  1  0  0  0
  -20.5881  -28.3682   23.1296 C   0  0  2  0  0  0
  -20.6772  -26.9412   22.5415 C   0  0  0  0  0  0
  -19.5752  -26.6386   21.5213 C   0  0  0  0  0  0
  -18.1928  -26.7924   22.1623 C   0  0  0  0  0  0
  -19.1536  -28.8848   23.2886 C   0  0  0  0  0  0
  -18.9462  -30.1449   23.8904 C   0  0  0  0  0  0
  -17.6463  -30.6588   24.0567 C   0  0  0  0  0  0
  -25.9047  -34.9460   23.5112 C   0  0  0  0  0  0
  -16.5353  -29.9088   23.6329 C   0  0  0  0  0  0
  -16.7271  -28.6502   23.0358 C   0  0  0  0  0  0
  -26.4488  -31.6593   25.0719 C   0  0  0  0  0  0
  -25.3733  -31.3718   26.1456 C   0  0  0  0  0  0
  -27.0327  -30.3024   24.6143 C   0  0  0  0  0  0
  -27.6058  -32.4317   25.7482 C   0  0  0  0  0  0
  -27.5579  -37.1799   24.8463 C   0  0  0  0  0  0
  -21.4177  -29.3036   22.3695 N   0  0  0  0  0  0
  -26.4293  -37.3783   23.9409 N   0  0  0  0  0  0
  -24.6817  -31.0657   22.0966 N   0  0  0  0  0  0
  -23.4195  -28.8179   23.3033 O   0  0  0  0  0  0
  -28.3433  -26.5251   20.1237 O   0  0  0  0  0  0
  -26.5622  -34.8924   22.4682 O   0  0  0  0  0  0
  -23.5398  -32.1404   23.7384 O   0  0  0  0  0  0
  -30.4214  -19.4400   21.4815 C   0  0  0  0  0  0
  -30.1271  -20.8148   21.6724 C   0  0  0  0  0  0
  -28.6365  -20.7715   19.7908 C   0  0  0  0  0  0
  -29.8349  -18.6798   20.4410 C   0  0  0  0  0  0
  -28.8919  -19.3699   19.6097 C   0  0  0  0  0  0
  -29.2544  -21.5295   20.8193 C   0  0  0  0  0  0
  -28.6895  -19.0743   17.1073 C   0  0  0  0  0  0
  -26.6299  -18.8209   18.5758 C   0  0  0  0  0  0
  -30.0722  -16.1620   22.4716 C   0  0  0  0  0  0
  -30.3893  -17.2345   20.1485 C   0  0  0  0  0  0
  -28.2116  -25.2522   20.8461 C   0  0  0  0  0  0
  -28.5458  -23.8689   20.1412 C   0  0  0  0  0  0
  -28.1549  -18.6449   18.4810 C   0  0  0  0  0  0
  -29.9116  -15.9485   20.9555 C   0  0  1  0  0  0
  -29.0510  -22.8914   21.0991 O   0  0  0  0  0  0
  -31.4728  -12.4764   19.1617 H   0  0  0  0  0  0
  -30.3409  -11.3841   19.9052 H   0  0  0  0  0  0
  -29.7712  -11.7519   17.4796 H   0  0  0  0  0  0
  -29.6550  -13.4728   17.7521 H   0  0  0  0  0  0
  -27.8640  -11.2897   18.8700 H   0  0  0  0  0  0
  -27.3762  -12.5681   17.7897 H   0  0  0  0  0  0
  -27.6636  -14.2508   19.5036 H   0  0  0  0  0  0
  -28.6928  -12.0807   21.3974 H   0  0  0  0  0  0
  -28.4393  -13.7512   21.8192 H   0  0  0  0  0  0
  -25.2764   -9.5688   22.4755 H   0  0  0  0  0  0
  -24.0001   -7.4641   22.7478 H   0  0  0  0  0  0
  -21.0840   -8.8775   19.8957 H   0  0  0  0  0  0
  -22.3696  -10.9674   19.6162 H   0  0  0  0  0  0
  -21.2012   -7.6147   23.9716 H   0  0  0  0  0  0
  -21.1480   -6.0523   25.9076 H   0  0  0  0  0  0
  -22.0599   -2.7611   23.2845 H   0  0  0  0  0  0
  -22.4108  -11.9882   22.4791 H   0  0  0  0  0  0
  -21.1115  -13.1257   22.2624 H   0  0  0  0  0  0
  -24.6637  -15.8470   20.5320 H   0  0  0  0  0  0
  -26.2858  -15.6331   20.1116 H   0  0  0  0  0  0
  -26.7158  -32.5478   23.1120 H   0  0  0  0  0  0
  -25.0047  -33.9739   25.0424 H   0  0  0  0  0  0
  -22.7074  -31.3031   21.4030 H   0  0  0  0  0  0
  -23.3748  -35.9631   23.3304 H   0  0  0  0  0  0
  -24.3578  -36.8923   22.2054 H   0  0  0  0  0  0
  -23.7240  -37.6498   23.6664 H   0  0  0  0  0  0
  -26.0749  -31.5683   20.5989 H   0  0  0  0  0  0
  -26.8342  -30.8563   21.9931 H   0  0  0  0  0  0
  -28.1180  -29.0264   21.1708 H   0  0  0  0  0  0
  -26.0234  -25.9186   19.0406 H   0  0  0  0  0  0
  -23.9728  -27.2883   19.0331 H   0  0  0  0  0  0
  -23.7433  -30.5902   19.4031 H   0  0  0  0  0  0
  -22.7492  -29.2408   19.8631 H   0  0  0  0  0  0
  -25.1289  -36.1949   25.0826 H   0  0  0  0  0  0
  -20.9973  -28.3259   24.1417 H   0  0  0  0  0  0
  -20.5680  -26.2294   23.3609 H   0  0  0  0  0  0
  -21.6641  -26.7449   22.1208 H   0  0  0  0  0  0
  -19.6917  -25.6299   21.1238 H   0  0  0  0  0  0
  -19.6689  -27.3202   20.6745 H   0  0  0  0  0  0
  -17.4200  -26.6678   21.4021 H   0  0  0  0  0  0
  -18.0326  -26.0060   22.9013 H   0  0  0  0  0  0
  -19.7941  -30.7256   24.2286 H   0  0  0  0  0  0
  -17.5023  -31.6271   24.5163 H   0  0  0  0  0  0
  -15.5358  -30.2997   23.7645 H   0  0  0  0  0  0
  -15.8669  -28.0821   22.7077 H   0  0  0  0  0  0
  -24.5903  -30.7073   25.7781 H   0  0  0  0  0  0
  -24.8926  -32.2880   26.4899 H   0  0  0  0  0  0
  -25.8065  -30.8882   27.0221 H   0  0  0  0  0  0
  -26.2887  -29.6771   24.1193 H   0  0  0  0  0  0
  -27.4069  -29.7282   25.4628 H   0  0  0  0  0  0
  -27.8738  -30.4320   23.9328 H   0  0  0  0  0  0
  -27.2689  -33.3625   26.2057 H   0  0  0  0  0  0
  -28.3870  -32.6864   25.0306 H   0  0  0  0  0  0
  -28.0724  -31.8440   26.5398 H   0  0  0  0  0  0
  -28.2597  -38.0095   24.7521 H   0  0  0  0  0  0
  -28.1079  -36.2629   24.6282 H   0  0  0  0  0  0
  -27.2302  -37.1451   25.8868 H   0  0  0  0  0  0
  -20.9354  -29.8754   21.6904 H   0  0  0  0  0  0
  -26.0177  -38.2860   24.1411 H   0  0  0  0  0  0
  -31.1485  -18.9741   22.1317 H   0  0  0  0  0  0
  -30.6153  -21.3418   22.4805 H   0  0  0  0  0  0
  -27.9461  -21.2666   19.1248 H   0  0  0  0  0  0
  -29.7606  -18.8857   17.0282 H   0  0  0  0  0  0
  -28.5263  -20.1371   16.9265 H   0  0  0  0  0  0
  -28.2000  -18.5236   16.3036 H   0  0  0  0  0  0
  -26.2573  -18.4801   19.5424 H   0  0  0  0  0  0
  -26.1228  -18.2345   17.8089 H   0  0  0  0  0  0
  -26.3204  -19.8574   18.4455 H   0  0  0  0  0  0
  -29.4404  -16.9786   22.8207 H   0  0  0  0  0  0
  -31.1034  -16.4062   22.7282 H   0  0  0  0  0  0
  -29.7941  -15.2731   23.0382 H   0  0  0  0  0  0
  -31.4669  -17.3177   20.2976 H   0  0  0  0  0  0
  -30.3134  -17.0271   19.0820 H   0  0  0  0  0  0
  -28.9054  -25.3530   21.6811 H   0  0  0  0  0  0
  -27.2330  -25.1706   21.3219 H   0  0  0  0  0  0
  -29.3164  -24.0224   19.3859 H   0  0  0  0  0  0
  -27.6610  -23.4956   19.6247 H   0  0  0  0  0  0
  -28.3152  -17.5726   18.5744 H   0  0  0  0  0  0
  -28.8502  -15.8256   20.7474 H   0  0  0  0  0  0
  1 25  1  0  0  0
  1 30  2  0  0  0
  1 84  1  0  0  0
  2  3  1  0  0  0
  2 25  1  0  0  0
  2 86  1  0  0  0
  2 87  1  0  0  0
  3  4  1  0  0  0
  3 88  1  0  0  0
  3 89  1  0  0  0
  4  5  1  0  0  0
  4 90  1  0  0  0
  4 91  1  0  0  0
  5  6  1  0  0  0
  5 26  1  0  0  0
  5 92  1  0  0  0
  6 25  1  0  0  0
  6 93  1  0  0  0
  6 94  1  0  0  0
  7  8  2  0  0  0
  7 26  1  0  0  0
  7 29  1  0  0  0
  8  9  1  0  0  0
  8 22  1  0  0  0
  9 10  1  0  0  0
  9 27  2  0  0  0
 10 11  2  0  0  0
 10 15  1  0  0  0
 11 12  1  0  0  0
 11 95  1  0  0  0
 12 13  2  0  0  0
 12 96  1  0  0  0
 13 14  1  0  0  0
 13 31  1  0  0  0
 14 15  2  0  0  0
 14 97  1  0  0  0
 15 98  1  0  0  0
 16 17  2  0  0  0
 16 21  1  0  0  0
 16 31  1  0  0  0
 17 18  1  0  0  0
 17 99  1  0  0  0
 18 19  2  0  0  0
 18100  1  0  0  0
 19 20  1  0  0  0
 19 24  1  0  0  0
 20 21  2  0  0  0
 20101  1  0  0  0
 21 23  1  0  0  0
 22 28  1  0  0  0
 22 32  2  0  0  0
 26 27  1  0  0  0
 28102  1  0  0  0
 28103  1  0  0  0
 29104  1  0  0  0
 29105  1  0  0  0
 33 34  1  0  0  0
 33 66  1  0  0  0
 33 70  2  0  0  0
 34 36  1  0  0  0
 34 59  1  0  0  0
 34106  1  0  0  0
 35 44  2  0  0  0
 35 45  1  0  0  0
 35 68  1  0  0  0
 36 56  1  0  0  0
 36107  1  0  0  0
 37 39  1  0  0  0
 37 47  1  0  0  0
 37 66  1  0  0  0
 37108  1  0  0  0
 38 43  2  0  0  0
 38 46  1  0  0  0
 38 47  1  0  0  0
 39 64  1  0  0  0
 39 67  2  0  0  0
 40 52  1  0  0  0
 40 53  2  0  0  0
 40 58  1  0  0  0
 41109  1  0  0  0
 41110  1  0  0  0
 41111  1  0  0  0
 41 48  1  0  0  0
 42 43  1  0  0  0
 42 66  1  0  0  0
 42112  1  0  0  0
 42113  1  0  0  0
 43 44  1  0  0  0
 44114  1  0  0  0
 45 46  2  0  0  0
 45115  1  0  0  0
 46116  1  0  0  0
 47117  1  0  0  0
 47118  1  0  0  0
 48 56  1  0  0  0
 48 65  1  0  0  0
 48119  1  0  0  0
 49 50  1  0  0  0
 49 53  1  0  0  0
 49 64  1  0  0  0
 49120  1  0  0  0
 50 51  1  0  0  0
 50121  1  0  0  0
 50122  1  0  0  0
 51 52  1  0  0  0
 51123  1  0  0  0
 51124  1  0  0  0
 52125  1  0  0  0
 52126  1  0  0  0
 53 54  1  0  0  0
 54 55  2  0  0  0
 54127  1  0  0  0
 55 57  1  0  0  0
 55128  1  0  0  0
 56 69  2  0  0  0
 57 58  2  0  0  0
 57129  1  0  0  0
 58130  1  0  0  0
 59 60  1  0  0  0
 59 61  1  0  0  0
 59 62  1  0  0  0
 60131  1  0  0  0
 60132  1  0  0  0
 60133  1  0  0  0
 61134  1  0  0  0
 61135  1  0  0  0
 61136  1  0  0  0
 62137  1  0  0  0
 62138  1  0  0  0
 62139  1  0  0  0
 63 65  1  0  0  0
 63140  1  0  0  0
 63141  1  0  0  0
 63142  1  0  0  0
 64143  1  0  0  0
 65144  1  0  0  0
 68 81  1  0  0  0
 71 72  2  0  0  0
 71 74  1  0  0  0
 71145  1  0  0  0
 72 76  1  0  0  0
 72146  1  0  0  0
 73 75  1  0  0  0
 73 76  2  0  0  0
 73147  1  0  0  0
 74 75  2  0  0  0
 74 80  1  0  0  0
 75 83  1  0  0  0
 76 85  1  0  0  0
 77148  1  0  0  0
 77149  1  0  0  0
 77150  1  0  0  0
 77 83  1  0  0  0
 78 83  1  0  0  0
 78151  1  0  0  0
 78152  1  0  0  0
 78153  1  0  0  0
 79154  1  0  0  0
 79155  1  0  0  0
 79156  1  0  0  0
 79 84  1  0  0  0
 80 84  1  0  0  0
 80157  1  0  0  0
 80158  1  0  0  0
 81 82  1  0  0  0
 81159  1  0  0  0
 81160  1  0  0  0
 82 85  1  0  0  0
 82161  1  0  0  0
 82162  1  0  0  0
 83163  1  0  0  0
 84164  1  0  0  0
M  ISO  4   1 100  68 101  81 101  84 100
M  END
> <chiral flag>
0

> <version>
0

> <s_m_source_file>
/data/baiqing/PycharmProjects/Reinvent-master-3.2/result/LINK_invent/BTK/process_docking_weight1_custom_sum_contain_oxygen_bond_distance_aromatic_linkinvent_7_9_3/rearranged_h_0133.sdf

> <i_m_source_file_index>
98

> <r_mmod_Potential_Energy-OPLS-2005>
74.0701751708984

> <r_mmod_Stretch_Energy-OPLS-2005>
72.5169143676758

> <r_mmod_Bend_Energy-OPLS-2005>
143.810302734375

> <r_mmod_Torsional_Energy-OPLS-2005>
211.799362182617

> <r_mmod_Improper_Torsional_Energy-OPLS-2005>
4.12147665023804

> <r_mmod_Van_der_Waal_Energy-OPLS-2005>
134.648406982422

> <r_mmod_Electrostatic_Energy-OPLS-2005>
-344.339294433594

> <r_mmod_Solvation_Energy-OPLS-2005>
-186.455825805664

> <b_mmod_Minimization_Converged-OPLS-2005>
0

> <r_mmod_RMS_Derivative-OPLS-2005>
0.650717079639435

$$$$
